CHEMBL3673651
     RDKit          3D

  0  0  0  0  0  0  0  0  0  0999 V3000
M  V30 BEGIN CTAB
M  V30 COUNTS 48 51 0 0 0
M  V30 BEGIN ATOM
M  V30 1 C 2.871653 -6.115722 4.953097 0
M  V30 2 C 3.800919 -5.993084 3.769290 0
M  V30 3 C 3.657635 -4.603465 3.236341 0
M  V30 4 C 2.817125 -4.061523 2.284012 0
M  V30 5 C 3.139987 -2.701864 2.201918 0
M  V30 6 N 2.395926 -1.921233 1.272845 0
M  V30 7 C 2.712829 -1.679637 -0.097917 0
M  V30 8 O 3.748394 -2.205842 -0.528772 0
M  V30 9 C 1.816481 -0.844183 -0.894231 0
M  V30 10 C 2.145444 -0.624771 -2.220113 0
M  V30 11 C 1.295287 0.164873 -2.966791 0
M  V30 12 C 0.141926 0.731267 -2.426745 0
M  V30 13 C -0.828429 1.537789 -2.987541 0
M  V30 14 C -1.688941 1.747868 -1.931019 0
M  V30 15 N -1.300296 1.134258 -0.812550 0
M  V30 16 C -0.137142 0.477141 -1.092823 0
M  V30 17 N 0.708098 -0.296866 -0.384519 0
M  V30 18 C -1.814053 1.029334 0.526762 0
M  V30 19 C -2.860107 2.037541 0.887617 0
M  V30 20 C -2.394931 3.452322 0.806269 0
M  V30 21 C -3.232021 1.757894 2.332981 0
M  V30 22 C -4.135464 1.862174 0.091545 0
M  V30 23 N -4.064034 2.543098 -1.187029 0
M  V30 24 C -2.910814 2.567884 -2.035760 0
M  V30 25 O -2.918651 3.381448 -2.995378 0
M  V30 26 N 4.141832 -2.514816 3.099070 0
M  V30 27 O 4.415898 -3.632789 3.678501 0
M  V30 28 H 3.426073 -6.383703 5.885935 0
M  V30 29 H 2.062909 -6.860462 4.804430 0
M  V30 30 H 2.348961 -5.160415 5.180687 0
M  V30 31 H 3.374929 -6.672928 2.977397 0
M  V30 32 H 4.842545 -6.251977 3.980096 0
M  V30 33 H 2.088169 -4.664852 1.764709 0
M  V30 34 H 1.533245 -1.505745 1.702176 0
M  V30 35 H 3.023408 -1.034144 -2.698200 0
M  V30 36 H 1.503924 0.375441 -4.027346 0
M  V30 37 H -0.912034 1.919424 -3.996043 0
M  V30 38 H -2.211230 0.025755 0.780640 0
M  V30 39 H -0.956366 1.201020 1.224759 0
M  V30 40 H -1.429067 3.457681 0.221916 0
M  V30 41 H -3.082870 4.117057 0.248003 0
M  V30 42 H -2.173528 3.866122 1.793998 0
M  V30 43 H -4.250243 2.139564 2.532368 0
M  V30 44 H -2.470504 2.145471 3.032491 0
M  V30 45 H -3.279230 0.639670 2.423929 0
M  V30 46 H -4.937705 2.368943 0.677236 0
M  V30 47 H -4.422701 0.806978 -0.001383 0
M  V30 48 H -4.859213 3.074794 -1.592133 0
M  V30 END ATOM
M  V30 BEGIN BOND
M  V30 1 1 1 2
M  V30 2 1 2 3
M  V30 3 2 3 4
M  V30 4 1 4 5
M  V30 5 1 5 6
M  V30 6 1 6 7
M  V30 7 2 7 8
M  V30 8 1 7 9
M  V30 9 2 9 10
M  V30 10 1 10 11
M  V30 11 2 11 12
M  V30 12 1 12 13
M  V30 13 2 13 14
M  V30 14 1 14 15
M  V30 15 1 15 16
M  V30 16 2 16 17
M  V30 17 1 15 18
M  V30 18 1 18 19
M  V30 19 1 19 20
M  V30 20 1 19 21
M  V30 21 1 19 22
M  V30 22 1 22 23
M  V30 23 1 23 24
M  V30 24 2 24 25
M  V30 25 2 5 26
M  V30 26 1 26 27
M  V30 27 1 27 3
M  V30 28 1 17 9
M  V30 29 1 16 12
M  V30 30 1 24 14
M  V30 31 1 1 28
M  V30 32 1 1 29
M  V30 33 1 1 30
M  V30 34 1 2 31
M  V30 35 1 2 32
M  V30 36 1 4 33
M  V30 37 1 6 34
M  V30 38 1 10 35
M  V30 39 1 11 36
M  V30 40 1 13 37
M  V30 41 1 18 38
M  V30 42 1 18 39
M  V30 43 1 20 40
M  V30 44 1 20 41
M  V30 45 1 20 42
M  V30 46 1 21 43
M  V30 47 1 21 44
M  V30 48 1 21 45
M  V30 49 1 22 46
M  V30 50 1 22 47
M  V30 51 1 23 48
M  V30 END BOND
M  V30 END CTAB
M  END
>  <Dataset>  (1) 
ChEMBL_Kinases

>  <Ligand_Instance>  (1) 
nan

>  <PDB_ID>  (1) 
nan

>  <Standardized_SMILES>  (1) 
CCc1cc(NC(=O)c2ccc3cc4n(c3n2)CC(C)(C)CNC4=O)no1

>  <Name>  (1) 
nan

>  <Pocket>  (1) 
nan

>  <ATP_Site>  (1) 
nan

>  <Peripheral>  (1) 
nan

>  <Num_H_Atoms_ProtBoundConf>  (1) 
nan

>  <Num_Resolved_Atoms>  (1) 
nan

>  <Num_Not_Resolved_Atoms>  (1) 
nan

$$$$
CHEMBL3673652
     RDKit          3D

  0  0  0  0  0  0  0  0  0  0999 V3000
M  V30 BEGIN CTAB
M  V30 COUNTS 51 54 0 0 0
M  V30 BEGIN ATOM
M  V30 1 C 2.006820 -3.370531 6.318325 0
M  V30 2 C 3.374160 -2.767491 6.063844 0
M  V30 3 C 3.429139 -1.475508 6.890061 0
M  V30 4 C 3.498741 -2.409012 4.625943 0
M  V30 5 C 2.538562 -1.582659 4.029574 0
M  V30 6 C 2.909184 -1.420634 2.694728 0
M  V30 7 N 2.239448 -0.662879 1.688812 0
M  V30 8 C 2.418379 0.701403 1.334698 0
M  V30 9 O 3.253722 1.439119 1.920322 0
M  V30 10 C 1.578715 1.208401 0.249677 0
M  V30 11 C 1.716200 2.528598 -0.130702 0
M  V30 12 C 0.923120 3.023493 -1.161958 0
M  V30 13 C -0.003755 2.232476 -1.822589 0
M  V30 14 C -0.919628 2.364985 -2.838904 0
M  V30 15 C -1.540531 1.138931 -3.004578 0
M  V30 16 N -1.029781 0.273792 -2.123139 0
M  V30 17 C -0.096975 0.923740 -1.400193 0
M  V30 18 N 0.672940 0.454852 -0.403652 0
M  V30 19 C -1.446447 -1.122632 -2.006106 0
M  V30 20 C -2.927431 -1.290436 -1.953528 0
M  V30 21 C -3.562180 -0.144346 -1.192542 0
M  V30 22 C -3.221032 -2.558744 -1.161889 0
M  V30 23 C -3.530006 -1.457191 -3.343579 0
M  V30 24 N -3.427262 -0.212940 -4.065487 0
M  V30 25 C -2.578677 0.944878 -4.019645 0
M  V30 26 O -2.732187 1.825754 -4.883305 0
M  V30 27 N 4.042327 -2.140354 2.567211 0
M  V30 28 O 4.361832 -2.697589 3.684077 0
M  V30 29 H 1.445483 -2.846539 7.115960 0
M  V30 30 H 2.075581 -4.460049 6.518013 0
M  V30 31 H 1.380691 -3.259967 5.392429 0
M  V30 32 H 4.208609 -3.418972 6.365007 0
M  V30 33 H 4.379413 -0.947171 6.758873 0
M  V30 34 H 3.247934 -1.673614 7.952736 0
M  V30 35 H 2.623112 -0.791081 6.561720 0
M  V30 36 H 1.646160 -1.101702 4.409353 0
M  V30 37 H 1.560655 -1.319695 1.235717 0
M  V30 38 H 2.429941 3.183489 0.359806 0
M  V30 39 H 1.005085 4.061884 -1.488690 0
M  V30 40 H -1.076144 3.283337 -3.368821 0
M  V30 41 H -1.011030 -1.576463 -1.091590 0
M  V30 42 H -1.026940 -1.674499 -2.867867 0
M  V30 43 H -4.373994 0.268863 -1.811028 0
M  V30 44 H -4.020551 -0.477042 -0.222229 0
M  V30 45 H -2.829487 0.654574 -0.959977 0
M  V30 46 H -2.770615 -2.428184 -0.137223 0
M  V30 47 H -2.656125 -3.428494 -1.583729 0
M  V30 48 H -4.290024 -2.776192 -1.063024 0
M  V30 49 H -2.916797 -2.223511 -3.853287 0
M  V30 50 H -4.582402 -1.773116 -3.258924 0
M  V30 51 H -4.148255 -0.150038 -4.794045 0
M  V30 END ATOM
M  V30 BEGIN BOND
M  V30 1 1 1 2
M  V30 2 1 2 3
M  V30 3 1 2 4
M  V30 4 2 4 5
M  V30 5 1 5 6
M  V30 6 1 6 7
M  V30 7 1 7 8
M  V30 8 2 8 9
M  V30 9 1 8 10
M  V30 10 2 10 11
M  V30 11 1 11 12
M  V30 12 2 12 13
M  V30 13 1 13 14
M  V30 14 2 14 15
M  V30 15 1 15 16
M  V30 16 1 16 17
M  V30 17 2 17 18
M  V30 18 1 16 19
M  V30 19 1 19 20
M  V30 20 1 20 21
M  V30 21 1 20 22
M  V30 22 1 20 23
M  V30 23 1 23 24
M  V30 24 1 24 25
M  V30 25 2 25 26
M  V30 26 2 6 27
M  V30 27 1 27 28
M  V30 28 1 28 4
M  V30 29 1 18 10
M  V30 30 1 17 13
M  V30 31 1 25 15
M  V30 32 1 1 29
M  V30 33 1 1 30
M  V30 34 1 1 31
M  V30 35 1 2 32
M  V30 36 1 3 33
M  V30 37 1 3 34
M  V30 38 1 3 35
M  V30 39 1 5 36
M  V30 40 1 7 37
M  V30 41 1 11 38
M  V30 42 1 12 39
M  V30 43 1 14 40
M  V30 44 1 19 41
M  V30 45 1 19 42
M  V30 46 1 21 43
M  V30 47 1 21 44
M  V30 48 1 21 45
M  V30 49 1 22 46
M  V30 50 1 22 47
M  V30 51 1 22 48
M  V30 52 1 23 49
M  V30 53 1 23 50
M  V30 54 1 24 51
M  V30 END BOND
M  V30 END CTAB
M  END
>  <Dataset>  (2) 
ChEMBL_Kinases

>  <Ligand_Instance>  (2) 
nan

>  <PDB_ID>  (2) 
nan

>  <Standardized_SMILES>  (2) 
CC(C)c1cc(NC(=O)c2ccc3cc4n(c3n2)CC(C)(C)CNC4=O)no1

>  <Name>  (2) 
nan

>  <Pocket>  (2) 
nan

>  <ATP_Site>  (2) 
nan

>  <Peripheral>  (2) 
nan

>  <Num_H_Atoms_ProtBoundConf>  (2) 
nan

>  <Num_Resolved_Atoms>  (2) 
nan

>  <Num_Not_Resolved_Atoms>  (2) 
nan

$$$$
CHEMBL3673653
     RDKit          3D

  0  0  0  0  0  0  0  0  0  0999 V3000
M  V30 BEGIN CTAB
M  V30 COUNTS 49 53 0 0 0
M  V30 BEGIN ATOM
M  V30 1 C 4.682451 -1.765564 1.208779 0
M  V30 2 C 3.922287 -2.471372 0.136053 0
M  V30 3 C 3.657561 -3.892574 0.589794 0
M  V30 4 C 4.798130 -2.591264 -1.111153 0
M  V30 5 N 5.481996 -1.349386 -1.413264 0
M  V30 6 C 4.847161 -0.079766 -1.594757 0
M  V30 7 O 5.478601 0.791469 -2.281900 0
M  V30 8 C 3.545818 0.323986 -1.072949 0
M  V30 9 C 3.098157 1.639972 -1.145171 0
M  V30 10 C 1.849154 1.633010 -0.560339 0
M  V30 11 C 0.917296 2.626093 -0.337488 0
M  V30 12 C -0.290548 2.357215 0.284017 0
M  V30 13 C -0.522397 1.054013 0.670792 0
M  V30 14 C -1.805606 0.810302 1.321212 0
M  V30 15 O -2.675245 1.685468 1.539707 0
M  V30 16 N -2.215451 -0.488344 1.789947 0
M  V30 17 C -3.526888 -0.369106 2.375489 0
M  V30 18 C -4.832621 -0.468936 1.941082 0
M  V30 19 C -5.610158 -0.230785 3.058140 0
M  V30 20 C -7.092597 -0.259675 2.954829 0
M  V30 21 C -7.680494 -1.452045 2.192783 0
M  V30 22 C -7.758856 -0.026318 1.668393 0
M  V30 23 O -4.822124 -0.006970 4.076814 0
M  V30 24 N -3.574451 -0.081424 3.706598 0
M  V30 25 N 0.382137 0.067598 0.459392 0
M  V30 26 C 1.572253 0.337519 -0.154034 0
M  V30 27 N 2.626599 -0.453692 -0.477378 0
M  V30 28 C 2.584239 -1.859820 -0.157196 0
M  V30 29 H 4.691200 -2.363960 2.139756 0
M  V30 30 H 4.183744 -0.797152 1.508774 0
M  V30 31 H 5.710695 -1.465026 0.915513 0
M  V30 32 H 2.806618 -4.338089 0.011717 0
M  V30 33 H 4.529850 -4.546324 0.497743 0
M  V30 34 H 3.300901 -3.931714 1.653038 0
M  V30 35 H 4.111138 -2.817843 -1.938447 0
M  V30 36 H 5.520565 -3.387718 -0.889427 0
M  V30 37 H 6.525725 -1.315957 -1.519333 0
M  V30 38 H 3.589838 2.519199 -1.562772 0
M  V30 39 H 1.135257 3.637124 -0.655270 0
M  V30 40 H -1.002170 3.156733 0.445482 0
M  V30 41 H -1.553933 -1.304234 1.656305 0
M  V30 42 H -4.994587 -0.694404 0.901853 0
M  V30 43 H -7.585590 -0.041774 3.945793 0
M  V30 44 H -7.005228 -2.102388 1.623820 0
M  V30 45 H -8.582785 -1.906472 2.625303 0
M  V30 46 H -8.780584 0.389949 1.652044 0
M  V30 47 H -7.118910 0.247345 0.805117 0
M  V30 48 H 2.125748 -2.464009 -0.972852 0
M  V30 49 H 1.949004 -2.060344 0.733252 0
M  V30 END ATOM
M  V30 BEGIN BOND
M  V30 1 1 1 2
M  V30 2 1 2 3
M  V30 3 1 2 4
M  V30 4 1 4 5
M  V30 5 1 5 6
M  V30 6 2 6 7
M  V30 7 1 6 8
M  V30 8 2 8 9
M  V30 9 1 9 10
M  V30 10 2 10 11
M  V30 11 1 11 12
M  V30 12 2 12 13
M  V30 13 1 13 14
M  V30 14 2 14 15
M  V30 15 1 14 16
M  V30 16 1 16 17
M  V30 17 1 17 18
M  V30 18 2 18 19
M  V30 19 1 19 20
M  V30 20 1 20 21
M  V30 21 1 21 22
M  V30 22 1 19 23
M  V30 23 1 23 24
M  V30 24 1 13 25
M  V30 25 2 25 26
M  V30 26 1 26 27
M  V30 27 1 27 28
M  V30 28 1 28 2
M  V30 29 1 27 8
M  V30 30 1 26 10
M  V30 31 2 24 17
M  V30 32 1 22 20
M  V30 33 1 1 29
M  V30 34 1 1 30
M  V30 35 1 1 31
M  V30 36 1 3 32
M  V30 37 1 3 33
M  V30 38 1 3 34
M  V30 39 1 4 35
M  V30 40 1 4 36
M  V30 41 1 5 37
M  V30 42 1 9 38
M  V30 43 1 11 39
M  V30 44 1 12 40
M  V30 45 1 16 41
M  V30 46 1 18 42
M  V30 47 1 20 43
M  V30 48 1 21 44
M  V30 49 1 21 45
M  V30 50 1 22 46
M  V30 51 1 22 47
M  V30 52 1 28 48
M  V30 53 1 28 49
M  V30 END BOND
M  V30 END CTAB
M  END
>  <Dataset>  (3) 
ChEMBL_Kinases

>  <Ligand_Instance>  (3) 
nan

>  <PDB_ID>  (3) 
nan

>  <Standardized_SMILES>  (3) 
CC1(C)CNC(=O)c2cc3ccc(C(=O)Nc4cc(C5CC5)on4)nc3n2C1

>  <Name>  (3) 
nan

>  <Pocket>  (3) 
nan

>  <ATP_Site>  (3) 
nan

>  <Peripheral>  (3) 
nan

>  <Num_H_Atoms_ProtBoundConf>  (3) 
nan

>  <Num_Resolved_Atoms>  (3) 
nan

>  <Num_Not_Resolved_Atoms>  (3) 
nan

$$$$
CHEMBL3673654
     RDKit          3D

  0  0  0  0  0  0  0  0  0  0999 V3000
M  V30 BEGIN CTAB
M  V30 COUNTS 45 48 0 0 0
M  V30 BEGIN ATOM
M  V30 1 C 4.649943 -6.974125 0.472725 0
M  V30 2 C 3.550535 -6.030572 0.131396 0
M  V30 3 C 3.604647 -4.648740 0.194143 0
M  V30 4 C 2.365530 -4.175171 -0.209544 0
M  V30 5 N 1.853591 -2.853987 -0.340098 0
M  V30 6 C 1.909550 -2.023913 -1.495241 0
M  V30 7 O 2.452610 -2.425366 -2.556871 0
M  V30 8 C 1.316865 -0.688723 -1.413066 0
M  V30 9 C 1.365811 0.134824 -2.540221 0
M  V30 10 C 0.807984 1.417479 -2.493913 0
M  V30 11 C 0.221989 1.804200 -1.292655 0
M  V30 12 C -0.387781 3.012100 -1.009261 0
M  V30 13 C -0.781796 2.833302 0.324654 0
M  V30 14 N -0.444395 1.608242 0.836362 0
M  V30 15 C 0.178746 0.982465 -0.183889 0
M  V30 16 N 0.725822 -0.246056 -0.264595 0
M  V30 17 C -0.692334 1.120855 2.142394 0
M  V30 18 C -2.004740 1.234448 2.761230 0
M  V30 19 C -1.788057 0.877322 4.250946 0
M  V30 20 C -2.815265 0.020760 2.252347 0
M  V30 21 C -2.848055 2.410336 2.699071 0
M  V30 22 N -2.265580 3.678808 2.283163 0
M  V30 23 C -1.496394 3.895413 1.074628 0
M  V30 24 O -1.434677 5.071152 0.635589 0
M  V30 25 N 1.638699 -5.289266 -0.491109 0
M  V30 26 O 2.354259 -6.349136 -0.283286 0
M  V30 27 H 5.600552 -6.428059 0.598391 0
M  V30 28 H 4.793960 -7.775241 -0.259965 0
M  V30 29 H 4.429888 -7.479852 1.454507 0
M  V30 30 H 4.406167 -4.017498 0.485414 0
M  V30 31 H 1.415653 -2.573209 0.567581 0
M  V30 32 H 1.826645 -0.176347 -3.476458 0
M  V30 33 H 0.834063 2.071031 -3.352120 0
M  V30 34 H -0.576691 3.907019 -1.546101 0
M  V30 35 H 0.087202 1.573762 2.824872 0
M  V30 36 H -0.402566 0.034175 2.136239 0
M  V30 37 H -2.701976 0.400651 4.678358 0
M  V30 38 H -1.605476 1.846465 4.757510 0
M  V30 39 H -0.893050 0.254225 4.392929 0
M  V30 40 H -2.128146 -0.834699 2.099815 0
M  V30 41 H -3.604903 -0.243372 2.979059 0
M  V30 42 H -3.228449 0.284547 1.261960 0
M  V30 43 H -3.311450 2.627316 3.692830 0
M  V30 44 H -3.759247 2.206900 2.056026 0
M  V30 45 H -2.390850 4.552533 2.884399 0
M  V30 END ATOM
M  V30 BEGIN BOND
M  V30 1 1 1 2
M  V30 2 2 2 3
M  V30 3 1 3 4
M  V30 4 1 4 5
M  V30 5 1 5 6
M  V30 6 2 6 7
M  V30 7 1 6 8
M  V30 8 2 8 9
M  V30 9 1 9 10
M  V30 10 2 10 11
M  V30 11 1 11 12
M  V30 12 2 12 13
M  V30 13 1 13 14
M  V30 14 1 14 15
M  V30 15 2 15 16
M  V30 16 1 14 17
M  V30 17 1 17 18
M  V30 18 1 18 19
M  V30 19 1 18 20
M  V30 20 1 18 21
M  V30 21 1 21 22
M  V30 22 1 22 23
M  V30 23 2 23 24
M  V30 24 2 4 25
M  V30 25 1 25 26
M  V30 26 1 26 2
M  V30 27 1 16 8
M  V30 28 1 15 11
M  V30 29 1 23 13
M  V30 30 1 1 27
M  V30 31 1 1 28
M  V30 32 1 1 29
M  V30 33 1 3 30
M  V30 34 1 5 31
M  V30 35 1 9 32
M  V30 36 1 10 33
M  V30 37 1 12 34
M  V30 38 1 17 35
M  V30 39 1 17 36
M  V30 40 1 19 37
M  V30 41 1 19 38
M  V30 42 1 19 39
M  V30 43 1 20 40
M  V30 44 1 20 41
M  V30 45 1 20 42
M  V30 46 1 21 43
M  V30 47 1 21 44
M  V30 48 1 22 45
M  V30 END BOND
M  V30 END CTAB
M  END
>  <Dataset>  (4) 
ChEMBL_Kinases

>  <Ligand_Instance>  (4) 
nan

>  <PDB_ID>  (4) 
nan

>  <Standardized_SMILES>  (4) 
Cc1cc(NC(=O)c2ccc3cc4n(c3n2)CC(C)(C)CNC4=O)no1

>  <Name>  (4) 
nan

>  <Pocket>  (4) 
nan

>  <ATP_Site>  (4) 
nan

>  <Peripheral>  (4) 
nan

>  <Num_H_Atoms_ProtBoundConf>  (4) 
nan

>  <Num_Resolved_Atoms>  (4) 
nan

>  <Num_Not_Resolved_Atoms>  (4) 
nan

$$$$
CHEMBL3673655
     RDKit          3D

  0  0  0  0  0  0  0  0  0  0999 V3000
M  V30 BEGIN CTAB
M  V30 COUNTS 52 56 0 0 0
M  V30 BEGIN ATOM
M  V30 1 C 2.462648 0.015229 4.195775 0
M  V30 2 C 3.034964 -1.294436 3.633994 0
M  V30 3 C 2.108476 -2.375407 4.176994 0
M  V30 4 C 4.341829 -1.467332 4.288239 0
M  V30 5 N 5.479359 -0.835650 3.652111 0
M  V30 6 C 5.651922 0.150050 2.633668 0
M  V30 7 O 6.772032 0.702619 2.494524 0
M  V30 8 C 4.552748 0.553335 1.723449 0
M  V30 9 C 4.639854 1.679740 0.929811 0
M  V30 10 C 3.443736 1.738851 0.223124 0
M  V30 11 C 2.928942 2.609683 -0.712878 0
M  V30 12 C 1.666736 2.345929 -1.214861 0
M  V30 13 C 0.896662 1.274987 -0.840964 0
M  V30 14 C -0.430402 1.066475 -1.420214 0
M  V30 15 O -0.922000 1.852268 -2.279761 0
M  V30 16 N -1.221270 -0.036501 -1.034012 0
M  V30 17 C -2.526027 -0.281282 -1.573811 0
M  V30 18 C -3.423377 -1.297213 -1.311677 0
M  V30 19 C -4.531793 -1.064098 -2.099866 0
M  V30 20 C -5.748639 -1.868627 -2.172686 0
M  V30 21 C -6.750954 -1.464004 -3.030270 0
M  V30 22 C -7.911535 -2.241439 -3.092181 0
M  V30 23 C -8.025963 -3.384880 -2.301081 0
M  V30 24 C -6.994075 -3.769278 -1.442228 0
M  V30 25 C -5.865179 -3.001465 -1.390680 0
M  V30 26 O -4.304350 0.031618 -2.792705 0
M  V30 27 N -3.125076 0.509765 -2.496788 0
M  V30 28 N 1.454733 0.447711 0.086459 0
M  V30 29 C 2.677631 0.675983 0.593189 0
M  V30 30 N 3.345021 -0.054781 1.509025 0
M  V30 31 C 2.932740 -1.264307 2.184695 0
M  V30 32 H 1.818196 -0.126035 5.061334 0
M  V30 33 H 1.870040 0.539723 3.411754 0
M  V30 34 H 3.268321 0.712704 4.495222 0
M  V30 35 H 1.665457 -2.075546 5.142762 0
M  V30 36 H 1.261490 -2.495522 3.470966 0
M  V30 37 H 2.665620 -3.322611 4.294791 0
M  V30 38 H 4.255369 -1.193872 5.360482 0
M  V30 39 H 4.576032 -2.570635 4.313164 0
M  V30 40 H 6.385340 -1.203113 4.047426 0
M  V30 41 H 5.462629 2.362203 0.875453 0
M  V30 42 H 3.510732 3.452450 -1.020528 0
M  V30 43 H 1.269302 3.027457 -1.944374 0
M  V30 44 H -0.896802 -0.747466 -0.322958 0
M  V30 45 H -3.256989 -2.093800 -0.624230 0
M  V30 46 H -6.725050 -0.607345 -3.656091 0
M  V30 47 H -8.722710 -1.961441 -3.750758 0
M  V30 48 H -8.917042 -3.997098 -2.337176 0
M  V30 49 H -7.099716 -4.670422 -0.827328 0
M  V30 50 H -5.028920 -3.270548 -0.726371 0
M  V30 51 H 3.506196 -2.122408 1.721571 0
M  V30 52 H 1.887453 -1.486760 1.880183 0
M  V30 END ATOM
M  V30 BEGIN BOND
M  V30 1 1 1 2
M  V30 2 1 2 3
M  V30 3 1 2 4
M  V30 4 1 4 5
M  V30 5 1 5 6
M  V30 6 2 6 7
M  V30 7 1 6 8
M  V30 8 2 8 9
M  V30 9 1 9 10
M  V30 10 2 10 11
M  V30 11 1 11 12
M  V30 12 2 12 13
M  V30 13 1 13 14
M  V30 14 2 14 15
M  V30 15 1 14 16
M  V30 16 1 16 17
M  V30 17 1 17 18
M  V30 18 2 18 19
M  V30 19 1 19 20
M  V30 20 2 20 21
M  V30 21 1 21 22
M  V30 22 2 22 23
M  V30 23 1 23 24
M  V30 24 2 24 25
M  V30 25 1 19 26
M  V30 26 1 26 27
M  V30 27 1 13 28
M  V30 28 2 28 29
M  V30 29 1 29 30
M  V30 30 1 30 31
M  V30 31 1 31 2
M  V30 32 1 30 8
M  V30 33 1 29 10
M  V30 34 2 27 17
M  V30 35 1 25 20
M  V30 36 1 1 32
M  V30 37 1 1 33
M  V30 38 1 1 34
M  V30 39 1 3 35
M  V30 40 1 3 36
M  V30 41 1 3 37
M  V30 42 1 4 38
M  V30 43 1 4 39
M  V30 44 1 5 40
M  V30 45 1 9 41
M  V30 46 1 11 42
M  V30 47 1 12 43
M  V30 48 1 16 44
M  V30 49 1 18 45
M  V30 50 1 21 46
M  V30 51 1 22 47
M  V30 52 1 23 48
M  V30 53 1 24 49
M  V30 54 1 25 50
M  V30 55 1 31 51
M  V30 56 1 31 52
M  V30 END BOND
M  V30 END CTAB
M  END
>  <Dataset>  (5) 
ChEMBL_Kinases

>  <Ligand_Instance>  (5) 
nan

>  <PDB_ID>  (5) 
nan

>  <Standardized_SMILES>  (5) 
CC1(C)CNC(=O)c2cc3ccc(C(=O)Nc4cc(-c5ccccc5)on4)nc3n2C1

>  <Name>  (5) 
nan

>  <Pocket>  (5) 
nan

>  <ATP_Site>  (5) 
nan

>  <Peripheral>  (5) 
nan

>  <Num_H_Atoms_ProtBoundConf>  (5) 
nan

>  <Num_Resolved_Atoms>  (5) 
nan

>  <Num_Not_Resolved_Atoms>  (5) 
nan

$$$$
CHEMBL3673656
     RDKit          3D

  0  0  0  0  0  0  0  0  0  0999 V3000
M  V30 BEGIN CTAB
M  V30 COUNTS 55 59 0 0 0
M  V30 BEGIN ATOM
M  V30 1 C 3.902812 0.686032 2.990934 0
M  V30 2 C 4.032956 -0.389254 1.957860 0
M  V30 3 C 3.612062 -1.690051 2.660076 0
M  V30 4 C 5.424694 -0.618284 1.488914 0
M  V30 5 N 6.067532 0.495180 0.851523 0
M  V30 6 C 5.558940 1.711714 0.275982 0
M  V30 7 O 6.351060 2.600121 -0.093301 0
M  V30 8 C 4.119417 1.990733 0.085971 0
M  V30 9 C 3.657866 3.197093 -0.404581 0
M  V30 10 C 2.277539 3.137540 -0.460973 0
M  V30 11 C 1.219384 3.944081 -0.832016 0
M  V30 12 C -0.100264 3.496991 -0.735863 0
M  V30 13 C -0.384792 2.231674 -0.265496 0
M  V30 14 C -1.766139 1.789733 -0.174894 0
M  V30 15 O -2.735974 2.519302 -0.511247 0
M  V30 16 N -1.974167 0.469216 0.321063 0
M  V30 17 C -3.208593 -0.213772 0.512822 0
M  V30 18 C -3.769548 -0.981661 -0.488765 0
M  V30 19 C -4.956738 -1.514101 -0.008339 0
M  V30 20 C -5.916503 -2.414957 -0.739327 0
M  V30 21 C -5.569288 -3.837157 -0.530907 0
M  V30 22 C -4.721456 -4.592543 -1.313163 0
M  V30 23 C -4.457170 -5.920529 -1.037909 0
M  V30 24 C -5.092735 -6.449237 0.068764 0
M  V30 25 C -5.937691 -5.752554 0.875046 0
M  V30 26 C -6.176326 -4.443468 0.574244 0
M  V30 27 O -5.074698 -1.073041 1.214818 0
M  V30 28 N -4.081421 -0.316378 1.553366 0
M  V30 29 N 0.671022 1.481922 0.083571 0
M  V30 30 C 1.954034 1.879820 0.004235 0
M  V30 31 N 3.059722 1.167780 0.341650 0
M  V30 32 C 3.031067 -0.191166 0.862748 0
M  V30 33 H 2.822932 0.669086 3.312077 0
M  V30 34 H 4.482881 0.411169 3.881956 0
M  V30 35 H 4.128328 1.692287 2.629542 0
M  V30 36 H 4.031833 -2.549294 2.103362 0
M  V30 37 H 2.498918 -1.825489 2.614169 0
M  V30 38 H 3.883098 -1.674967 3.731096 0
M  V30 39 H 5.452676 -1.544998 0.882126 0
M  V30 40 H 6.039008 -0.853409 2.392508 0
M  V30 41 H 7.095156 0.418650 0.788363 0
M  V30 42 H 4.209687 4.068857 -0.708204 0
M  V30 43 H 1.476019 4.939264 -1.200077 0
M  V30 44 H -0.896562 4.181883 -1.045072 0
M  V30 45 H -1.214161 -0.192886 0.619401 0
M  V30 46 H -3.395040 -1.167366 -1.481895 0
M  V30 47 H -6.937011 -2.212028 -0.419992 0
M  V30 48 H -5.742246 -2.221729 -1.833238 0
M  V30 49 H -4.274606 -4.076993 -2.159570 0
M  V30 50 H -3.785452 -6.493873 -1.669618 0
M  V30 51 H -4.897142 -7.494677 0.302219 0
M  V30 52 H -6.423980 -6.204898 1.744505 0
M  V30 53 H -6.861971 -3.889397 1.233844 0
M  V30 54 H 3.231779 -0.929171 0.053497 0
M  V30 55 H 2.004332 -0.391734 1.209442 0
M  V30 END ATOM
M  V30 BEGIN BOND
M  V30 1 1 1 2
M  V30 2 1 2 3
M  V30 3 1 2 4
M  V30 4 1 4 5
M  V30 5 1 5 6
M  V30 6 2 6 7
M  V30 7 1 6 8
M  V30 8 2 8 9
M  V30 9 1 9 10
M  V30 10 2 10 11
M  V30 11 1 11 12
M  V30 12 2 12 13
M  V30 13 1 13 14
M  V30 14 2 14 15
M  V30 15 1 14 16
M  V30 16 1 16 17
M  V30 17 1 17 18
M  V30 18 2 18 19
M  V30 19 1 19 20
M  V30 20 1 20 21
M  V30 21 2 21 22
M  V30 22 1 22 23
M  V30 23 2 23 24
M  V30 24 1 24 25
M  V30 25 2 25 26
M  V30 26 1 19 27
M  V30 27 1 27 28
M  V30 28 1 13 29
M  V30 29 2 29 30
M  V30 30 1 30 31
M  V30 31 1 31 32
M  V30 32 1 32 2
M  V30 33 1 31 8
M  V30 34 1 30 10
M  V30 35 2 28 17
M  V30 36 1 26 21
M  V30 37 1 1 33
M  V30 38 1 1 34
M  V30 39 1 1 35
M  V30 40 1 3 36
M  V30 41 1 3 37
M  V30 42 1 3 38
M  V30 43 1 4 39
M  V30 44 1 4 40
M  V30 45 1 5 41
M  V30 46 1 9 42
M  V30 47 1 11 43
M  V30 48 1 12 44
M  V30 49 1 16 45
M  V30 50 1 18 46
M  V30 51 1 20 47
M  V30 52 1 20 48
M  V30 53 1 22 49
M  V30 54 1 23 50
M  V30 55 1 24 51
M  V30 56 1 25 52
M  V30 57 1 26 53
M  V30 58 1 32 54
M  V30 59 1 32 55
M  V30 END BOND
M  V30 END CTAB
M  END
>  <Dataset>  (6) 
ChEMBL_Kinases

>  <Ligand_Instance>  (6) 
nan

>  <PDB_ID>  (6) 
nan

>  <Standardized_SMILES>  (6) 
CC1(C)CNC(=O)c2cc3ccc(C(=O)Nc4cc(Cc5ccccc5)on4)nc3n2C1

>  <Name>  (6) 
nan

>  <Pocket>  (6) 
nan

>  <ATP_Site>  (6) 
nan

>  <Peripheral>  (6) 
nan

>  <Num_H_Atoms_ProtBoundConf>  (6) 
nan

>  <Num_Resolved_Atoms>  (6) 
nan

>  <Num_Not_Resolved_Atoms>  (6) 
nan

$$$$
CHEMBL3673657
     RDKit          3D

  0  0  0  0  0  0  0  0  0  0999 V3000
M  V30 BEGIN CTAB
M  V30 COUNTS 52 56 0 0 0
M  V30 BEGIN ATOM
M  V30 1 C 2.187361 -0.036285 3.246907 0
M  V30 2 C 3.069671 -0.425479 2.089205 0
M  V30 3 C 4.246079 -1.237932 2.487756 0
M  V30 4 C 5.010132 -0.663414 3.657131 0
M  V30 5 N 6.040481 0.193727 3.089190 0
M  V30 6 C 5.847560 1.115484 2.020182 0
M  V30 7 O 6.863692 1.683629 1.538804 0
M  V30 8 C 4.600833 1.520339 1.368923 0
M  V30 9 C 4.440771 2.653876 0.612346 0
M  V30 10 C 3.106893 2.641927 0.192558 0
M  V30 11 C 2.347292 3.503076 -0.586561 0
M  V30 12 C 1.007617 3.204848 -0.830083 0
M  V30 13 C 0.443985 2.062595 -0.299870 0
M  V30 14 C -0.964353 1.807795 -0.592363 0
M  V30 15 O -1.661886 2.597009 -1.306859 0
M  V30 16 N -1.513024 0.634678 -0.038101 0
M  V30 17 C -2.819249 0.068676 -0.104240 0
M  V30 18 C -3.243091 -0.830055 -1.080595 0
M  V30 19 C -4.573757 -1.165562 -0.825979 0
M  V30 20 C -5.406263 -2.100390 -1.634748 0
M  V30 21 C -5.274847 -3.501298 -1.116135 0
M  V30 22 C -4.255796 -4.274203 -1.670529 0
M  V30 23 C -4.012564 -5.592629 -1.288610 0
M  V30 24 C -4.836307 -6.122566 -0.316805 0
M  V30 25 C -5.853291 -5.347507 0.234774 0
M  V30 26 C -6.082421 -4.043005 -0.153356 0
M  V30 27 O -4.890496 -0.491735 0.241097 0
M  V30 28 N -3.914566 0.228907 0.688106 0
M  V30 29 N 1.217486 1.256307 0.449565 0
M  V30 30 C 2.513813 1.507249 0.708622 0
M  V30 31 N 3.445441 0.827648 1.429871 0
M  V30 32 H 2.179317 -0.811806 4.044389 0
M  V30 33 H 1.142019 0.065696 2.894662 0
M  V30 34 H 2.545980 0.951590 3.648618 0
M  V30 35 H 2.452106 -1.033392 1.389432 0
M  V30 36 H 3.886188 -2.239066 2.781285 0
M  V30 37 H 4.888035 -1.380543 1.597812 0
M  V30 38 H 4.310577 0.011490 4.198679 0
M  V30 39 H 5.432945 -1.438274 4.320241 0
M  V30 40 H 6.991825 0.139376 3.483334 0
M  V30 41 H 5.184609 3.403473 0.384177 0
M  V30 42 H 2.810607 4.382321 -0.985250 0
M  V30 43 H 0.423513 3.894424 -1.446253 0
M  V30 44 H -0.971339 -0.033779 0.551349 0
M  V30 45 H -2.670757 -1.222058 -1.906281 0
M  V30 46 H -6.485170 -1.854978 -1.549470 0
M  V30 47 H -5.057787 -2.015867 -2.670896 0
M  V30 48 H -3.606530 -3.853801 -2.437722 0
M  V30 49 H -3.203102 -6.147688 -1.755684 0
M  V30 50 H -4.650600 -7.144458 -0.018281 0
M  V30 51 H -6.467344 -5.812121 0.990773 0
M  V30 52 H -6.857946 -3.432791 0.258572 0
M  V30 END ATOM
M  V30 BEGIN BOND
M  V30 1 1 1 2
M  V30 2 1 2 3
M  V30 3 1 3 4
M  V30 4 1 4 5
M  V30 5 1 5 6
M  V30 6 2 6 7
M  V30 7 1 6 8
M  V30 8 2 8 9
M  V30 9 1 9 10
M  V30 10 2 10 11
M  V30 11 1 11 12
M  V30 12 2 12 13
M  V30 13 1 13 14
M  V30 14 2 14 15
M  V30 15 1 14 16
M  V30 16 1 16 17
M  V30 17 1 17 18
M  V30 18 2 18 19
M  V30 19 1 19 20
M  V30 20 1 20 21
M  V30 21 2 21 22
M  V30 22 1 22 23
M  V30 23 2 23 24
M  V30 24 1 24 25
M  V30 25 2 25 26
M  V30 26 1 19 27
M  V30 27 1 27 28
M  V30 28 1 13 29
M  V30 29 2 29 30
M  V30 30 1 30 31
M  V30 31 1 31 2
M  V30 32 1 31 8
M  V30 33 1 30 10
M  V30 34 2 28 17
M  V30 35 1 26 21
M  V30 36 1 1 32
M  V30 37 1 1 33
M  V30 38 1 1 34
M  V30 39 1 2 35
M  V30 40 1 3 36
M  V30 41 1 3 37
M  V30 42 1 4 38
M  V30 43 1 4 39
M  V30 44 1 5 40
M  V30 45 1 9 41
M  V30 46 1 11 42
M  V30 47 1 12 43
M  V30 48 1 16 44
M  V30 49 1 18 45
M  V30 50 1 20 46
M  V30 51 1 20 47
M  V30 52 1 22 48
M  V30 53 1 23 49
M  V30 54 1 24 50
M  V30 55 1 25 51
M  V30 56 1 26 52
M  V30 END BOND
M  V30 END CTAB
M  END
>  <Dataset>  (7) 
ChEMBL_Kinases

>  <Ligand_Instance>  (7) 
nan

>  <PDB_ID>  (7) 
nan

>  <Standardized_SMILES>  (7) 
CC1CCNC(=O)c2cc3ccc(C(=O)Nc4cc(Cc5ccccc5)on4)nc3n21

>  <Name>  (7) 
nan

>  <Pocket>  (7) 
nan

>  <ATP_Site>  (7) 
nan

>  <Peripheral>  (7) 
nan

>  <Num_H_Atoms_ProtBoundConf>  (7) 
nan

>  <Num_Resolved_Atoms>  (7) 
nan

>  <Num_Not_Resolved_Atoms>  (7) 
nan

$$$$
CHEMBL3673667
     RDKit          3D

  0  0  0  0  0  0  0  0  0  0999 V3000
M  V30 BEGIN CTAB
M  V30 COUNTS 47 51 0 0 0
M  V30 BEGIN ATOM
M  V30 1 O 1.426247 1.802648 2.773206 0
M  V30 2 C 0.876537 0.832481 2.190880 0
M  V30 3 N 1.581324 -0.059891 1.350048 0
M  V30 4 C 2.972432 -0.006632 1.038839 0
M  V30 5 C 3.902818 -0.676244 1.820544 0
M  V30 6 C 5.229327 -0.592420 1.477373 0
M  V30 7 C 5.699622 0.122011 0.394632 0
M  V30 8 C 4.770317 0.787252 -0.381119 0
M  V30 9 C 5.167672 1.570962 -1.548751 0
M  V30 10 C 6.438263 1.750311 -2.016610 0
M  V30 11 N 6.408045 2.536293 -3.114731 0
M  V30 12 C 5.119531 2.859902 -3.349816 0
M  V30 13 N 4.387551 2.275386 -2.404846 0
M  V30 14 C 3.415282 0.715060 -0.049424 0
M  V30 15 C -0.557000 0.602461 2.381403 0
M  V30 16 C -1.297447 1.440094 3.190495 0
M  V30 17 C -2.667787 1.279988 3.416975 0
M  V30 18 C -3.297543 0.224663 2.791538 0
M  V30 19 C -4.586816 -0.268028 2.750423 0
M  V30 20 C -4.589606 -1.369615 1.932544 0
M  V30 21 N -3.329780 -1.563402 1.470971 0
M  V30 22 C -2.542519 -0.602142 1.986822 0
M  V30 23 N -1.226973 -0.413422 1.795418 0
M  V30 24 C -2.986070 -2.664974 0.565821 0
M  V30 25 C -3.519726 -3.932222 1.173561 0
M  V30 26 C -4.882087 -4.322564 0.670537 0
M  V30 27 N -5.892406 -3.344695 0.923107 0
M  V30 28 C -5.829857 -2.133758 1.677312 0
M  V30 29 O -6.908844 -1.726407 2.133195 0
M  V30 30 H 1.146524 -0.881622 0.849067 0
M  V30 31 H 3.554572 -1.239248 2.669980 0
M  V30 32 H 5.991006 -1.102139 2.063337 0
M  V30 33 H 6.756980 0.185091 0.126333 0
M  V30 34 H 7.359871 1.375240 -1.646903 0
M  V30 35 H 7.205025 2.867163 -3.714717 0
M  V30 36 H 4.671219 3.466546 -4.125100 0
M  V30 37 H 2.730985 1.239815 -0.669645 0
M  V30 38 H -0.838690 2.282149 3.700571 0
M  V30 39 H -3.233292 1.944033 4.052979 0
M  V30 40 H -5.422668 0.154270 3.274933 0
M  V30 41 H -3.539672 -2.503930 -0.383217 0
M  V30 42 H -1.904642 -2.703281 0.371272 0
M  V30 43 H -3.508381 -3.930962 2.281379 0
M  V30 44 H -2.818921 -4.752851 0.883220 0
M  V30 45 H -5.170414 -5.229510 1.253761 0
M  V30 46 H -4.865356 -4.661686 -0.382269 0
M  V30 47 H -6.804566 -3.576445 0.476265 0
M  V30 END ATOM
M  V30 BEGIN BOND
M  V30 1 2 1 2
M  V30 2 1 2 3
M  V30 3 1 3 4
M  V30 4 2 4 5
M  V30 5 1 5 6
M  V30 6 2 6 7
M  V30 7 1 7 8
M  V30 8 1 8 9
M  V30 9 2 9 10
M  V30 10 1 10 11
M  V30 11 1 11 12
M  V30 12 2 12 13
M  V30 13 2 8 14
M  V30 14 1 2 15
M  V30 15 2 15 16
M  V30 16 1 16 17
M  V30 17 2 17 18
M  V30 18 1 18 19
M  V30 19 2 19 20
M  V30 20 1 20 21
M  V30 21 1 21 22
M  V30 22 2 22 23
M  V30 23 1 21 24
M  V30 24 1 24 25
M  V30 25 1 25 26
M  V30 26 1 26 27
M  V30 27 1 27 28
M  V30 28 2 28 29
M  V30 29 1 14 4
M  V30 30 1 23 15
M  V30 31 1 13 9
M  V30 32 1 22 18
M  V30 33 1 28 20
M  V30 34 1 3 30
M  V30 35 1 5 31
M  V30 36 1 6 32
M  V30 37 1 7 33
M  V30 38 1 10 34
M  V30 39 1 11 35
M  V30 40 1 12 36
M  V30 41 1 14 37
M  V30 42 1 16 38
M  V30 43 1 17 39
M  V30 44 1 19 40
M  V30 45 1 24 41
M  V30 46 1 24 42
M  V30 47 1 25 43
M  V30 48 1 25 44
M  V30 49 1 26 45
M  V30 50 1 26 46
M  V30 51 1 27 47
M  V30 END BOND
M  V30 END CTAB
M  END
>  <Dataset>  (8) 
ChEMBL_Kinases

>  <Ligand_Instance>  (8) 
nan

>  <PDB_ID>  (8) 
nan

>  <Standardized_SMILES>  (8) 
O=C(Nc1cccc(-c2c[nH]cn2)c1)c1ccc2cc3n(c2n1)CCCNC3=O

>  <Name>  (8) 
nan

>  <Pocket>  (8) 
nan

>  <ATP_Site>  (8) 
nan

>  <Peripheral>  (8) 
nan

>  <Num_H_Atoms_ProtBoundConf>  (8) 
nan

>  <Num_Resolved_Atoms>  (8) 
nan

>  <Num_Not_Resolved_Atoms>  (8) 
nan

$$$$
CHEMBL3673659
     RDKit          3D

  0  0  0  0  0  0  0  0  0  0999 V3000
M  V30 BEGIN CTAB
M  V30 COUNTS 52 56 0 0 0
M  V30 BEGIN ATOM
M  V30 1 C 1.941338 0.189941 3.014631 0
M  V30 2 C 3.096340 -0.084432 2.073799 0
M  V30 3 C 4.256533 -0.730853 2.757109 0
M  V30 4 C 4.987482 0.077334 3.762587 0
M  V30 5 N 6.064372 0.762597 3.041373 0
M  V30 6 C 5.803639 1.575554 1.890111 0
M  V30 7 O 6.785979 2.176359 1.421460 0
M  V30 8 C 4.547072 1.828296 1.149869 0
M  V30 9 C 4.333267 2.846594 0.237076 0
M  V30 10 C 3.041595 2.676161 -0.176721 0
M  V30 11 C 2.263454 3.374143 -1.071947 0
M  V30 12 C 0.950345 3.029632 -1.354444 0
M  V30 13 C 0.439819 1.934809 -0.689061 0
M  V30 14 C -0.943029 1.568743 -0.983901 0
M  V30 15 O -1.663587 2.199421 -1.800301 0
M  V30 16 N -1.476274 0.456102 -0.313752 0
M  V30 17 C -2.752266 -0.177157 -0.347395 0
M  V30 18 C -3.155540 -1.206260 -1.180857 0
M  V30 19 C -4.465700 -1.507270 -0.868782 0
M  V30 20 C -5.311838 -2.545885 -1.505189 0
M  V30 21 C -5.180823 -3.862997 -0.793461 0
M  V30 22 C -4.191489 -4.753305 -1.216238 0
M  V30 23 C -3.984672 -6.000804 -0.625118 0
M  V30 24 C -4.802772 -6.367871 0.430808 0
M  V30 25 C -5.791342 -5.485769 0.858069 0
M  V30 26 C -5.972507 -4.253303 0.250833 0
M  V30 27 N -4.810627 -0.655854 0.137153 0
M  V30 28 O -3.798327 0.106552 0.421933 0
M  V30 29 N 1.206637 1.258592 0.183770 0
M  V30 30 C 2.481347 1.585197 0.464323 0
M  V30 31 N 3.424537 1.062014 1.288976 0
M  V30 32 H 0.970967 -0.040375 2.523586 0
M  V30 33 H 2.009981 -0.531878 3.877125 0
M  V30 34 H 1.960876 1.240555 3.374743 0
M  V30 35 H 2.718305 -0.855849 1.354200 0
M  V30 36 H 3.843543 -1.626501 3.294046 0
M  V30 37 H 4.951888 -1.131347 2.003149 0
M  V30 38 H 4.334970 0.913950 4.137866 0
M  V30 39 H 5.348774 -0.486254 4.631896 0
M  V30 40 H 7.043125 0.665855 3.360530 0
M  V30 41 H 5.074276 3.582282 -0.040198 0
M  V30 42 H 2.725689 4.231391 -1.566264 0
M  V30 43 H 0.349275 3.584633 -2.058749 0
M  V30 44 H -0.884355 -0.089568 0.379149 0
M  V30 45 H -2.540401 -1.674483 -1.932420 0
M  V30 46 H -6.362809 -2.198159 -1.429838 0
M  V30 47 H -4.947562 -2.700947 -2.529000 0
M  V30 48 H -3.520442 -4.507627 -2.046891 0
M  V30 49 H -3.205753 -6.658650 -0.985572 0
M  V30 50 H -4.646447 -7.339417 0.895935 0
M  V30 51 H -6.429434 -5.790302 1.693325 0
M  V30 52 H -6.753088 -3.560132 0.590355 0
M  V30 END ATOM
M  V30 BEGIN BOND
M  V30 1 1 1 2
M  V30 2 1 2 3
M  V30 3 1 3 4
M  V30 4 1 4 5
M  V30 5 1 5 6
M  V30 6 2 6 7
M  V30 7 1 6 8
M  V30 8 2 8 9
M  V30 9 1 9 10
M  V30 10 2 10 11
M  V30 11 1 11 12
M  V30 12 2 12 13
M  V30 13 1 13 14
M  V30 14 2 14 15
M  V30 15 1 14 16
M  V30 16 1 16 17
M  V30 17 2 17 18
M  V30 18 1 18 19
M  V30 19 1 19 20
M  V30 20 1 20 21
M  V30 21 2 21 22
M  V30 22 1 22 23
M  V30 23 2 23 24
M  V30 24 1 24 25
M  V30 25 2 25 26
M  V30 26 2 19 27
M  V30 27 1 27 28
M  V30 28 1 13 29
M  V30 29 2 29 30
M  V30 30 1 30 31
M  V30 31 1 31 2
M  V30 32 1 31 8
M  V30 33 1 30 10
M  V30 34 1 28 17
M  V30 35 1 26 21
M  V30 36 1 1 32
M  V30 37 1 1 33
M  V30 38 1 1 34
M  V30 39 1 2 35
M  V30 40 1 3 36
M  V30 41 1 3 37
M  V30 42 1 4 38
M  V30 43 1 4 39
M  V30 44 1 5 40
M  V30 45 1 9 41
M  V30 46 1 11 42
M  V30 47 1 12 43
M  V30 48 1 16 44
M  V30 49 1 18 45
M  V30 50 1 20 46
M  V30 51 1 20 47
M  V30 52 1 22 48
M  V30 53 1 23 49
M  V30 54 1 24 50
M  V30 55 1 25 51
M  V30 56 1 26 52
M  V30 END BOND
M  V30 END CTAB
M  END
>  <Dataset>  (9) 
ChEMBL_Kinases

>  <Ligand_Instance>  (9) 
nan

>  <PDB_ID>  (9) 
nan

>  <Standardized_SMILES>  (9) 
CC1CCNC(=O)c2cc3ccc(C(=O)Nc4cc(Cc5ccccc5)no4)nc3n21

>  <Name>  (9) 
nan

>  <Pocket>  (9) 
nan

>  <ATP_Site>  (9) 
nan

>  <Peripheral>  (9) 
nan

>  <Num_H_Atoms_ProtBoundConf>  (9) 
nan

>  <Num_Resolved_Atoms>  (9) 
nan

>  <Num_Not_Resolved_Atoms>  (9) 
nan

$$$$
CHEMBL3673660
     RDKit          3D

  0  0  0  0  0  0  0  0  0  0999 V3000
M  V30 BEGIN CTAB
M  V30 COUNTS 49 53 0 0 0
M  V30 BEGIN ATOM
M  V30 1 C 2.542681 -2.105710 2.141527 0
M  V30 2 C 2.821614 -1.403785 3.451580 0 CFG=1
M  V30 3 C 3.872053 -2.238600 4.154901 0
M  V30 4 N 4.287339 -1.507246 5.337364 0
M  V30 5 C 4.752009 -0.177881 5.130035 0
M  V30 6 O 5.611111 0.377770 5.871041 0
M  V30 7 C 4.202389 0.582000 3.996688 0
M  V30 8 C 4.415211 1.858631 3.507037 0
M  V30 9 C 3.598255 2.002291 2.405149 0
M  V30 10 C 3.355803 3.019081 1.502347 0
M  V30 11 C 2.460488 2.896170 0.460487 0
M  V30 12 C 1.798646 1.690423 0.349287 0
M  V30 13 C 0.854269 1.579327 -0.760615 0
M  V30 14 O 0.626083 2.499199 -1.588334 0
M  V30 15 N 0.162634 0.348195 -0.893924 0
M  V30 16 C -0.806947 -0.121093 -1.823482 0
M  V30 17 C -2.167862 0.049113 -1.604878 0
M  V30 18 C -2.849597 -0.515064 -2.688909 0
M  V30 19 C -4.333404 -0.527691 -2.814818 0
M  V30 20 C -4.934087 -1.745951 -2.201570 0
M  V30 21 C -5.280729 -1.647726 -0.849480 0
M  V30 22 C -5.852841 -2.669922 -0.093324 0
M  V30 23 C -6.071612 -3.840657 -0.775690 0
M  V30 24 C -5.749482 -3.991786 -2.106725 0
M  V30 25 C -5.177701 -2.945521 -2.831728 0
M  V30 26 O -1.912086 -0.981426 -3.481094 0
M  V30 27 N -0.731344 -0.766632 -3.004620 0
M  V30 28 N 2.027263 0.691058 1.224565 0
M  V30 29 C 2.901544 0.812678 2.241005 0
M  V30 30 N 3.287784 -0.033506 3.221964 0
M  V30 31 H 3.383688 -1.969345 1.439277 0
M  V30 32 H 1.627568 -1.786468 1.642388 0
M  V30 33 H 2.494830 -3.193274 2.362573 0
M  V30 34 H 1.928056 -1.374837 4.073361 0
M  V30 35 H 4.743174 -2.373367 3.472880 0
M  V30 36 H 3.369336 -3.194706 4.413065 0
M  V30 37 H 4.283310 -1.853950 6.342915 0
M  V30 38 H 5.082506 2.598634 3.900319 0
M  V30 39 H 3.900063 3.946862 1.631476 0
M  V30 40 H 2.312023 3.725483 -0.214502 0
M  V30 41 H 0.315850 -0.429356 -0.243649 0
M  V30 42 H -2.634139 0.523825 -0.764736 0
M  V30 43 H -4.732763 0.359730 -2.323901 0
M  V30 44 H -4.645972 -0.474242 -3.890155 0
M  V30 45 H -5.102927 -0.708845 -0.310609 0
M  V30 46 H -6.086635 -2.508961 0.936583 0
M  V30 47 H -6.518222 -4.652511 -0.202713 0
M  V30 48 H -5.933180 -4.930255 -2.624162 0
M  V30 49 H -4.903150 -2.997604 -3.870596 0
M  V30 END ATOM
M  V30 BEGIN BOND
M  V30 1 1 1 2
M  V30 2 1 2 3
M  V30 3 1 3 4
M  V30 4 1 4 5
M  V30 5 2 5 6
M  V30 6 1 5 7
M  V30 7 2 7 8
M  V30 8 1 8 9
M  V30 9 2 9 10
M  V30 10 1 10 11
M  V30 11 2 11 12
M  V30 12 1 12 13
M  V30 13 2 13 14
M  V30 14 1 13 15
M  V30 15 1 15 16
M  V30 16 1 16 17
M  V30 17 2 17 18
M  V30 18 1 18 19
M  V30 19 1 19 20
M  V30 20 2 20 21
M  V30 21 1 21 22
M  V30 22 2 22 23
M  V30 23 1 23 24
M  V30 24 2 24 25
M  V30 25 1 18 26
M  V30 26 1 26 27
M  V30 27 1 12 28
M  V30 28 2 28 29
M  V30 29 1 29 30
M  V30 30 1 30 2
M  V30 31 1 30 7
M  V30 32 1 29 9
M  V30 33 2 27 16
M  V30 34 1 25 20
M  V30 35 1 1 31
M  V30 36 1 1 32
M  V30 37 1 1 33
M  V30 38 1 2 34 CFG=1
M  V30 39 1 3 35
M  V30 40 1 3 36
M  V30 41 1 4 37
M  V30 42 1 8 38
M  V30 43 1 10 39
M  V30 44 1 11 40
M  V30 45 1 15 41
M  V30 46 1 17 42
M  V30 47 1 19 43
M  V30 48 1 19 44
M  V30 49 1 21 45
M  V30 50 1 22 46
M  V30 51 1 23 47
M  V30 52 1 24 48
M  V30 53 1 25 49
M  V30 END BOND
M  V30 END CTAB
M  END
>  <Dataset>  (10) 
ChEMBL_Kinases

>  <Ligand_Instance>  (10) 
nan

>  <PDB_ID>  (10) 
nan

>  <Standardized_SMILES>  (10) 
C[C@H]1CNC(=O)c2cc3ccc(C(=O)Nc4cc(Cc5ccccc5)on4)nc3n21

>  <Name>  (10) 
nan

>  <Pocket>  (10) 
nan

>  <ATP_Site>  (10) 
nan

>  <Peripheral>  (10) 
nan

>  <Num_H_Atoms_ProtBoundConf>  (10) 
nan

>  <Num_Resolved_Atoms>  (10) 
nan

>  <Num_Not_Resolved_Atoms>  (10) 
nan

$$$$
CHEMBL3673661
     RDKit          3D

  0  0  0  0  0  0  0  0  0  0999 V3000
M  V30 BEGIN CTAB
M  V30 COUNTS 49 53 0 0 0
M  V30 BEGIN ATOM
M  V30 1 C 1.479746 -1.812398 3.374035 0
M  V30 2 C 3.008369 -1.768670 3.508671 0 CFG=2
M  V30 3 C 3.420802 -2.410894 4.777314 0
M  V30 4 N 4.567291 -1.868950 5.428787 0
M  V30 5 C 5.012268 -0.511051 5.249476 0
M  V30 6 O 5.868265 0.052966 5.979027 0
M  V30 7 C 4.385233 0.195455 4.127675 0
M  V30 8 C 4.551513 1.485217 3.650225 0
M  V30 9 C 3.699626 1.610863 2.563777 0
M  V30 10 C 3.532404 2.739282 1.771424 0
M  V30 11 C 2.627709 2.657036 0.730747 0
M  V30 12 C 1.961460 1.459909 0.560653 0
M  V30 13 C 1.006977 1.390822 -0.546616 0
M  V30 14 O 0.780425 2.355406 -1.324144 0
M  V30 15 N 0.287829 0.178146 -0.771908 0
M  V30 16 C -0.674064 -0.068656 -1.794831 0
M  V30 17 C -2.044926 0.144074 -1.709961 0
M  V30 18 C -2.592620 -0.232335 -2.937057 0
M  V30 19 C -4.051169 -0.106681 -3.121907 0
M  V30 20 C -4.794526 -1.324578 -2.731173 0
M  V30 21 C -5.199666 -1.357880 -1.392139 0
M  V30 22 C -5.908410 -2.474046 -0.939189 0
M  V30 23 C -6.213494 -3.531133 -1.774127 0
M  V30 24 C -5.798743 -3.465007 -3.087718 0
M  V30 25 C -5.095908 -2.378426 -3.573111 0
M  V30 26 O -1.601430 -0.641401 -3.696025 0
M  V30 27 N -0.473425 -0.550143 -3.038067 0
M  V30 28 N 2.161514 0.392256 1.360464 0
M  V30 29 C 3.030851 0.415457 2.389755 0
M  V30 30 N 3.473400 -0.406122 3.350936 0
M  V30 31 H 1.165095 -1.542181 2.348822 0
M  V30 32 H 0.979008 -1.122412 4.077477 0
M  V30 33 H 1.198302 -2.886490 3.553144 0
M  V30 34 H 3.354859 -2.432305 2.661282 0
M  V30 35 H 3.558907 -3.525267 4.652935 0
M  V30 36 H 2.561555 -2.353072 5.507719 0
M  V30 37 H 5.125194 -2.476077 6.073752 0
M  V30 38 H 5.237618 2.208870 4.092506 0
M  V30 39 H 4.088753 3.649117 1.960582 0
M  V30 40 H 2.480389 3.526194 0.098255 0
M  V30 41 H 0.406295 -0.665523 -0.187295 0
M  V30 42 H -2.512016 0.537592 -0.803647 0
M  V30 43 H -4.454603 0.807396 -2.645380 0
M  V30 44 H -4.232599 0.021611 -4.219699 0
M  V30 45 H -4.985623 -0.554889 -0.696777 0
M  V30 46 H -6.214157 -2.475330 0.113929 0
M  V30 47 H -6.773221 -4.392026 -1.379634 0
M  V30 48 H -6.037262 -4.300829 -3.757269 0
M  V30 49 H -4.760898 -2.300349 -4.590095 0
M  V30 END ATOM
M  V30 BEGIN BOND
M  V30 1 1 1 2
M  V30 2 1 2 3
M  V30 3 1 3 4
M  V30 4 1 4 5
M  V30 5 2 5 6
M  V30 6 1 5 7
M  V30 7 2 7 8
M  V30 8 1 8 9
M  V30 9 2 9 10
M  V30 10 1 10 11
M  V30 11 2 11 12
M  V30 12 1 12 13
M  V30 13 2 13 14
M  V30 14 1 13 15
M  V30 15 1 15 16
M  V30 16 1 16 17
M  V30 17 2 17 18
M  V30 18 1 18 19
M  V30 19 1 19 20
M  V30 20 2 20 21
M  V30 21 1 21 22
M  V30 22 2 22 23
M  V30 23 1 23 24
M  V30 24 2 24 25
M  V30 25 1 18 26
M  V30 26 1 26 27
M  V30 27 1 12 28
M  V30 28 2 28 29
M  V30 29 1 29 30
M  V30 30 1 30 2
M  V30 31 1 30 7
M  V30 32 1 29 9
M  V30 33 2 27 16
M  V30 34 1 25 20
M  V30 35 1 1 31
M  V30 36 1 1 32
M  V30 37 1 1 33
M  V30 38 1 2 34 CFG=3
M  V30 39 1 3 35
M  V30 40 1 3 36
M  V30 41 1 4 37
M  V30 42 1 8 38
M  V30 43 1 10 39
M  V30 44 1 11 40
M  V30 45 1 15 41
M  V30 46 1 17 42
M  V30 47 1 19 43
M  V30 48 1 19 44
M  V30 49 1 21 45
M  V30 50 1 22 46
M  V30 51 1 23 47
M  V30 52 1 24 48
M  V30 53 1 25 49
M  V30 END BOND
M  V30 END CTAB
M  END
>  <Dataset>  (11) 
ChEMBL_Kinases

>  <Ligand_Instance>  (11) 
nan

>  <PDB_ID>  (11) 
nan

>  <Standardized_SMILES>  (11) 
C[C@@H]1CNC(=O)c2cc3ccc(C(=O)Nc4cc(Cc5ccccc5)on4)nc3n21

>  <Name>  (11) 
nan

>  <Pocket>  (11) 
nan

>  <ATP_Site>  (11) 
nan

>  <Peripheral>  (11) 
nan

>  <Num_H_Atoms_ProtBoundConf>  (11) 
nan

>  <Num_Resolved_Atoms>  (11) 
nan

>  <Num_Not_Resolved_Atoms>  (11) 
nan

$$$$
CHEMBL3673662
     RDKit          3D

  0  0  0  0  0  0  0  0  0  0999 V3000
M  V30 BEGIN CTAB
M  V30 COUNTS 52 56 0 0 0
M  V30 BEGIN ATOM
M  V30 1 C 5.014496 -3.802865 -0.502583 0
M  V30 2 C 4.684450 -3.819157 0.974834 0 CFG=1
M  V30 3 N 5.860875 -3.479737 1.768779 0
M  V30 4 C 6.338496 -2.143040 1.510682 0
M  V30 5 O 7.542815 -1.766950 1.592438 0
M  V30 6 C 5.364240 -1.103194 1.115728 0
M  V30 7 C 5.516120 0.231100 0.811000 0
M  V30 8 C 4.241522 0.703090 0.511527 0
M  V30 9 C 3.879390 1.974925 0.147891 0
M  V30 10 C 2.547740 2.229097 -0.106510 0
M  V30 11 C 1.693545 1.154602 0.033299 0
M  V30 12 C 0.277877 1.399808 -0.230906 0
M  V30 13 O -0.172264 2.545014 -0.576600 0
M  V30 14 N -0.684595 0.379727 -0.119510 0
M  V30 15 C -2.089038 0.590906 -0.373783 0
M  V30 16 C -3.153943 -0.285656 -0.312162 0
M  V30 17 C -4.270416 0.472853 -0.659267 0
M  V30 18 C -5.667318 -0.060829 -0.729645 0
M  V30 19 C -6.402365 0.046310 0.533219 0
M  V30 20 C -7.105983 1.243453 0.667370 0
M  V30 21 C -7.871177 1.539364 1.800984 0
M  V30 22 C -7.871650 0.552053 2.771208 0
M  V30 23 C -7.193603 -0.646593 2.686100 0
M  V30 24 C -6.461875 -0.880434 1.553862 0
M  V30 25 O -3.868483 1.713270 -0.905770 0
M  V30 26 N -2.578317 1.791193 -0.738915 0
M  V30 27 N 2.094779 -0.097286 0.397685 0
M  V30 28 C 3.386323 -0.369843 0.650776 0
M  V30 29 N 4.067578 -1.475111 1.019664 0
M  V30 30 C 3.592526 -2.824359 1.281460 0 CFG=1
M  V30 31 C 2.334474 -3.131645 0.534441 0
M  V30 32 H 5.237015 -4.838841 -0.844581 0
M  V30 33 H 4.119238 -3.478908 -1.039918 0
M  V30 34 H 5.847318 -3.098562 -0.634258 0
M  V30 35 H 4.377405 -4.833902 1.255395 0
M  V30 36 H 6.445958 -3.992994 2.493766 0
M  V30 37 H 6.431410 0.800278 0.803715 0
M  V30 38 H 4.577550 2.789478 0.049180 0
M  V30 39 H 2.167541 3.192096 -0.397144 0
M  V30 40 H -0.329542 -0.569184 0.164409 0
M  V30 41 H -3.065854 -1.312317 -0.047495 0
M  V30 42 H -6.241184 0.378352 -1.570728 0
M  V30 43 H -5.581077 -1.152584 -1.004112 0
M  V30 44 H -7.117258 2.037372 -0.091054 0
M  V30 45 H -8.406110 2.460838 1.891899 0
M  V30 46 H -8.460441 0.756644 3.666122 0
M  V30 47 H -7.227378 -1.384383 3.473284 0
M  V30 48 H -5.884015 -1.801258 1.382417 0
M  V30 49 H 3.384056 -2.939240 2.376602 0
M  V30 50 H 1.462562 -3.003213 1.198817 0
M  V30 51 H 2.157935 -2.446364 -0.330662 0
M  V30 52 H 2.422992 -4.139914 0.080734 0
M  V30 END ATOM
M  V30 BEGIN BOND
M  V30 1 1 1 2
M  V30 2 1 2 3
M  V30 3 1 3 4
M  V30 4 2 4 5
M  V30 5 1 4 6
M  V30 6 2 6 7
M  V30 7 1 7 8
M  V30 8 2 8 9
M  V30 9 1 9 10
M  V30 10 2 10 11
M  V30 11 1 11 12
M  V30 12 2 12 13
M  V30 13 1 12 14
M  V30 14 1 14 15
M  V30 15 1 15 16
M  V30 16 2 16 17
M  V30 17 1 17 18
M  V30 18 1 18 19
M  V30 19 2 19 20
M  V30 20 1 20 21
M  V30 21 2 21 22
M  V30 22 1 22 23
M  V30 23 2 23 24
M  V30 24 1 17 25
M  V30 25 1 25 26
M  V30 26 1 11 27
M  V30 27 2 27 28
M  V30 28 1 28 29
M  V30 29 1 29 30
M  V30 30 1 30 31
M  V30 31 1 30 2
M  V30 32 1 29 6
M  V30 33 1 28 8
M  V30 34 2 26 15
M  V30 35 1 24 19
M  V30 36 1 1 32
M  V30 37 1 1 33
M  V30 38 1 1 34
M  V30 39 1 2 35 CFG=1
M  V30 40 1 3 36
M  V30 41 1 7 37
M  V30 42 1 9 38
M  V30 43 1 10 39
M  V30 44 1 14 40
M  V30 45 1 16 41
M  V30 46 1 18 42
M  V30 47 1 18 43
M  V30 48 1 20 44
M  V30 49 1 21 45
M  V30 50 1 22 46
M  V30 51 1 23 47
M  V30 52 1 24 48
M  V30 53 1 30 49 CFG=1
M  V30 54 1 31 50
M  V30 55 1 31 51
M  V30 56 1 31 52
M  V30 END BOND
M  V30 END CTAB
M  END
>  <Dataset>  (12) 
ChEMBL_Kinases

>  <Ligand_Instance>  (12) 
nan

>  <PDB_ID>  (12) 
nan

>  <Standardized_SMILES>  (12) 
C[C@H]1NC(=O)c2cc3ccc(C(=O)Nc4cc(Cc5ccccc5)on4)nc3n2[C@H]1C

>  <Name>  (12) 
nan

>  <Pocket>  (12) 
nan

>  <ATP_Site>  (12) 
nan

>  <Peripheral>  (12) 
nan

>  <Num_H_Atoms_ProtBoundConf>  (12) 
nan

>  <Num_Resolved_Atoms>  (12) 
nan

>  <Num_Not_Resolved_Atoms>  (12) 
nan

$$$$
CHEMBL3673663
     RDKit          3D

  0  0  0  0  0  0  0  0  0  0999 V3000
M  V30 BEGIN CTAB
M  V30 COUNTS 52 56 0 0 0
M  V30 BEGIN ATOM
M  V30 1 C 3.676944 -4.442229 -1.506754 0
M  V30 2 C 4.174769 -3.081802 -1.097933 0 CFG=2
M  V30 3 N 5.560377 -3.234066 -0.627103 0
M  V30 4 C 6.201617 -1.995545 -0.256973 0
M  V30 5 O 7.452769 -1.854381 -0.422127 0
M  V30 6 C 5.302674 -0.964523 0.303416 0
M  V30 7 C 5.607975 0.306185 0.743993 0
M  V30 8 C 4.431935 0.858055 1.165661 0
M  V30 9 C 4.044947 2.066632 1.703824 0
M  V30 10 C 2.726310 2.334483 2.040015 0
M  V30 11 C 1.794557 1.329871 1.813221 0
M  V30 12 C 0.395645 1.589202 2.160113 0
M  V30 13 O 0.015444 2.683573 2.652577 0
M  V30 14 N -0.550243 0.537810 1.917584 0
M  V30 15 C -1.934464 0.671857 2.213150 0
M  V30 16 C -2.950642 -0.246528 2.034640 0
M  V30 17 C -4.155131 0.305206 2.461008 0
M  V30 18 C -5.437933 -0.435003 2.398692 0
M  V30 19 C -6.078825 -0.168234 1.080738 0
M  V30 20 C -6.956506 0.871010 0.830074 0
M  V30 21 C -7.515174 1.057890 -0.423855 0
M  V30 22 C -7.193602 0.186672 -1.462903 0
M  V30 23 C -6.314637 -0.865313 -1.237760 0
M  V30 24 C -5.777345 -1.021059 0.023507 0
M  V30 25 O -3.845147 1.510534 2.875284 0
M  V30 26 N -2.575611 1.736679 2.740013 0
M  V30 27 N 2.197600 0.157640 1.286384 0
M  V30 28 C 3.469887 -0.118940 0.954947 0
M  V30 29 N 3.998076 -1.258686 0.418638 0
M  V30 30 C 3.395638 -2.496577 0.044042 0 CFG=1
M  V30 31 C 1.923695 -2.403153 -0.230779 0
M  V30 32 H 3.242683 -4.966216 -0.655401 0
M  V30 33 H 4.550973 -5.015585 -1.879263 0
M  V30 34 H 2.982720 -4.374179 -2.378327 0
M  V30 35 H 4.102696 -2.375131 -1.938237 0
M  V30 36 H 6.106673 -4.126996 -0.538913 0
M  V30 37 H 6.575562 0.787130 0.760802 0
M  V30 38 H 4.773196 2.825070 1.870729 0
M  V30 39 H 2.417839 3.279356 2.461809 0
M  V30 40 H -0.239354 -0.370546 1.509660 0
M  V30 41 H -2.803938 -1.243000 1.621294 0
M  V30 42 H -5.259158 -1.518540 2.473204 0
M  V30 43 H -6.111858 -0.179487 3.244249 0
M  V30 44 H -7.164799 1.503481 1.660231 0
M  V30 45 H -8.190576 1.859808 -0.611693 0
M  V30 46 H -7.598387 0.278109 -2.472857 0
M  V30 47 H -6.023659 -1.575855 -1.998525 0
M  V30 48 H -5.086590 -1.844072 0.209086 0
M  V30 49 H 3.531912 -3.191409 0.913413 0
M  V30 50 H 1.340106 -2.723271 0.670375 0
M  V30 51 H 1.546856 -1.422374 -0.507364 0
M  V30 52 H 1.585846 -3.120098 -1.025918 0
M  V30 END ATOM
M  V30 BEGIN BOND
M  V30 1 1 1 2
M  V30 2 1 2 3
M  V30 3 1 3 4
M  V30 4 2 4 5
M  V30 5 1 4 6
M  V30 6 2 6 7
M  V30 7 1 7 8
M  V30 8 2 8 9
M  V30 9 1 9 10
M  V30 10 2 10 11
M  V30 11 1 11 12
M  V30 12 2 12 13
M  V30 13 1 12 14
M  V30 14 1 14 15
M  V30 15 1 15 16
M  V30 16 2 16 17
M  V30 17 1 17 18
M  V30 18 1 18 19
M  V30 19 2 19 20
M  V30 20 1 20 21
M  V30 21 2 21 22
M  V30 22 1 22 23
M  V30 23 2 23 24
M  V30 24 1 17 25
M  V30 25 1 25 26
M  V30 26 1 11 27
M  V30 27 2 27 28
M  V30 28 1 28 29
M  V30 29 1 29 30
M  V30 30 1 30 31
M  V30 31 1 30 2
M  V30 32 1 29 6
M  V30 33 1 28 8
M  V30 34 2 26 15
M  V30 35 1 24 19
M  V30 36 1 1 32
M  V30 37 1 1 33
M  V30 38 1 1 34
M  V30 39 1 2 35 CFG=3
M  V30 40 1 3 36
M  V30 41 1 7 37
M  V30 42 1 9 38
M  V30 43 1 10 39
M  V30 44 1 14 40
M  V30 45 1 16 41
M  V30 46 1 18 42
M  V30 47 1 18 43
M  V30 48 1 20 44
M  V30 49 1 21 45
M  V30 50 1 22 46
M  V30 51 1 23 47
M  V30 52 1 24 48
M  V30 53 1 30 49 CFG=1
M  V30 54 1 31 50
M  V30 55 1 31 51
M  V30 56 1 31 52
M  V30 END BOND
M  V30 END CTAB
M  END
>  <Dataset>  (13) 
ChEMBL_Kinases

>  <Ligand_Instance>  (13) 
nan

>  <PDB_ID>  (13) 
nan

>  <Standardized_SMILES>  (13) 
C[C@@H]1NC(=O)c2cc3ccc(C(=O)Nc4cc(Cc5ccccc5)on4)nc3n2[C@H]1C

>  <Name>  (13) 
nan

>  <Pocket>  (13) 
nan

>  <ATP_Site>  (13) 
nan

>  <Peripheral>  (13) 
nan

>  <Num_H_Atoms_ProtBoundConf>  (13) 
nan

>  <Num_Resolved_Atoms>  (13) 
nan

>  <Num_Not_Resolved_Atoms>  (13) 
nan

$$$$
CHEMBL3673664
     RDKit          3D

  0  0  0  0  0  0  0  0  0  0999 V3000
M  V30 BEGIN CTAB
M  V30 COUNTS 39 42 0 0 0
M  V30 BEGIN ATOM
M  V30 1 C -0.699426 -3.401503 -0.285333 0
M  V30 2 C 0.792907 -3.262901 -0.052551 0
M  V30 3 C 1.525295 -4.549082 -0.306604 0
M  V30 4 N 1.726824 -4.861037 -1.689882 0
M  V30 5 C 2.187290 -3.771224 -2.480550 0
M  V30 6 O 2.813090 -3.851071 -3.568913 0
M  V30 7 C 1.917615 -2.400287 -1.999728 0
M  V30 8 C 2.228737 -1.144489 -2.529381 0
M  V30 9 C 1.743671 -0.175660 -1.677765 0
M  V30 10 C 1.823539 1.205225 -1.804390 0
M  V30 11 C 1.232492 1.913103 -0.770888 0
M  V30 12 C 0.618304 1.283857 0.291028 0
M  V30 13 C 0.015631 2.092906 1.345567 0
M  V30 14 O 0.057878 3.345495 1.283231 0
M  V30 15 N -0.630957 1.511321 2.464123 0
M  V30 16 C -1.267531 2.113542 3.575740 0
M  V30 17 C -1.834373 1.327625 4.553985 0
M  V30 18 C -2.457133 1.873545 5.641105 0
M  V30 19 C -2.566394 3.229035 5.842892 0
M  V30 20 N -2.012660 3.976459 4.887091 0
M  V30 21 C -1.395601 3.461334 3.810153 0
M  V30 22 N 0.598746 -0.063974 0.313125 0
M  V30 23 C 1.146829 -0.837677 -0.646280 0
M  V30 24 N 1.256770 -2.169167 -0.849116 0
M  V30 25 H -1.152793 -3.852718 0.611527 0
M  V30 26 H -1.110872 -2.356042 -0.353852 0
M  V30 27 H -0.938762 -3.940408 -1.220001 0
M  V30 28 H 0.908634 -3.044612 1.039396 0
M  V30 29 H 2.524443 -4.504755 0.173650 0
M  V30 30 H 0.966600 -5.382240 0.162145 0
M  V30 31 H 1.592311 -5.758648 -2.220495 0
M  V30 32 H 2.766573 -0.960551 -3.462534 0
M  V30 33 H 2.302088 1.708105 -2.631680 0
M  V30 34 H 1.258077 2.988169 -0.805850 0
M  V30 35 H -0.618127 0.462124 2.432547 0
M  V30 36 H -1.783174 0.234242 4.455410 0
M  V30 37 H -2.878568 1.184814 6.367512 0
M  V30 38 H -3.076054 3.571245 6.731660 0
M  V30 39 H -0.994954 4.165095 3.120022 0
M  V30 END ATOM
M  V30 BEGIN BOND
M  V30 1 1 1 2
M  V30 2 1 2 3
M  V30 3 1 3 4
M  V30 4 1 4 5
M  V30 5 2 5 6
M  V30 6 1 5 7
M  V30 7 2 7 8
M  V30 8 1 8 9
M  V30 9 2 9 10
M  V30 10 1 10 11
M  V30 11 2 11 12
M  V30 12 1 12 13
M  V30 13 2 13 14
M  V30 14 1 13 15
M  V30 15 1 15 16
M  V30 16 2 16 17
M  V30 17 1 17 18
M  V30 18 2 18 19
M  V30 19 1 19 20
M  V30 20 2 20 21
M  V30 21 1 12 22
M  V30 22 2 22 23
M  V30 23 1 23 24
M  V30 24 1 24 2
M  V30 25 1 24 7
M  V30 26 1 23 9
M  V30 27 1 21 16
M  V30 28 1 1 25
M  V30 29 1 1 26
M  V30 30 1 1 27
M  V30 31 1 2 28
M  V30 32 1 3 29
M  V30 33 1 3 30
M  V30 34 1 4 31
M  V30 35 1 8 32
M  V30 36 1 10 33
M  V30 37 1 11 34
M  V30 38 1 15 35
M  V30 39 1 17 36
M  V30 40 1 18 37
M  V30 41 1 19 38
M  V30 42 1 21 39
M  V30 END BOND
M  V30 END CTAB
M  END
>  <Dataset>  (14) 
ChEMBL_Kinases

>  <Ligand_Instance>  (14) 
nan

>  <PDB_ID>  (14) 
nan

>  <Standardized_SMILES>  (14) 
CC1CNC(=O)c2cc3ccc(C(=O)Nc4cccnc4)nc3n21

>  <Name>  (14) 
nan

>  <Pocket>  (14) 
nan

>  <ATP_Site>  (14) 
nan

>  <Peripheral>  (14) 
nan

>  <Num_H_Atoms_ProtBoundConf>  (14) 
nan

>  <Num_Resolved_Atoms>  (14) 
nan

>  <Num_Not_Resolved_Atoms>  (14) 
nan

$$$$
CHEMBL3673665
     RDKit          3D

  0  0  0  0  0  0  0  0  0  0999 V3000
M  V30 BEGIN CTAB
M  V30 COUNTS 43 46 0 0 0
M  V30 BEGIN ATOM
M  V30 1 C 4.110709 -6.559255 -3.925293 0
M  V30 2 N 3.280127 -5.359663 -4.019494 0
M  V30 3 C 3.040674 -4.535852 -2.886101 0
M  V30 4 O 3.652195 -5.041563 -1.900247 0
M  V30 5 C 2.209166 -3.336074 -2.983168 0
M  V30 6 C 1.486135 -2.749950 -4.175903 0
M  V30 7 S 0.726567 -1.254817 -3.296944 0
M  V30 8 C 1.398694 -1.631340 -1.780095 0
M  V30 9 N 1.107873 -0.731568 -0.649859 0
M  V30 10 C 1.859339 0.389085 -0.266283 0
M  V30 11 O 2.889015 0.697981 -0.916917 0
M  V30 12 C 1.393689 1.148681 0.890246 0
M  V30 13 C 2.139347 2.250483 1.261848 0
M  V30 14 C 1.712089 2.981038 2.355361 0
M  V30 15 C 0.571804 2.616733 3.053948 0
M  V30 16 C -0.047924 3.175191 4.159201 0
M  V30 17 C -1.134720 2.396172 4.410747 0
M  V30 18 N -1.201329 1.384734 3.501738 0
M  V30 19 C -0.153865 1.507636 2.656981 0
M  V30 20 N 0.303406 0.829742 1.586391 0
M  V30 21 C -2.202847 0.372485 3.450973 0
M  V30 22 C -3.235866 0.751974 2.390594 0
M  V30 23 C -2.979370 0.224598 4.732561 0
M  V30 24 N -3.193700 1.471106 5.415836 0
M  V30 25 C -2.174483 2.465009 5.432435 0
M  V30 26 O -2.208915 3.364290 6.326675 0
M  V30 27 N 2.106888 -2.700755 -1.812659 0
M  V30 28 H 5.166906 -6.259532 -4.082613 0
M  V30 29 H 3.800350 -7.344720 -4.652166 0
M  V30 30 H 3.966304 -6.988694 -2.906685 0
M  V30 31 H 2.855039 -5.114846 -4.964043 0
M  V30 32 H 1.701679 -3.452898 -5.100890 0
M  V30 33 H 0.246073 -1.030514 -0.143972 0
M  V30 34 H 3.040798 2.584286 0.753531 0
M  V30 35 H 2.275826 3.856518 2.677062 0
M  V30 36 H 0.257030 4.058415 4.726168 0
M  V30 37 H -1.798019 -0.614899 3.147723 0
M  V30 38 H -3.543716 1.804924 2.642456 0
M  V30 39 H -4.158213 0.158997 2.468462 0
M  V30 40 H -2.781459 0.796419 1.399538 0
M  V30 41 H -2.441246 -0.464291 5.417026 0
M  V30 42 H -3.986315 -0.212629 4.568585 0
M  V30 43 H -4.080766 1.717978 5.926034 0
M  V30 END ATOM
M  V30 BEGIN BOND
M  V30 1 1 1 2
M  V30 2 1 2 3
M  V30 3 2 3 4
M  V30 4 1 3 5
M  V30 5 2 5 6
M  V30 6 1 6 7
M  V30 7 1 7 8
M  V30 8 1 8 9
M  V30 9 1 9 10
M  V30 10 2 10 11
M  V30 11 1 10 12
M  V30 12 2 12 13
M  V30 13 1 13 14
M  V30 14 2 14 15
M  V30 15 1 15 16
M  V30 16 2 16 17
M  V30 17 1 17 18
M  V30 18 1 18 19
M  V30 19 2 19 20
M  V30 20 1 18 21
M  V30 21 1 21 22
M  V30 22 1 21 23
M  V30 23 1 23 24
M  V30 24 1 24 25
M  V30 25 2 25 26
M  V30 26 2 8 27
M  V30 27 1 27 5
M  V30 28 1 20 12
M  V30 29 1 19 15
M  V30 30 1 25 17
M  V30 31 1 1 28
M  V30 32 1 1 29
M  V30 33 1 1 30
M  V30 34 1 2 31
M  V30 35 1 6 32
M  V30 36 1 9 33
M  V30 37 1 13 34
M  V30 38 1 14 35
M  V30 39 1 16 36
M  V30 40 1 21 37
M  V30 41 1 22 38
M  V30 42 1 22 39
M  V30 43 1 22 40
M  V30 44 1 23 41
M  V30 45 1 23 42
M  V30 46 1 24 43
M  V30 END BOND
M  V30 END CTAB
M  END
>  <Dataset>  (15) 
ChEMBL_Kinases

>  <Ligand_Instance>  (15) 
nan

>  <PDB_ID>  (15) 
nan

>  <Standardized_SMILES>  (15) 
CNC(=O)c1csc(NC(=O)c2ccc3cc4n(c3n2)C(C)CNC4=O)n1

>  <Name>  (15) 
nan

>  <Pocket>  (15) 
nan

>  <ATP_Site>  (15) 
nan

>  <Peripheral>  (15) 
nan

>  <Num_H_Atoms_ProtBoundConf>  (15) 
nan

>  <Num_Resolved_Atoms>  (15) 
nan

>  <Num_Not_Resolved_Atoms>  (15) 
nan

$$$$
CHEMBL3673666
     RDKit          3D

  0  0  0  0  0  0  0  0  0  0999 V3000
M  V30 BEGIN CTAB
M  V30 COUNTS 36 39 0 0 0
M  V30 BEGIN ATOM
M  V30 1 C -1.189532 -2.603062 2.703830 0
M  V30 2 C 0.084115 -2.810757 1.883745 0
M  V30 3 C 0.475551 -4.268966 2.117654 0
M  V30 4 N -0.629673 -5.149572 1.709709 0
M  V30 5 C -0.997566 -4.907189 0.334805 0
M  V30 6 O -1.492848 -5.771019 -0.459584 0
M  V30 7 C -0.796133 -3.556337 -0.229474 0
M  V30 8 C -1.047828 -3.039105 -1.482237 0
M  V30 9 C -0.683396 -1.705536 -1.517430 0
M  V30 10 C -0.717051 -0.718688 -2.499794 0
M  V30 11 C -0.248870 0.528588 -2.131289 0
M  V30 12 C 0.231417 0.809687 -0.866715 0
M  V30 13 C 0.711536 2.152211 -0.545157 0
M  V30 14 O 0.714721 3.096852 -1.373768 0
M  V30 15 N 1.199211 2.412302 0.761211 0
M  V30 16 C 1.655327 3.776102 0.988289 0
M  V30 17 N 1.323032 4.823681 1.331395 0
M  V30 18 C 2.061184 5.915126 1.420912 0
M  V30 19 C 3.422538 5.779498 1.050717 0
M  V30 20 S 3.499828 3.946722 0.575003 0
M  V30 21 N 0.249490 -0.182799 0.071526 0
M  V30 22 C -0.200842 -1.434702 -0.236595 0
M  V30 23 N -0.277045 -2.555831 0.518651 0
M  V30 24 H -1.365494 -1.544844 2.940458 0
M  V30 25 H -2.090232 -2.947349 2.118550 0
M  V30 26 H -1.207242 -3.243127 3.619269 0
M  V30 27 H 0.879338 -2.177199 2.274229 0
M  V30 28 H 0.569707 -4.403632 3.215631 0
M  V30 29 H 1.401546 -4.527998 1.575810 0
M  V30 30 H -1.219225 -5.908496 2.161277 0
M  V30 31 H -1.463935 -3.566063 -2.326165 0
M  V30 32 H -1.092503 -0.948228 -3.479670 0
M  V30 33 H -0.274636 1.290174 -2.888758 0
M  V30 34 H 1.229133 1.677467 1.507876 0
M  V30 35 H 1.505022 6.788935 1.776046 0
M  V30 36 H 3.995022 6.846283 1.175027 0
M  V30 END ATOM
M  V30 BEGIN BOND
M  V30 1 1 1 2
M  V30 2 1 2 3
M  V30 3 1 3 4
M  V30 4 1 4 5
M  V30 5 2 5 6
M  V30 6 1 5 7
M  V30 7 2 7 8
M  V30 8 1 8 9
M  V30 9 2 9 10
M  V30 10 1 10 11
M  V30 11 2 11 12
M  V30 12 1 12 13
M  V30 13 2 13 14
M  V30 14 1 13 15
M  V30 15 1 15 16
M  V30 16 2 16 17
M  V30 17 1 17 18
M  V30 18 2 18 19
M  V30 19 1 19 20
M  V30 20 1 12 21
M  V30 21 2 21 22
M  V30 22 1 22 23
M  V30 23 1 23 2
M  V30 24 1 23 7
M  V30 25 1 22 9
M  V30 26 1 20 16
M  V30 27 1 1 24
M  V30 28 1 1 25
M  V30 29 1 1 26
M  V30 30 1 2 27
M  V30 31 1 3 28
M  V30 32 1 3 29
M  V30 33 1 4 30
M  V30 34 1 8 31
M  V30 35 1 10 32
M  V30 36 1 11 33
M  V30 37 1 15 34
M  V30 38 1 18 35
M  V30 39 1 19 36
M  V30 END BOND
M  V30 END CTAB
M  END
>  <Dataset>  (16) 
ChEMBL_Kinases

>  <Ligand_Instance>  (16) 
nan

>  <PDB_ID>  (16) 
nan

>  <Standardized_SMILES>  (16) 
CC1CNC(=O)c2cc3ccc(C(=O)Nc4nccs4)nc3n21

>  <Name>  (16) 
nan

>  <Pocket>  (16) 
nan

>  <ATP_Site>  (16) 
nan

>  <Peripheral>  (16) 
nan

>  <Num_H_Atoms_ProtBoundConf>  (16) 
nan

>  <Num_Resolved_Atoms>  (16) 
nan

>  <Num_Not_Resolved_Atoms>  (16) 
nan

$$$$
CHEMBL3673658
     RDKit          3D

  0  0  0  0  0  0  0  0  0  0999 V3000
M  V30 BEGIN CTAB
M  V30 COUNTS 49 53 0 0 0
M  V30 BEGIN ATOM
M  V30 1 O 1.931563 -0.112918 1.050258 0
M  V30 2 C 0.767021 -0.545778 1.292651 0
M  V30 3 N 0.025156 0.362380 2.104982 0
M  V30 4 C 0.849814 1.512090 2.401901 0
M  V30 5 C 0.959386 2.683332 1.677248 0
M  V30 6 C 1.864944 3.489780 2.345444 0
M  V30 7 C 2.242473 4.846814 1.858172 0
M  V30 8 C 3.426359 4.650350 0.955038 0
M  V30 9 C 4.745101 4.669234 1.353653 0
M  V30 10 C 5.734850 4.473575 0.412989 0
M  V30 11 C 5.443014 4.258817 -0.919483 0
M  V30 12 C 4.131883 4.236639 -1.335906 0
M  V30 13 C 3.140060 4.434061 -0.385275 0
M  V30 14 N 2.251765 2.778930 3.422627 0
M  V30 15 O 1.642717 1.622240 3.434092 0
M  V30 16 C 0.253693 -1.811788 0.801989 0
M  V30 17 C 1.112798 -2.563562 0.027910 0
M  V30 18 C 0.732522 -3.794397 -0.498401 0
M  V30 19 C -0.528063 -4.243725 -0.225317 0
M  V30 20 C -1.228015 -5.382152 -0.567700 0
M  V30 21 C -2.482082 -5.293536 0.001635 0
M  V30 22 N -2.555868 -4.130680 0.678481 0
M  V30 23 C -1.374705 -3.499788 0.539238 0
M  V30 24 N -0.973359 -2.295723 1.041935 0
M  V30 25 C -3.707148 -3.665434 1.414511 0
M  V30 26 C -4.988977 -3.797599 0.659114 0
M  V30 27 C -5.674225 -5.121838 0.801696 0
M  V30 28 N -4.898142 -6.144468 0.124364 0
M  V30 29 C -3.506666 -6.342260 -0.156278 0
M  V30 30 O -3.127658 -7.465545 -0.559136 0
M  V30 31 H -0.969918 0.097107 2.370226 0
M  V30 32 H 0.438353 2.926591 0.762166 0
M  V30 33 H 1.412559 5.292609 1.294855 0
M  V30 34 H 2.590982 5.434858 2.729773 0
M  V30 35 H 4.935956 4.837941 2.392033 0
M  V30 36 H 6.777785 4.485414 0.709935 0
M  V30 37 H 6.191555 4.099428 -1.698348 0
M  V30 38 H 3.881253 4.070119 -2.374394 0
M  V30 39 H 2.111757 4.411879 -0.740169 0
M  V30 40 H 2.115533 -2.214996 -0.194233 0
M  V30 41 H 1.424308 -4.351211 -1.094745 0
M  V30 42 H -0.857310 -6.198256 -1.174978 0
M  V30 43 H -3.722274 -4.141270 2.415005 0
M  V30 44 H -3.536634 -2.582437 1.590532 0
M  V30 45 H -4.817639 -3.602237 -0.406609 0
M  V30 46 H -5.689059 -3.022009 1.037421 0
M  V30 47 H -5.794962 -5.464209 1.837433 0
M  V30 48 H -6.642024 -5.062011 0.293729 0
M  V30 49 H -5.467534 -6.931811 -0.256466 0
M  V30 END ATOM
M  V30 BEGIN BOND
M  V30 1 2 1 2
M  V30 2 1 2 3
M  V30 3 1 3 4
M  V30 4 2 4 5
M  V30 5 1 5 6
M  V30 6 1 6 7
M  V30 7 1 7 8
M  V30 8 2 8 9
M  V30 9 1 9 10
M  V30 10 2 10 11
M  V30 11 1 11 12
M  V30 12 2 12 13
M  V30 13 2 6 14
M  V30 14 1 14 15
M  V30 15 1 2 16
M  V30 16 2 16 17
M  V30 17 1 17 18
M  V30 18 2 18 19
M  V30 19 1 19 20
M  V30 20 2 20 21
M  V30 21 1 21 22
M  V30 22 1 22 23
M  V30 23 2 23 24
M  V30 24 1 22 25
M  V30 25 1 25 26
M  V30 26 1 26 27
M  V30 27 1 27 28
M  V30 28 1 28 29
M  V30 29 2 29 30
M  V30 30 1 15 4
M  V30 31 1 24 16
M  V30 32 1 13 8
M  V30 33 1 23 19
M  V30 34 1 29 21
M  V30 35 1 3 31
M  V30 36 1 5 32
M  V30 37 1 7 33
M  V30 38 1 7 34
M  V30 39 1 9 35
M  V30 40 1 10 36
M  V30 41 1 11 37
M  V30 42 1 12 38
M  V30 43 1 13 39
M  V30 44 1 17 40
M  V30 45 1 18 41
M  V30 46 1 20 42
M  V30 47 1 25 43
M  V30 48 1 25 44
M  V30 49 1 26 45
M  V30 50 1 26 46
M  V30 51 1 27 47
M  V30 52 1 27 48
M  V30 53 1 28 49
M  V30 END BOND
M  V30 END CTAB
M  END
>  <Dataset>  (17) 
ChEMBL_Kinases

>  <Ligand_Instance>  (17) 
nan

>  <PDB_ID>  (17) 
nan

>  <Standardized_SMILES>  (17) 
O=C(Nc1cc(Cc2ccccc2)no1)c1ccc2cc3n(c2n1)CCCNC3=O

>  <Name>  (17) 
nan

>  <Pocket>  (17) 
nan

>  <ATP_Site>  (17) 
nan

>  <Peripheral>  (17) 
nan

>  <Num_H_Atoms_ProtBoundConf>  (17) 
nan

>  <Num_Resolved_Atoms>  (17) 
nan

>  <Num_Not_Resolved_Atoms>  (17) 
nan

$$$$
CHEMBL3684472
     RDKit          3D

  0  0  0  0  0  0  0  0  0  0999 V3000
M  V30 BEGIN CTAB
M  V30 COUNTS 66 72 0 0 0
M  V30 BEGIN ATOM
M  V30 1 C 2.726030 -0.499021 1.981494 0 CHG=-1 VAL=3
M  V30 2 N 2.805993 0.535986 2.498958 0 CHG=1 VAL=4
M  V30 3 C 2.929342 1.809549 3.137448 0
M  V30 4 C 4.269516 2.350252 2.868952 0
M  V30 5 C 5.312719 1.586156 3.412690 0
M  V30 6 C 6.630998 1.960091 3.242130 0
M  V30 7 C 6.986137 3.109910 2.524184 0
M  V30 8 C 5.967572 3.866042 1.986628 0
M  V30 9 C 4.673832 3.459966 2.179211 0
M  V30 10 C 1.870767 2.692806 2.540651 0
M  V30 11 C 0.505996 2.405132 3.155265 0
M  V30 12 N 0.520947 1.111214 3.730953 0
M  V30 13 C -0.690303 0.368051 3.725136 0
M  V30 14 C -1.173047 0.092984 2.353761 0
M  V30 15 C -2.068136 0.828610 1.609830 0
M  V30 16 C -2.409044 0.450924 0.342729 0
M  V30 17 C -1.881518 -0.689483 -0.276225 0
M  V30 18 C -2.126442 -1.190974 -1.608094 0
M  V30 19 N -1.734594 -0.368470 -2.611849 0
M  V30 20 N -1.950936 -0.941993 -3.799480 0
M  V30 21 C -2.484248 -2.139572 -3.574818 0
M  V30 22 N -2.586054 -2.270636 -2.242189 0
M  V30 23 C -3.097196 -3.360660 -1.505178 0
M  V30 24 C -3.557914 -2.931255 -0.290696 0
M  V30 25 C -4.043872 -3.892190 0.572564 0
M  V30 26 C -4.035867 -5.227999 0.152310 0
M  V30 27 N -3.579892 -5.652197 -1.060060 0
M  V30 28 C -3.110494 -4.684977 -1.882449 0
M  V30 29 N -2.731708 -5.253798 -3.159153 0
M  V30 30 C -2.874028 -4.492269 -4.385263 0
M  V30 31 C -3.135850 -5.361332 -5.441569 0
M  V30 32 C -3.315802 -4.799034 -6.687752 0
M  V30 33 C -3.239446 -3.420946 -6.886522 0
M  V30 34 C -2.980681 -2.547964 -5.852728 0
M  V30 35 C -2.801895 -3.110344 -4.614458 0
M  V30 36 C -0.970151 -1.418277 0.511730 0
M  V30 37 C -0.619165 -1.045501 1.792419 0
M  V30 38 C 1.358403 0.929315 4.871009 0
M  V30 39 C 2.698856 1.574078 4.613123 0
M  V30 40 H 5.270345 0.660740 4.000661 0
M  V30 41 H 7.499535 1.436436 3.621781 0
M  V30 42 H 7.991530 3.462859 2.350208 0
M  V30 43 H 6.150197 4.772133 1.415338 0
M  V30 44 H 3.887177 4.049396 1.756129 0
M  V30 45 H 2.113135 3.775519 2.607020 0
M  V30 46 H 1.786463 2.448992 1.464342 0
M  V30 47 H 0.293741 3.210180 3.908865 0
M  V30 48 H -0.294416 2.472612 2.397621 0
M  V30 49 H -0.500888 -0.576969 4.291509 0
M  V30 50 H -1.480090 0.896935 4.303355 0
M  V30 51 H -2.493473 1.705105 2.069740 0
M  V30 52 H -3.103456 0.993413 -0.275179 0
M  V30 53 H -3.663951 -1.968834 0.128909 0
M  V30 54 H -4.445507 -3.749799 1.566669 0
M  V30 55 H -4.402069 -6.022613 0.785415 0
M  V30 56 H -2.370644 -6.218389 -3.194522 0
M  V30 57 H -3.181035 -6.418501 -5.224797 0
M  V30 58 H -3.520087 -5.449227 -7.525309 0
M  V30 59 H -3.377341 -2.974869 -7.861292 0
M  V30 60 H -2.899395 -1.473877 -5.888038 0
M  V30 61 H -0.514564 -2.328504 0.087739 0
M  V30 62 H 0.102925 -1.696050 2.311348 0
M  V30 63 H 1.531263 -0.177533 4.964316 0
M  V30 64 H 0.927710 1.259329 5.832322 0
M  V30 65 H 3.522611 0.931259 4.980216 0
M  V30 66 H 2.668244 2.573784 5.118177 0
M  V30 END ATOM
M  V30 BEGIN BOND
M  V30 1 3 1 2
M  V30 2 1 2 3
M  V30 3 1 3 4
M  V30 4 2 4 5
M  V30 5 1 5 6
M  V30 6 2 6 7
M  V30 7 1 7 8
M  V30 8 2 8 9
M  V30 9 1 3 10
M  V30 10 1 10 11
M  V30 11 1 11 12
M  V30 12 1 12 13
M  V30 13 1 13 14
M  V30 14 2 14 15
M  V30 15 1 15 16
M  V30 16 2 16 17
M  V30 17 1 17 18
M  V30 18 2 18 19
M  V30 19 1 19 20
M  V30 20 2 20 21
M  V30 21 1 21 22
M  V30 22 1 22 23
M  V30 23 2 23 24
M  V30 24 1 24 25
M  V30 25 2 25 26
M  V30 26 1 26 27
M  V30 27 2 27 28
M  V30 28 1 28 29
M  V30 29 1 29 30
M  V30 30 2 30 31
M  V30 31 1 31 32
M  V30 32 2 32 33
M  V30 33 1 33 34
M  V30 34 2 34 35
M  V30 35 1 17 36
M  V30 36 2 36 37
M  V30 37 1 12 38
M  V30 38 1 38 39
M  V30 39 1 39 3
M  V30 40 1 9 4
M  V30 41 1 37 14
M  V30 42 1 22 18
M  V30 43 1 28 23
M  V30 44 1 35 30
M  V30 45 1 35 21
M  V30 46 1 5 40
M  V30 47 1 6 41
M  V30 48 1 7 42
M  V30 49 1 8 43
M  V30 50 1 9 44
M  V30 51 1 10 45
M  V30 52 1 10 46
M  V30 53 1 11 47
M  V30 54 1 11 48
M  V30 55 1 13 49
M  V30 56 1 13 50
M  V30 57 1 15 51
M  V30 58 1 16 52
M  V30 59 1 24 53
M  V30 60 1 25 54
M  V30 61 1 26 55
M  V30 62 1 29 56
M  V30 63 1 31 57
M  V30 64 1 32 58
M  V30 65 1 33 59
M  V30 66 1 34 60
M  V30 67 1 36 61
M  V30 68 1 37 62
M  V30 69 1 38 63
M  V30 70 1 38 64
M  V30 71 1 39 65
M  V30 72 1 39 66
M  V30 END BOND
M  V30 END CTAB
M  END
>  <Dataset>  (18) 
ChEMBL_Kinases

>  <Ligand_Instance>  (18) 
nan

>  <PDB_ID>  (18) 
nan

>  <Standardized_SMILES>  (18) 
[C-]#[N+]C1(c2ccccc2)CCN(Cc2ccc(-c3nnc4n3-c3cccnc3Nc3ccccc3-4)cc2)CC1

>  <Name>  (18) 
nan

>  <Pocket>  (18) 
nan

>  <ATP_Site>  (18) 
nan

>  <Peripheral>  (18) 
nan

>  <Num_H_Atoms_ProtBoundConf>  (18) 
nan

>  <Num_Resolved_Atoms>  (18) 
nan

>  <Num_Not_Resolved_Atoms>  (18) 
nan

$$$$
CHEMBL3684471
     RDKit          3D

  0  0  0  0  0  0  0  0  0  0999 V3000
M  V30 BEGIN CTAB
M  V30 COUNTS 72 79 0 0 0
M  V30 BEGIN ATOM
M  V30 1 O -0.704644 0.715516 -0.953091 0
M  V30 2 C 0.098688 1.062232 -1.873691 0
M  V30 3 N 0.201546 2.470280 -1.976840 0
M  V30 4 C 1.218756 2.835633 -2.914671 0
M  V30 5 N 1.715609 1.547216 -3.411420 0
M  V30 6 C 2.822060 1.618166 -4.301232 0
M  V30 7 C 3.470318 2.790245 -4.607895 0
M  V30 8 C 4.552361 2.907275 -5.474258 0
M  V30 9 C 5.029892 1.768889 -6.086020 0
M  V30 10 C 4.428747 0.562156 -5.824827 0
M  V30 11 C 3.361716 0.531936 -4.954180 0
M  V30 12 C 0.991333 0.408525 -2.907953 0
M  V30 13 C 0.039282 -0.200114 -3.911227 0
M  V30 14 C -0.645089 -1.367919 -3.258244 0
M  V30 15 N 0.293315 -2.402547 -3.003460 0
M  V30 16 C -0.252847 -3.557020 -2.353654 0
M  V30 17 C -0.842555 -3.320785 -1.034350 0
M  V30 18 C -0.082016 -3.456445 0.102246 0
M  V30 19 C -0.707544 -3.213858 1.303559 0
M  V30 20 C -2.059545 -2.838412 1.464446 0
M  V30 21 C -2.630729 -2.639413 2.779593 0
M  V30 22 N -3.650013 -3.492292 3.068431 0
M  V30 23 N -4.086410 -3.278995 4.320197 0
M  V30 24 C -3.347729 -2.291294 4.832332 0
M  V30 25 N -2.477266 -1.915056 3.888534 0
M  V30 26 C -1.489728 -0.909841 3.935719 0
M  V30 27 C -1.217226 -0.455041 2.674474 0
M  V30 28 C -0.224961 0.496441 2.556192 0
M  V30 29 C 0.430798 0.934118 3.713826 0
M  V30 30 N 0.137596 0.466928 4.967182 0
M  V30 31 C -0.840359 -0.467993 5.067215 0
M  V30 32 N -1.086146 -0.802912 6.451172 0
M  V30 33 C -2.417540 -1.174461 6.885297 0
M  V30 34 C -2.592941 -0.778968 8.215279 0
M  V30 35 C -3.817945 -1.035932 8.800511 0
M  V30 36 C -4.840187 -1.668360 8.083989 0
M  V30 37 C -4.683746 -2.065134 6.773523 0
M  V30 38 C -3.466710 -1.806725 6.202992 0
M  V30 39 C -2.776838 -2.718692 0.255768 0
M  V30 40 C -2.170053 -2.957626 -0.961820 0
M  V30 41 C 1.609825 -2.031507 -2.649229 0
M  V30 42 C 1.849353 -0.624897 -2.242544 0
M  V30 43 H -0.250149 3.314937 -1.566469 0
M  V30 44 H 2.021840 3.438259 -2.461992 0
M  V30 45 H 0.785009 3.417042 -3.768395 0
M  V30 46 H 3.168050 3.733901 -4.177118 0
M  V30 47 H 5.025911 3.849781 -5.682272 0
M  V30 48 H 5.866916 1.858061 -6.756355 0
M  V30 49 H 4.827309 -0.304501 -6.319654 0
M  V30 50 H 2.962277 -0.452114 -4.819766 0
M  V30 51 H 0.595979 -0.513660 -4.807211 0
M  V30 52 H -0.677200 0.587173 -4.232231 0
M  V30 53 H -1.218096 -1.041295 -2.376043 0
M  V30 54 H -1.409526 -1.727437 -3.983688 0
M  V30 55 H -1.017076 -4.035439 -3.013055 0
M  V30 56 H 0.566182 -4.325100 -2.294509 0
M  V30 57 H 0.953483 -3.736726 0.117255 0
M  V30 58 H -0.131871 -3.311786 2.237183 0
M  V30 59 H -1.659277 -0.658699 1.736645 0
M  V30 60 H 0.131342 0.971811 1.646574 0
M  V30 61 H 1.215591 1.677023 3.662897 0
M  V30 62 H -0.311469 -0.758919 7.129854 0
M  V30 63 H -1.768358 -0.300473 8.711980 0
M  V30 64 H -3.988847 -0.744548 9.824261 0
M  V30 65 H -5.812731 -1.877351 8.531542 0
M  V30 66 H -5.400609 -2.555334 6.137880 0
M  V30 67 H -3.807970 -2.429764 0.420977 0
M  V30 68 H -2.835173 -2.829052 -1.801932 0
M  V30 69 H 1.938161 -2.672001 -1.778199 0
M  V30 70 H 2.279832 -2.301367 -3.497464 0
M  V30 71 H 2.922904 -0.368444 -2.454104 0
M  V30 72 H 1.769411 -0.465426 -1.137828 0
M  V30 END ATOM
M  V30 BEGIN BOND
M  V30 1 2 1 2
M  V30 2 1 2 3
M  V30 3 1 3 4
M  V30 4 1 4 5
M  V30 5 1 5 6
M  V30 6 2 6 7
M  V30 7 1 7 8
M  V30 8 2 8 9
M  V30 9 1 9 10
M  V30 10 2 10 11
M  V30 11 1 5 12
M  V30 12 1 12 13
M  V30 13 1 13 14
M  V30 14 1 14 15
M  V30 15 1 15 16
M  V30 16 1 16 17
M  V30 17 2 17 18
M  V30 18 1 18 19
M  V30 19 2 19 20
M  V30 20 1 20 21
M  V30 21 2 21 22
M  V30 22 1 22 23
M  V30 23 2 23 24
M  V30 24 1 24 25
M  V30 25 1 25 26
M  V30 26 2 26 27
M  V30 27 1 27 28
M  V30 28 2 28 29
M  V30 29 1 29 30
M  V30 30 2 30 31
M  V30 31 1 31 32
M  V30 32 1 32 33
M  V30 33 2 33 34
M  V30 34 1 34 35
M  V30 35 2 35 36
M  V30 36 1 36 37
M  V30 37 2 37 38
M  V30 38 1 20 39
M  V30 39 2 39 40
M  V30 40 1 15 41
M  V30 41 1 41 42
M  V30 42 1 12 2
M  V30 43 1 40 17
M  V30 44 1 11 6
M  V30 45 1 42 12
M  V30 46 1 25 21
M  V30 47 1 31 26
M  V30 48 1 38 33
M  V30 49 1 38 24
M  V30 50 1 3 43
M  V30 51 1 4 44
M  V30 52 1 4 45
M  V30 53 1 7 46
M  V30 54 1 8 47
M  V30 55 1 9 48
M  V30 56 1 10 49
M  V30 57 1 11 50
M  V30 58 1 13 51
M  V30 59 1 13 52
M  V30 60 1 14 53
M  V30 61 1 14 54
M  V30 62 1 16 55
M  V30 63 1 16 56
M  V30 64 1 18 57
M  V30 65 1 19 58
M  V30 66 1 27 59
M  V30 67 1 28 60
M  V30 68 1 29 61
M  V30 69 1 32 62
M  V30 70 1 34 63
M  V30 71 1 35 64
M  V30 72 1 36 65
M  V30 73 1 37 66
M  V30 74 1 39 67
M  V30 75 1 40 68
M  V30 76 1 41 69
M  V30 77 1 41 70
M  V30 78 1 42 71
M  V30 79 1 42 72
M  V30 END BOND
M  V30 END CTAB
M  END
>  <Dataset>  (19) 
ChEMBL_Kinases

>  <Ligand_Instance>  (19) 
nan

>  <PDB_ID>  (19) 
nan

>  <Standardized_SMILES>  (19) 
O=C1NCN(c2ccccc2)C12CCN(Cc1ccc(-c3nnc4n3-c3cccnc3Nc3ccccc3-4)cc1)CC2

>  <Name>  (19) 
nan

>  <Pocket>  (19) 
nan

>  <ATP_Site>  (19) 
nan

>  <Peripheral>  (19) 
nan

>  <Num_H_Atoms_ProtBoundConf>  (19) 
nan

>  <Num_Resolved_Atoms>  (19) 
nan

>  <Num_Not_Resolved_Atoms>  (19) 
nan

$$$$
CHEMBL3684470
     RDKit          3D

  0  0  0  0  0  0  0  0  0  0999 V3000
M  V30 BEGIN CTAB
M  V30 COUNTS 65 71 0 0 0
M  V30 BEGIN ATOM
M  V30 1 O 0.390763 2.170810 5.505132 0
M  V30 2 C 0.192016 2.393995 4.261753 0
M  V30 3 C 1.336275 2.024222 3.468416 0
M  V30 4 C 2.139315 2.805798 2.665725 0
M  V30 5 C 3.202271 2.257884 1.977992 0
M  V30 6 C 3.479675 0.890204 2.088154 0
M  V30 7 C 2.671892 0.138919 2.887225 0
M  V30 8 N 1.655348 0.715346 3.532588 0
M  V30 9 N -1.040457 2.942106 3.803705 0
M  V30 10 C -1.406960 3.253513 2.411751 0
M  V30 11 C -2.901961 2.913447 2.304502 0
M  V30 12 N -3.183090 1.879124 3.184072 0
M  V30 13 C -3.531658 0.593574 2.782793 0
M  V30 14 C -2.451950 -0.028551 1.944564 0
M  V30 15 C -1.428826 -0.735970 2.543791 0
M  V30 16 C -0.422771 -1.326087 1.804231 0
M  V30 17 C -0.434250 -1.207733 0.402335 0
M  V30 18 C 0.527018 -1.716453 -0.551878 0
M  V30 19 N 1.761983 -1.178263 -0.413964 0
M  V30 20 N 2.573171 -1.664357 -1.369716 0
M  V30 21 C 1.857562 -2.515865 -2.122600 0
M  V30 22 N 0.621108 -2.530878 -1.602106 0
M  V30 23 C -0.503295 -3.267315 -2.023861 0
M  V30 24 C -1.362200 -3.463717 -0.976733 0
M  V30 25 C -2.539183 -4.126302 -1.252784 0
M  V30 26 C -2.777844 -4.551040 -2.558738 0
M  V30 27 N -1.910638 -4.353032 -3.597079 0
M  V30 28 C -0.766176 -3.703102 -3.303387 0
M  V30 29 N 0.085833 -3.633093 -4.470916 0
M  V30 30 C 1.528600 -3.651514 -4.332442 0
M  V30 31 C 2.102108 -4.257186 -5.456020 0
M  V30 32 C 3.472554 -4.369020 -5.469524 0
M  V30 33 C 4.288848 -3.911652 -4.429509 0
M  V30 34 C 3.730690 -3.310446 -3.314527 0
M  V30 35 C 2.367114 -3.200765 -3.305276 0
M  V30 36 C -1.499288 -0.476081 -0.164380 0
M  V30 37 C -2.506323 0.115125 0.572660 0
M  V30 38 C -3.237015 2.262158 4.537239 0
M  V30 39 C -2.070122 3.231309 4.798070 0
M  V30 40 H 1.846029 3.859187 2.641070 0
M  V30 41 H 3.804628 2.906672 1.361244 0
M  V30 42 H 4.298904 0.443133 1.563218 0
M  V30 43 H 2.852744 -0.942663 3.004175 0
M  V30 44 H -1.234077 4.327786 2.195842 0
M  V30 45 H -0.802633 2.661164 1.705130 0
M  V30 46 H -3.062004 2.725256 1.229509 0
M  V30 47 H -3.420131 3.885948 2.509174 0
M  V30 48 H -3.582053 -0.059042 3.704173 0
M  V30 49 H -4.489590 0.499559 2.229545 0
M  V30 50 H -1.365427 -0.862425 3.619142 0
M  V30 51 H 0.413747 -1.894301 2.172601 0
M  V30 52 H -1.286403 -3.240186 0.053110 0
M  V30 53 H -3.323551 -4.360752 -0.543371 0
M  V30 54 H -3.687658 -5.072172 -2.820625 0
M  V30 55 H -0.334163 -3.586029 -5.411087 0
M  V30 56 H 1.443001 -4.588707 -6.226151 0
M  V30 57 H 3.949135 -4.841199 -6.341296 0
M  V30 58 H 5.366102 -4.001773 -4.442830 0
M  V30 59 H 4.245883 -2.918979 -2.453694 0
M  V30 60 H -1.564244 -0.346383 -1.257716 0
M  V30 61 H -3.294385 0.663580 0.044699 0
M  V30 62 H -3.228490 1.413147 5.248866 0
M  V30 63 H -4.166760 2.882985 4.673344 0
M  V30 64 H -2.406474 4.286612 4.581806 0
M  V30 65 H -1.663329 3.142661 5.803656 0
M  V30 END ATOM
M  V30 BEGIN BOND
M  V30 1 2 1 2
M  V30 2 1 2 3
M  V30 3 2 3 4
M  V30 4 1 4 5
M  V30 5 2 5 6
M  V30 6 1 6 7
M  V30 7 2 7 8
M  V30 8 1 2 9
M  V30 9 1 9 10
M  V30 10 1 10 11
M  V30 11 1 11 12
M  V30 12 1 12 13
M  V30 13 1 13 14
M  V30 14 2 14 15
M  V30 15 1 15 16
M  V30 16 2 16 17
M  V30 17 1 17 18
M  V30 18 2 18 19
M  V30 19 1 19 20
M  V30 20 2 20 21
M  V30 21 1 21 22
M  V30 22 1 22 23
M  V30 23 2 23 24
M  V30 24 1 24 25
M  V30 25 2 25 26
M  V30 26 1 26 27
M  V30 27 2 27 28
M  V30 28 1 28 29
M  V30 29 1 29 30
M  V30 30 2 30 31
M  V30 31 1 31 32
M  V30 32 2 32 33
M  V30 33 1 33 34
M  V30 34 2 34 35
M  V30 35 1 17 36
M  V30 36 2 36 37
M  V30 37 1 12 38
M  V30 38 1 38 39
M  V30 39 1 8 3
M  V30 40 1 39 9
M  V30 41 1 37 14
M  V30 42 1 22 18
M  V30 43 1 28 23
M  V30 44 1 35 30
M  V30 45 1 35 21
M  V30 46 1 4 40
M  V30 47 1 5 41
M  V30 48 1 6 42
M  V30 49 1 7 43
M  V30 50 1 10 44
M  V30 51 1 10 45
M  V30 52 1 11 46
M  V30 53 1 11 47
M  V30 54 1 13 48
M  V30 55 1 13 49
M  V30 56 1 15 50
M  V30 57 1 16 51
M  V30 58 1 24 52
M  V30 59 1 25 53
M  V30 60 1 26 54
M  V30 61 1 29 55
M  V30 62 1 31 56
M  V30 63 1 32 57
M  V30 64 1 33 58
M  V30 65 1 34 59
M  V30 66 1 36 60
M  V30 67 1 37 61
M  V30 68 1 38 62
M  V30 69 1 38 63
M  V30 70 1 39 64
M  V30 71 1 39 65
M  V30 END BOND
M  V30 END CTAB
M  END
>  <Dataset>  (20) 
ChEMBL_Kinases

>  <Ligand_Instance>  (20) 
nan

>  <PDB_ID>  (20) 
nan

>  <Standardized_SMILES>  (20) 
O=C(c1ccccn1)N1CCN(Cc2ccc(-c3nnc4n3-c3cccnc3Nc3ccccc3-4)cc2)CC1

>  <Name>  (20) 
nan

>  <Pocket>  (20) 
nan

>  <ATP_Site>  (20) 
nan

>  <Peripheral>  (20) 
nan

>  <Num_H_Atoms_ProtBoundConf>  (20) 
nan

>  <Num_Resolved_Atoms>  (20) 
nan

>  <Num_Not_Resolved_Atoms>  (20) 
nan

$$$$
CHEMBL3684469
     RDKit          3D

  0  0  0  0  0  0  0  0  0  0999 V3000
M  V30 BEGIN CTAB
M  V30 COUNTS 69 75 0 0 0
M  V30 BEGIN ATOM
M  V30 1 C 3.380053 -1.024355 6.749028 0
M  V30 2 C 3.245031 -1.071609 5.283960 0
M  V30 3 C 4.325846 -1.488063 4.502944 0
M  V30 4 C 4.168154 -1.515633 3.111924 0
M  V30 5 C 2.971257 -1.141559 2.507981 0
M  V30 6 C 2.984070 -1.221889 1.046630 0
M  V30 7 O 2.359336 -2.168097 0.453878 0
M  V30 8 N 3.699747 -0.235283 0.273141 0
M  V30 9 C 3.768842 -0.214192 -1.164368 0
M  V30 10 C 3.410139 1.180318 -1.635729 0
M  V30 11 N 3.174914 2.103999 -0.623216 0
M  V30 12 C 2.029617 2.905332 -0.588306 0
M  V30 13 C 0.726911 2.204362 -0.735309 0
M  V30 14 C 0.073826 1.516763 0.262589 0
M  V30 15 C -1.159052 0.916721 0.030818 0
M  V30 16 C -1.797301 0.983083 -1.226377 0
M  V30 17 C -3.079454 0.321401 -1.281939 0
M  V30 18 N -4.125849 1.191594 -1.383132 0
M  V30 19 N -5.282248 0.500560 -1.388952 0
M  V30 20 C -4.988048 -0.791373 -1.292753 0
M  V30 21 N -3.650564 -0.878879 -1.231479 0
M  V30 22 C -2.849581 -2.032812 -1.118364 0
M  V30 23 C -1.591623 -1.798761 -1.585433 0
M  V30 24 C -0.613953 -2.799067 -1.521319 0
M  V30 25 C -1.068888 -3.999819 -0.951781 0
M  V30 26 N -2.319971 -4.246068 -0.485503 0
M  V30 27 C -3.235823 -3.234287 -0.573279 0
M  V30 28 N -4.525583 -3.669642 -0.099498 0
M  V30 29 C -5.731157 -3.093395 -0.655809 0
M  V30 30 C -6.756396 -4.036086 -0.586418 0
M  V30 31 C -7.994981 -3.683444 -1.079784 0
M  V30 32 C -8.234595 -2.432775 -1.633191 0
M  V30 33 C -7.215991 -1.487609 -1.704868 0
M  V30 34 C -5.997998 -1.833620 -1.219697 0
M  V30 35 C -1.131002 1.691591 -2.254200 0
M  V30 36 C 0.084447 2.254969 -1.949118 0
M  V30 37 C 4.087641 2.165162 0.472043 0
M  V30 38 C 4.388707 0.795130 1.038530 0
M  V30 39 C 1.939872 -0.741337 3.307810 0
M  V30 40 C 2.062684 -0.701896 4.687442 0
M  V30 41 H 4.437112 -1.084200 7.087059 0
M  V30 42 H 2.957747 -0.060571 7.161771 0
M  V30 43 H 2.827348 -1.844956 7.282427 0
M  V30 44 H 5.239123 -1.771472 4.991930 0
M  V30 45 H 5.054864 -1.851679 2.593593 0
M  V30 46 H 4.801757 -0.430319 -1.504857 0
M  V30 47 H 3.118115 -0.997744 -1.623369 0
M  V30 48 H 2.462516 1.044944 -2.229332 0
M  V30 49 H 4.168961 1.539209 -2.348714 0
M  V30 50 H 2.078246 3.561236 0.310138 0
M  V30 51 H 2.113044 3.639414 -1.450489 0
M  V30 52 H 0.560317 1.465070 1.229719 0
M  V30 53 H -1.584868 0.402198 0.884829 0
M  V30 54 H -1.167042 -0.962791 -2.066672 0
M  V30 55 H 0.420186 -2.793110 -1.835313 0
M  V30 56 H -0.432857 -4.861745 -0.831330 0
M  V30 57 H -4.568611 -4.396401 0.619451 0
M  V30 58 H -6.531723 -5.018561 -0.141828 0
M  V30 59 H -8.803149 -4.412819 -1.031844 0
M  V30 60 H -9.195874 -2.138617 -2.024596 0
M  V30 61 H -7.285610 -0.492131 -2.109980 0
M  V30 62 H -1.671970 1.706918 -3.185001 0
M  V30 63 H 0.573786 2.796183 -2.771799 0
M  V30 64 H 5.025157 2.639125 0.138961 0
M  V30 65 H 3.647537 2.790490 1.270055 0
M  V30 66 H 4.127390 0.773678 2.108831 0
M  V30 67 H 5.472048 0.595236 0.950495 0
M  V30 68 H 1.015150 -0.455609 2.779334 0
M  V30 69 H 1.219103 -0.376188 5.291958 0
M  V30 END ATOM
M  V30 BEGIN BOND
M  V30 1 1 1 2
M  V30 2 2 2 3
M  V30 3 1 3 4
M  V30 4 2 4 5
M  V30 5 1 5 6
M  V30 6 2 6 7
M  V30 7 1 6 8
M  V30 8 1 8 9
M  V30 9 1 9 10
M  V30 10 1 10 11
M  V30 11 1 11 12
M  V30 12 1 12 13
M  V30 13 2 13 14
M  V30 14 1 14 15
M  V30 15 2 15 16
M  V30 16 1 16 17
M  V30 17 2 17 18
M  V30 18 1 18 19
M  V30 19 2 19 20
M  V30 20 1 20 21
M  V30 21 1 21 22
M  V30 22 2 22 23
M  V30 23 1 23 24
M  V30 24 2 24 25
M  V30 25 1 25 26
M  V30 26 2 26 27
M  V30 27 1 27 28
M  V30 28 1 28 29
M  V30 29 2 29 30
M  V30 30 1 30 31
M  V30 31 2 31 32
M  V30 32 1 32 33
M  V30 33 2 33 34
M  V30 34 1 16 35
M  V30 35 2 35 36
M  V30 36 1 11 37
M  V30 37 1 37 38
M  V30 38 1 5 39
M  V30 39 2 39 40
M  V30 40 1 40 2
M  V30 41 1 38 8
M  V30 42 1 36 13
M  V30 43 1 21 17
M  V30 44 1 27 22
M  V30 45 1 34 29
M  V30 46 1 34 20
M  V30 47 1 1 41
M  V30 48 1 1 42
M  V30 49 1 1 43
M  V30 50 1 3 44
M  V30 51 1 4 45
M  V30 52 1 9 46
M  V30 53 1 9 47
M  V30 54 1 10 48
M  V30 55 1 10 49
M  V30 56 1 12 50
M  V30 57 1 12 51
M  V30 58 1 14 52
M  V30 59 1 15 53
M  V30 60 1 23 54
M  V30 61 1 24 55
M  V30 62 1 25 56
M  V30 63 1 28 57
M  V30 64 1 30 58
M  V30 65 1 31 59
M  V30 66 1 32 60
M  V30 67 1 33 61
M  V30 68 1 35 62
M  V30 69 1 36 63
M  V30 70 1 37 64
M  V30 71 1 37 65
M  V30 72 1 38 66
M  V30 73 1 38 67
M  V30 74 1 39 68
M  V30 75 1 40 69
M  V30 END BOND
M  V30 END CTAB
M  END
>  <Dataset>  (21) 
ChEMBL_Kinases

>  <Ligand_Instance>  (21) 
nan

>  <PDB_ID>  (21) 
nan

>  <Standardized_SMILES>  (21) 
Cc1ccc(C(=O)N2CCN(Cc3ccc(-c4nnc5n4-c4cccnc4Nc4ccccc4-5)cc3)CC2)cc1

>  <Name>  (21) 
nan

>  <Pocket>  (21) 
nan

>  <ATP_Site>  (21) 
nan

>  <Peripheral>  (21) 
nan

>  <Num_H_Atoms_ProtBoundConf>  (21) 
nan

>  <Num_Resolved_Atoms>  (21) 
nan

>  <Num_Not_Resolved_Atoms>  (21) 
nan

$$$$
CHEMBL3684468
     RDKit          3D

  0  0  0  0  0  0  0  0  0  0999 V3000
M  V30 BEGIN CTAB
M  V30 COUNTS 67 73 0 0 0
M  V30 BEGIN ATOM
M  V30 1 C 3.740651 -3.105209 1.653799 0 CHG=-1 VAL=3
M  V30 2 N 3.853574 -1.968912 1.890057 0 CHG=1 VAL=4
M  V30 3 C 4.000534 -0.641290 2.148868 0
M  V30 4 C 5.251257 -0.141523 2.517326 0
M  V30 5 C 5.411602 1.202850 2.782560 0
M  V30 6 C 4.363812 2.100078 2.698273 0
M  V30 7 C 3.112247 1.636263 2.335824 0
M  V30 8 C 1.874764 2.394065 2.187867 0
M  V30 9 O 1.814511 2.924488 1.048387 0
M  V30 10 N 0.908285 2.482341 3.231181 0
M  V30 11 C -0.296149 3.248858 3.019352 0
M  V30 12 C -1.408074 2.859351 3.958067 0
M  V30 13 N -1.248726 1.626334 4.600064 0
M  V30 14 C -1.994739 0.510723 4.166858 0
M  V30 15 C -1.799701 0.108258 2.760221 0
M  V30 16 C -0.818132 -0.784650 2.386068 0
M  V30 17 C -0.655095 -1.151002 1.068576 0
M  V30 18 C -1.499419 -0.609695 0.075411 0
M  V30 19 C -1.375323 -0.916025 -1.335257 0
M  V30 20 N -1.105677 0.180425 -2.103942 0
M  V30 21 N -0.954420 -0.196013 -3.383344 0
M  V30 22 C -1.124608 -1.527352 -3.445237 0
M  V30 23 N -1.381177 -1.938102 -2.195673 0
M  V30 24 C -1.640075 -3.241145 -1.722256 0
M  V30 25 C -2.380659 -3.193098 -0.574546 0
M  V30 26 C -2.659484 -4.398807 0.036979 0
M  V30 27 C -2.172612 -5.570298 -0.553989 0
M  V30 28 N -1.434654 -5.627629 -1.702244 0
M  V30 29 C -1.180287 -4.413522 -2.278999 0
M  V30 30 N -0.462565 -4.608014 -3.520492 0
M  V30 31 C -0.656067 -3.695466 -4.631745 0
M  V30 32 C -0.493176 -4.371084 -5.838056 0
M  V30 33 C -0.658421 -3.654446 -6.999424 0
M  V30 34 C -0.978289 -2.299248 -6.971993 0
M  V30 35 C -1.147695 -1.598134 -5.801240 0
M  V30 36 C -0.977460 -2.329412 -4.651958 0
M  V30 37 C -2.491362 0.300360 0.494292 0
M  V30 38 C -2.643410 0.657508 1.818491 0
M  V30 39 C -0.000165 1.360347 5.221773 0
M  V30 40 C 1.202418 1.786272 4.456627 0
M  V30 41 C 2.970204 0.272760 2.071315 0
M  V30 42 H 6.121736 -0.802544 2.601528 0
M  V30 43 H 6.348202 1.624442 3.066258 0
M  V30 44 H 4.376647 3.157617 2.882127 0
M  V30 45 H -0.643716 3.045994 1.985125 0
M  V30 46 H -0.031251 4.321692 3.102447 0
M  V30 47 H -1.433395 3.660509 4.747888 0
M  V30 48 H -2.408344 2.918121 3.484773 0
M  V30 49 H -1.754736 -0.346454 4.847936 0
M  V30 50 H -3.071355 0.721999 4.330937 0
M  V30 51 H -0.164805 -1.204467 3.159415 0
M  V30 52 H 0.115287 -1.860073 0.740029 0
M  V30 53 H -2.839504 -2.392090 -0.060446 0
M  V30 54 H -3.230560 -4.563239 0.957079 0
M  V30 55 H -2.365238 -6.533556 -0.107542 0
M  V30 56 H 0.181599 -5.410154 -3.634547 0
M  V30 57 H -0.245342 -5.418661 -5.788463 0
M  V30 58 H -0.539661 -4.158101 -7.954007 0
M  V30 59 H -1.112584 -1.718060 -7.898609 0
M  V30 60 H -1.396024 -0.559286 -5.672299 0
M  V30 61 H -3.130462 0.704332 -0.301529 0
M  V30 62 H -3.440842 1.359755 1.989728 0
M  V30 63 H 0.029857 1.849086 6.219880 0
M  V30 64 H 0.040902 0.268224 5.444803 0
M  V30 65 H 1.837169 0.883100 4.226622 0
M  V30 66 H 1.877066 2.457650 5.037613 0
M  V30 67 H 2.023879 -0.177254 1.780189 0
M  V30 END ATOM
M  V30 BEGIN BOND
M  V30 1 3 1 2
M  V30 2 1 2 3
M  V30 3 2 3 4
M  V30 4 1 4 5
M  V30 5 2 5 6
M  V30 6 1 6 7
M  V30 7 1 7 8
M  V30 8 2 8 9
M  V30 9 1 8 10
M  V30 10 1 10 11
M  V30 11 1 11 12
M  V30 12 1 12 13
M  V30 13 1 13 14
M  V30 14 1 14 15
M  V30 15 2 15 16
M  V30 16 1 16 17
M  V30 17 2 17 18
M  V30 18 1 18 19
M  V30 19 2 19 20
M  V30 20 1 20 21
M  V30 21 2 21 22
M  V30 22 1 22 23
M  V30 23 1 23 24
M  V30 24 2 24 25
M  V30 25 1 25 26
M  V30 26 2 26 27
M  V30 27 1 27 28
M  V30 28 2 28 29
M  V30 29 1 29 30
M  V30 30 1 30 31
M  V30 31 2 31 32
M  V30 32 1 32 33
M  V30 33 2 33 34
M  V30 34 1 34 35
M  V30 35 2 35 36
M  V30 36 1 18 37
M  V30 37 2 37 38
M  V30 38 1 13 39
M  V30 39 1 39 40
M  V30 40 2 7 41
M  V30 41 1 41 3
M  V30 42 1 40 10
M  V30 43 1 38 15
M  V30 44 1 23 19
M  V30 45 1 29 24
M  V30 46 1 36 31
M  V30 47 1 36 22
M  V30 48 1 4 42
M  V30 49 1 5 43
M  V30 50 1 6 44
M  V30 51 1 11 45
M  V30 52 1 11 46
M  V30 53 1 12 47
M  V30 54 1 12 48
M  V30 55 1 14 49
M  V30 56 1 14 50
M  V30 57 1 16 51
M  V30 58 1 17 52
M  V30 59 1 25 53
M  V30 60 1 26 54
M  V30 61 1 27 55
M  V30 62 1 30 56
M  V30 63 1 32 57
M  V30 64 1 33 58
M  V30 65 1 34 59
M  V30 66 1 35 60
M  V30 67 1 37 61
M  V30 68 1 38 62
M  V30 69 1 39 63
M  V30 70 1 39 64
M  V30 71 1 40 65
M  V30 72 1 40 66
M  V30 73 1 41 67
M  V30 END BOND
M  V30 END CTAB
M  END
>  <Dataset>  (22) 
ChEMBL_Kinases

>  <Ligand_Instance>  (22) 
nan

>  <PDB_ID>  (22) 
nan

>  <Standardized_SMILES>  (22) 
[C-]#[N+]c1cccc(C(=O)N2CCN(Cc3ccc(-c4nnc5n4-c4cccnc4Nc4ccccc4-5)cc3)CC2)c1

>  <Name>  (22) 
nan

>  <Pocket>  (22) 
nan

>  <ATP_Site>  (22) 
nan

>  <Peripheral>  (22) 
nan

>  <Num_H_Atoms_ProtBoundConf>  (22) 
nan

>  <Num_Resolved_Atoms>  (22) 
nan

>  <Num_Not_Resolved_Atoms>  (22) 
nan

$$$$
CHEMBL3684467
     RDKit          3D

  0  0  0  0  0  0  0  0  0  0999 V3000
M  V30 BEGIN CTAB
M  V30 COUNTS 69 76 0 0 0
M  V30 BEGIN ATOM
M  V30 1 O 3.068653 -2.094770 1.781119 0
M  V30 2 C 3.880637 -1.769028 0.853931 0
M  V30 3 C 4.781308 -0.688263 1.249219 0
M  V30 4 C 6.144909 -0.606511 1.433852 0
M  V30 5 C 6.711846 0.591851 1.808247 0
M  V30 6 C 5.936442 1.717931 2.003110 0
M  V30 7 C 4.554926 1.689921 1.830911 0
M  V30 8 C 4.009847 0.465467 1.452029 0
M  V30 9 O 4.105647 2.968542 2.106494 0
M  V30 10 C 5.192203 3.888516 2.052195 0
M  V30 11 O 6.277694 3.015723 2.375665 0
M  V30 12 N 3.862518 -2.422388 -0.418342 0
M  V30 13 C 4.675941 -2.265505 -1.618332 0
M  V30 14 C 3.798339 -2.134887 -2.852760 0
M  V30 15 N 2.429372 -1.957518 -2.522465 0
M  V30 16 C 1.716705 -0.868186 -3.006426 0
M  V30 17 C 0.372749 -0.674803 -2.401089 0
M  V30 18 C -0.871199 -1.132691 -2.746808 0
M  V30 19 C -1.952020 -0.792875 -1.975019 0
M  V30 20 C -1.864327 0.010305 -0.829876 0
M  V30 21 C -2.976939 0.408419 -0.008034 0
M  V30 22 N -3.182982 1.758377 -0.022420 0
M  V30 23 N -4.251583 2.059173 0.729424 0
M  V30 24 C -4.739677 0.916165 1.230487 0
M  V30 25 N -3.948063 -0.061060 0.770019 0
M  V30 26 C -4.037171 -1.445942 1.009614 0
M  V30 27 C -2.821281 -2.047525 0.841059 0
M  V30 28 C -2.724330 -3.416126 0.983208 0
M  V30 29 C -3.911580 -4.070211 1.296839 0
M  V30 30 N -5.137263 -3.509605 1.477229 0
M  V30 31 C -5.163721 -2.163016 1.323038 0
M  V30 32 N -6.494080 -1.663942 1.605588 0
M  V30 33 C -6.699063 -0.346258 2.176778 0
M  V30 34 C -7.850320 -0.346754 2.960244 0
M  V30 35 C -8.177651 0.834501 3.590407 0
M  V30 36 C -7.401173 1.976941 3.455350 0
M  V30 37 C -6.258738 1.996374 2.684381 0
M  V30 38 C -5.933881 0.821682 2.057784 0
M  V30 39 C -0.576650 0.472642 -0.490079 0
M  V30 40 C 0.517415 0.133067 -1.265342 0
M  V30 41 C 1.850434 -2.925276 -1.687875 0
M  V30 42 C 2.821442 -3.423769 -0.617027 0
M  V30 43 H 6.591911 -1.569573 1.241654 0
M  V30 44 H 7.775075 0.556595 1.927360 0
M  V30 45 H 2.922965 0.565775 1.346933 0
M  V30 46 H 5.036695 4.663470 2.841187 0
M  V30 47 H 5.336375 4.321403 1.039835 0
M  V30 48 H 5.324144 -1.389494 -1.527229 0
M  V30 49 H 5.338194 -3.139729 -1.742291 0
M  V30 50 H 4.217134 -1.333483 -3.488249 0
M  V30 51 H 3.891041 -3.083656 -3.418114 0
M  V30 52 H 1.510946 -1.046830 -4.108310 0
M  V30 53 H 2.336751 0.049709 -3.011667 0
M  V30 54 H -0.856666 -1.734905 -3.629834 0
M  V30 55 H -2.921552 -1.161129 -2.266260 0
M  V30 56 H -1.860304 -1.646556 0.651091 0
M  V30 57 H -1.831712 -4.046111 0.880851 0
M  V30 58 H -3.937272 -5.154284 1.429594 0
M  V30 59 H -7.316382 -2.263183 1.409221 0
M  V30 60 H -8.414728 -1.271421 3.022322 0
M  V30 61 H -9.069256 0.855736 4.203468 0
M  V30 62 H -7.660634 2.905408 3.950746 0
M  V30 63 H -5.586711 2.820176 2.510631 0
M  V30 64 H -0.510664 1.102706 0.409429 0
M  V30 65 H 1.442042 0.575572 -0.859100 0
M  V30 66 H 1.480927 -3.759133 -2.325669 0
M  V30 67 H 0.975541 -2.513577 -1.153921 0
M  V30 68 H 3.310241 -4.323161 -1.031418 0
M  V30 69 H 2.349401 -3.684791 0.325738 0
M  V30 END ATOM
M  V30 BEGIN BOND
M  V30 1 2 1 2
M  V30 2 1 2 3
M  V30 3 2 3 4
M  V30 4 1 4 5
M  V30 5 2 5 6
M  V30 6 1 6 7
M  V30 7 2 7 8
M  V30 8 1 7 9
M  V30 9 1 9 10
M  V30 10 1 10 11
M  V30 11 1 2 12
M  V30 12 1 12 13
M  V30 13 1 13 14
M  V30 14 1 14 15
M  V30 15 1 15 16
M  V30 16 1 16 17
M  V30 17 2 17 18
M  V30 18 1 18 19
M  V30 19 2 19 20
M  V30 20 1 20 21
M  V30 21 2 21 22
M  V30 22 1 22 23
M  V30 23 2 23 24
M  V30 24 1 24 25
M  V30 25 1 25 26
M  V30 26 2 26 27
M  V30 27 1 27 28
M  V30 28 2 28 29
M  V30 29 1 29 30
M  V30 30 2 30 31
M  V30 31 1 31 32
M  V30 32 1 32 33
M  V30 33 2 33 34
M  V30 34 1 34 35
M  V30 35 2 35 36
M  V30 36 1 36 37
M  V30 37 2 37 38
M  V30 38 1 20 39
M  V30 39 2 39 40
M  V30 40 1 15 41
M  V30 41 1 41 42
M  V30 42 1 8 3
M  V30 43 1 42 12
M  V30 44 1 11 6
M  V30 45 1 40 17
M  V30 46 1 25 21
M  V30 47 1 31 26
M  V30 48 1 38 33
M  V30 49 1 38 24
M  V30 50 1 4 43
M  V30 51 1 5 44
M  V30 52 1 8 45
M  V30 53 1 10 46
M  V30 54 1 10 47
M  V30 55 1 13 48
M  V30 56 1 13 49
M  V30 57 1 14 50
M  V30 58 1 14 51
M  V30 59 1 16 52
M  V30 60 1 16 53
M  V30 61 1 18 54
M  V30 62 1 19 55
M  V30 63 1 27 56
M  V30 64 1 28 57
M  V30 65 1 29 58
M  V30 66 1 32 59
M  V30 67 1 34 60
M  V30 68 1 35 61
M  V30 69 1 36 62
M  V30 70 1 37 63
M  V30 71 1 39 64
M  V30 72 1 40 65
M  V30 73 1 41 66
M  V30 74 1 41 67
M  V30 75 1 42 68
M  V30 76 1 42 69
M  V30 END BOND
M  V30 END CTAB
M  END
>  <Dataset>  (23) 
ChEMBL_Kinases

>  <Ligand_Instance>  (23) 
nan

>  <PDB_ID>  (23) 
nan

>  <Standardized_SMILES>  (23) 
O=C(c1ccc2c(c1)OCO2)N1CCN(Cc2ccc(-c3nnc4n3-c3cccnc3Nc3ccccc3-4)cc2)CC1

>  <Name>  (23) 
nan

>  <Pocket>  (23) 
nan

>  <ATP_Site>  (23) 
nan

>  <Peripheral>  (23) 
nan

>  <Num_H_Atoms_ProtBoundConf>  (23) 
nan

>  <Num_Resolved_Atoms>  (23) 
nan

>  <Num_Not_Resolved_Atoms>  (23) 
nan

$$$$
CHEMBL3684466
     RDKit          3D

  0  0  0  0  0  0  0  0  0  0999 V3000
M  V30 BEGIN CTAB
M  V30 COUNTS 70 76 0 0 0
M  V30 BEGIN ATOM
M  V30 1 O 0.723626 -0.219251 3.578178 0
M  V30 2 S 2.017482 0.511639 3.904926 0
M  V30 3 O 2.357038 0.085280 5.317595 0
M  V30 4 N 1.717467 2.183637 3.952491 0
M  V30 5 C 1.254103 2.742910 2.730636 0
M  V30 6 C -0.121787 3.365615 3.030456 0
M  V30 7 C -0.720070 3.573573 1.625331 0
M  V30 8 N 0.280122 3.695651 0.657969 0
M  V30 9 C -0.145517 3.563308 -0.668622 0
M  V30 10 C -0.693306 2.218235 -0.997619 0
M  V30 11 C 0.317897 1.362841 -1.452890 0
M  V30 12 C 0.032220 0.063413 -1.807059 0
M  V30 13 C -1.276199 -0.451570 -1.725867 0
M  V30 14 C -1.533259 -1.789478 -2.129808 0
M  V30 15 N -1.261178 -2.014699 -3.448215 0
M  V30 16 N -1.566200 -3.272682 -3.772517 0
M  V30 17 C -2.036699 -3.870746 -2.670888 0
M  V30 18 N -2.004817 -2.957017 -1.690001 0
M  V30 19 C -2.391568 -3.094899 -0.343123 0
M  V30 20 C -1.726703 -2.187220 0.432636 0
M  V30 21 C -2.028495 -2.148046 1.781611 0
M  V30 22 C -2.995303 -3.047504 2.251154 0
M  V30 23 N -3.657073 -3.957402 1.475184 0
M  V30 24 C -3.329000 -3.963908 0.146662 0
M  V30 25 N -4.048736 -5.021039 -0.534305 0
M  V30 26 C -3.448479 -5.689657 -1.671077 0
M  V30 27 C -3.912938 -7.009663 -1.721522 0
M  V30 28 C -3.429214 -7.805788 -2.738828 0
M  V30 29 C -2.517518 -7.332834 -3.685342 0
M  V30 30 C -2.052258 -6.029791 -3.644971 0
M  V30 31 C -2.534361 -5.238359 -2.632515 0
M  V30 32 C -2.251761 0.430450 -1.269237 0
M  V30 33 C -1.980396 1.734501 -0.911137 0
M  V30 34 C 1.471165 4.371189 0.923749 0
M  V30 35 C 2.111929 3.877258 2.218347 0
M  V30 36 C 3.252025 0.028727 2.774892 0
M  V30 37 C 2.789531 -0.266803 1.484408 0
M  V30 38 C 3.677591 -0.664406 0.496359 0
M  V30 39 C 5.036957 -0.768830 0.788183 0
M  V30 40 C 5.483065 -0.475706 2.059246 0
M  V30 41 F 6.809312 -0.565500 2.398534 0
M  V30 42 C 4.615765 -0.077841 3.061122 0
M  V30 43 H 2.429356 2.740019 4.451308 0
M  V30 44 H 1.159286 2.009798 1.902780 0
M  V30 45 H -0.702522 2.620854 3.569309 0
M  V30 46 H 0.047019 4.319347 3.544733 0
M  V30 47 H -1.339741 4.497387 1.628749 0
M  V30 48 H -1.335651 2.679571 1.426300 0
M  V30 49 H 0.607558 3.861532 -1.438325 0
M  V30 50 H -1.005679 4.277514 -0.842992 0
M  V30 51 H 1.380999 1.628805 -1.566752 0
M  V30 52 H 0.804204 -0.632573 -2.167288 0
M  V30 53 H -0.955199 -1.496822 0.221013 0
M  V30 54 H -1.606480 -1.500184 2.535269 0
M  V30 55 H -3.278841 -3.064082 3.293708 0
M  V30 56 H -4.972264 -5.300305 -0.198589 0
M  V30 57 H -4.620040 -7.324827 -0.967828 0
M  V30 58 H -3.776448 -8.830432 -2.795070 0
M  V30 59 H -2.138262 -7.948807 -4.478556 0
M  V30 60 H -1.360575 -5.555901 -4.306050 0
M  V30 61 H -3.270191 0.094831 -1.185498 0
M  V30 62 H -2.671337 2.470327 -0.552857 0
M  V30 63 H 1.264469 5.457415 1.041266 0
M  V30 64 H 2.259659 4.248072 0.130569 0
M  V30 65 H 2.185324 4.702921 2.966746 0
M  V30 66 H 3.143552 3.540307 2.038447 0
M  V30 67 H 1.735375 -0.202307 1.198347 0
M  V30 68 H 3.366964 -0.902240 -0.512521 0
M  V30 69 H 5.757921 -1.081858 0.021904 0
M  V30 70 H 4.888855 0.169726 4.086256 0
M  V30 END ATOM
M  V30 BEGIN BOND
M  V30 1 2 1 2
M  V30 2 2 2 3
M  V30 3 1 2 4
M  V30 4 1 4 5
M  V30 5 1 5 6
M  V30 6 1 6 7
M  V30 7 1 7 8
M  V30 8 1 8 9
M  V30 9 1 9 10
M  V30 10 2 10 11
M  V30 11 1 11 12
M  V30 12 2 12 13
M  V30 13 1 13 14
M  V30 14 2 14 15
M  V30 15 1 15 16
M  V30 16 2 16 17
M  V30 17 1 17 18
M  V30 18 1 18 19
M  V30 19 2 19 20
M  V30 20 1 20 21
M  V30 21 2 21 22
M  V30 22 1 22 23
M  V30 23 2 23 24
M  V30 24 1 24 25
M  V30 25 1 25 26
M  V30 26 2 26 27
M  V30 27 1 27 28
M  V30 28 2 28 29
M  V30 29 1 29 30
M  V30 30 2 30 31
M  V30 31 1 13 32
M  V30 32 2 32 33
M  V30 33 1 8 34
M  V30 34 1 34 35
M  V30 35 1 2 36
M  V30 36 2 36 37
M  V30 37 1 37 38
M  V30 38 2 38 39
M  V30 39 1 39 40
M  V30 40 1 40 41
M  V30 41 2 40 42
M  V30 42 1 35 5
M  V30 43 1 42 36
M  V30 44 1 33 10
M  V30 45 1 18 14
M  V30 46 1 24 19
M  V30 47 1 31 26
M  V30 48 1 31 17
M  V30 49 1 4 43
M  V30 50 1 5 44
M  V30 51 1 6 45
M  V30 52 1 6 46
M  V30 53 1 7 47
M  V30 54 1 7 48
M  V30 55 1 9 49
M  V30 56 1 9 50
M  V30 57 1 11 51
M  V30 58 1 12 52
M  V30 59 1 20 53
M  V30 60 1 21 54
M  V30 61 1 22 55
M  V30 62 1 25 56
M  V30 63 1 27 57
M  V30 64 1 28 58
M  V30 65 1 29 59
M  V30 66 1 30 60
M  V30 67 1 32 61
M  V30 68 1 33 62
M  V30 69 1 34 63
M  V30 70 1 34 64
M  V30 71 1 35 65
M  V30 72 1 35 66
M  V30 73 1 37 67
M  V30 74 1 38 68
M  V30 75 1 39 69
M  V30 76 1 42 70
M  V30 END BOND
M  V30 END CTAB
M  END
>  <Dataset>  (24) 
ChEMBL_Kinases

>  <Ligand_Instance>  (24) 
nan

>  <PDB_ID>  (24) 
nan

>  <Standardized_SMILES>  (24) 
O=S(=O)(NC1CCN(Cc2ccc(-c3nnc4n3-c3cccnc3Nc3ccccc3-4)cc2)CC1)c1cccc(F)c1

>  <Name>  (24) 
nan

>  <Pocket>  (24) 
nan

>  <ATP_Site>  (24) 
nan

>  <Peripheral>  (24) 
nan

>  <Num_H_Atoms_ProtBoundConf>  (24) 
nan

>  <Num_Resolved_Atoms>  (24) 
nan

>  <Num_Not_Resolved_Atoms>  (24) 
nan

$$$$
CHEMBL3684465
     RDKit          3D

  0  0  0  0  0  0  0  0  0  0999 V3000
M  V30 BEGIN CTAB
M  V30 COUNTS 76 83 0 0 0
M  V30 BEGIN ATOM
M  V30 1 O 4.074267 -4.568398 2.033474 0
M  V30 2 S 3.335557 -3.364787 1.500723 0
M  V30 3 O 1.890913 -3.452191 1.942030 0
M  V30 4 N 3.392831 -3.440966 -0.232376 0
M  V30 5 C 2.693731 -2.326820 -0.820681 0
M  V30 6 C 1.502696 -2.736481 -1.659623 0
M  V30 7 C 1.672780 -2.336364 -3.107554 0
M  V30 8 N 2.038379 -0.982231 -3.321336 0
M  V30 9 C 1.078475 -0.130054 -3.933398 0
M  V30 10 C -0.171836 0.053537 -3.176547 0
M  V30 11 C -0.205454 1.089868 -2.243252 0
M  V30 12 C -1.320527 1.361786 -1.481709 0
M  V30 13 C -2.483097 0.581254 -1.629785 0
M  V30 14 C -3.680355 0.861122 -0.871552 0
M  V30 15 N -4.179718 2.110595 -1.113018 0
M  V30 16 N -5.315955 2.274144 -0.411492 0
M  V30 17 C -5.542462 1.159486 0.263967 0
M  V30 18 N -4.539635 0.316065 -0.024533 0
M  V30 19 C -4.318340 -0.994546 0.445573 0
M  V30 20 C -2.985445 -1.299788 0.392577 0
M  V30 21 C -2.608542 -2.574641 0.769541 0
M  V30 22 C -3.620845 -3.450016 1.177913 0
M  V30 23 N -4.955747 -3.158583 1.240215 0
M  V30 24 C -5.283558 -1.886824 0.858323 0
M  V30 25 N -6.702646 -1.668382 1.037456 0
M  V30 26 C -7.207645 -0.354862 1.388687 0
M  V30 27 C -8.364485 -0.500583 2.158242 0
M  V30 28 C -8.972897 0.656148 2.598222 0
M  V30 29 C -8.457924 1.912820 2.289643 0
M  V30 30 C -7.319402 2.072891 1.531681 0
M  V30 31 C -6.712483 0.923142 1.092308 0
M  V30 32 C -2.395459 -0.449870 -2.584064 0
M  V30 33 C -1.290343 -0.731573 -3.349660 0
M  V30 34 C 2.735351 -0.360966 -2.214208 0
M  V30 35 C 3.631030 -1.422453 -1.611800 0
M  V30 36 C 4.092374 -1.947642 2.141037 0
M  V30 37 C 3.389426 -0.769584 2.385970 0
M  V30 38 C 3.944958 0.388424 2.892542 0
M  V30 39 C 5.302696 0.376770 3.178245 0
M  V30 40 C 6.022466 -0.773476 2.946215 0
M  V30 41 C 5.452152 -1.911000 2.443465 0
M  V30 42 O 7.374041 -0.634218 3.281215 0
M  V30 43 C 8.062138 0.596345 3.161030 0
M  V30 44 C 7.269116 1.788369 3.587902 0
M  V30 45 O 5.882822 1.519350 3.684781 0
M  V30 46 H 4.377513 -3.533724 -0.552315 0
M  V30 47 H 2.297559 -1.705726 0.008822 0
M  V30 48 H 1.450593 -3.842745 -1.628263 0
M  V30 49 H 0.562818 -2.329128 -1.282322 0
M  V30 50 H 0.756806 -2.639508 -3.647267 0
M  V30 51 H 2.497307 -2.967373 -3.536389 0
M  V30 52 H 1.559071 0.882557 -4.034848 0
M  V30 53 H 0.841428 -0.414090 -4.985984 0
M  V30 54 H 0.608556 1.782031 -2.012381 0
M  V30 55 H -1.397986 2.148603 -0.748705 0
M  V30 56 H -2.135331 -0.717329 0.151633 0
M  V30 57 H -1.615677 -3.009069 0.796404 0
M  V30 58 H -3.395018 -4.461140 1.483426 0
M  V30 59 H -7.358723 -2.462601 0.928905 0
M  V30 60 H -8.713992 -1.498180 2.360681 0
M  V30 61 H -9.852878 0.567601 3.185133 0
M  V30 62 H -8.930311 2.831379 2.632934 0
M  V30 63 H -6.837244 2.989472 1.234719 0
M  V30 64 H -3.312708 -1.050226 -2.687823 0
M  V30 65 H -1.301950 -1.532972 -4.058715 0
M  V30 66 H 1.945418 -0.121811 -1.454858 0
M  V30 67 H 3.259184 0.533594 -2.555017 0
M  V30 68 H 4.109002 -1.960080 -2.465248 0
M  V30 69 H 4.400206 -1.019676 -0.945089 0
M  V30 70 H 2.336826 -0.708705 2.183702 0
M  V30 71 H 3.360766 1.273894 3.065300 0
M  V30 72 H 6.074627 -2.768069 2.289280 0
M  V30 73 H 9.019276 0.485984 3.708015 0
M  V30 74 H 8.333267 0.710001 2.076217 0
M  V30 75 H 7.602790 2.084997 4.609560 0
M  V30 76 H 7.488011 2.657395 2.931556 0
M  V30 END ATOM
M  V30 BEGIN BOND
M  V30 1 2 1 2
M  V30 2 2 2 3
M  V30 3 1 2 4
M  V30 4 1 4 5
M  V30 5 1 5 6
M  V30 6 1 6 7
M  V30 7 1 7 8
M  V30 8 1 8 9
M  V30 9 1 9 10
M  V30 10 2 10 11
M  V30 11 1 11 12
M  V30 12 2 12 13
M  V30 13 1 13 14
M  V30 14 2 14 15
M  V30 15 1 15 16
M  V30 16 2 16 17
M  V30 17 1 17 18
M  V30 18 1 18 19
M  V30 19 2 19 20
M  V30 20 1 20 21
M  V30 21 2 21 22
M  V30 22 1 22 23
M  V30 23 2 23 24
M  V30 24 1 24 25
M  V30 25 1 25 26
M  V30 26 2 26 27
M  V30 27 1 27 28
M  V30 28 2 28 29
M  V30 29 1 29 30
M  V30 30 2 30 31
M  V30 31 1 13 32
M  V30 32 2 32 33
M  V30 33 1 8 34
M  V30 34 1 34 35
M  V30 35 1 2 36
M  V30 36 2 36 37
M  V30 37 1 37 38
M  V30 38 2 38 39
M  V30 39 1 39 40
M  V30 40 2 40 41
M  V30 41 1 40 42
M  V30 42 1 42 43
M  V30 43 1 43 44
M  V30 44 1 44 45
M  V30 45 1 35 5
M  V30 46 1 41 36
M  V30 47 1 33 10
M  V30 48 1 45 39
M  V30 49 1 18 14
M  V30 50 1 24 19
M  V30 51 1 31 26
M  V30 52 1 31 17
M  V30 53 1 4 46
M  V30 54 1 5 47
M  V30 55 1 6 48
M  V30 56 1 6 49
M  V30 57 1 7 50
M  V30 58 1 7 51
M  V30 59 1 9 52
M  V30 60 1 9 53
M  V30 61 1 11 54
M  V30 62 1 12 55
M  V30 63 1 20 56
M  V30 64 1 21 57
M  V30 65 1 22 58
M  V30 66 1 25 59
M  V30 67 1 27 60
M  V30 68 1 28 61
M  V30 69 1 29 62
M  V30 70 1 30 63
M  V30 71 1 32 64
M  V30 72 1 33 65
M  V30 73 1 34 66
M  V30 74 1 34 67
M  V30 75 1 35 68
M  V30 76 1 35 69
M  V30 77 1 37 70
M  V30 78 1 38 71
M  V30 79 1 41 72
M  V30 80 1 43 73
M  V30 81 1 43 74
M  V30 82 1 44 75
M  V30 83 1 44 76
M  V30 END BOND
M  V30 END CTAB
M  END
>  <Dataset>  (25) 
ChEMBL_Kinases

>  <Ligand_Instance>  (25) 
nan

>  <PDB_ID>  (25) 
nan

>  <Standardized_SMILES>  (25) 
O=S(=O)(NC1CCN(Cc2ccc(-c3nnc4n3-c3cccnc3Nc3ccccc3-4)cc2)CC1)c1ccc2c(c1)OCCO2

>  <Name>  (25) 
nan

>  <Pocket>  (25) 
nan

>  <ATP_Site>  (25) 
nan

>  <Peripheral>  (25) 
nan

>  <Num_H_Atoms_ProtBoundConf>  (25) 
nan

>  <Num_Resolved_Atoms>  (25) 
nan

>  <Num_Not_Resolved_Atoms>  (25) 
nan

$$$$
CHEMBL3684464
     RDKit          3D

  0  0  0  0  0  0  0  0  0  0999 V3000
M  V30 BEGIN CTAB
M  V30 COUNTS 75 81 0 0 0
M  V30 BEGIN ATOM
M  V30 1 C 4.052659 1.444484 2.450855 0
M  V30 2 C 3.848875 0.172420 1.752953 0
M  V30 3 O 3.619583 -0.784364 2.527566 0
M  V30 4 C 3.884287 -0.078604 0.321204 0
M  V30 5 C 3.670102 -1.345530 -0.139602 0
M  V30 6 C 3.703131 -1.604087 -1.502625 0
M  V30 7 C 3.949553 -0.616499 -2.463581 0
M  V30 8 S 3.955898 -1.136798 -4.119818 0
M  V30 9 O 5.039868 -0.385742 -4.846140 0
M  V30 10 O 4.340933 -2.604895 -4.223590 0
M  V30 11 N 2.445005 -0.971826 -4.913515 0
M  V30 12 C 1.411052 -1.763085 -4.291423 0
M  V30 13 C 0.218710 -0.904897 -3.936653 0
M  V30 14 C -1.014315 -1.798800 -3.859593 0
M  V30 15 N -0.576474 -3.074572 -3.413661 0
M  V30 16 C -1.474551 -3.832761 -2.616552 0
M  V30 17 C -1.901473 -3.111735 -1.414025 0
M  V30 18 C -1.158639 -3.140659 -0.249525 0
M  V30 19 C -1.646391 -2.454553 0.839849 0
M  V30 20 C -2.848494 -1.716747 0.875369 0
M  V30 21 C -3.202585 -1.099758 2.133593 0
M  V30 22 N -4.331401 -1.628451 2.693582 0
M  V30 23 N -4.563093 -1.039112 3.878033 0
M  V30 24 C -3.598786 -0.140514 4.084270 0
M  V30 25 N -2.792027 -0.194105 3.015839 0
M  V30 26 C -1.632288 0.560812 2.750435 0
M  V30 27 C -1.409485 0.638746 1.402866 0
M  V30 28 C -0.283378 1.305778 0.968325 0
M  V30 29 C 0.550482 1.858014 1.943948 0
M  V30 30 N 0.326689 1.783757 3.287258 0
M  V30 31 C -0.785963 1.122701 3.680766 0
M  V30 32 N -0.934466 1.185017 5.118317 0
M  V30 33 C -2.250619 1.215276 5.729750 0
M  V30 34 C -2.182559 1.944410 6.922790 0
M  V30 35 C -3.367638 2.079953 7.617559 0
M  V30 36 C -4.545561 1.525457 7.155248 0
M  V30 37 C -4.635718 0.804098 5.985645 0
M  V30 38 C -3.461045 0.665092 5.290396 0
M  V30 39 C -3.585536 -1.703855 -0.324494 0
M  V30 40 C -3.074609 -2.398543 -1.399215 0
M  V30 41 C 0.066828 -3.854036 -4.454388 0
M  V30 42 C 0.873459 -2.824772 -5.261077 0
M  V30 43 C 4.163007 0.655321 -1.982450 0
M  V30 44 C 4.125272 0.887189 -0.624550 0
M  V30 45 H 3.367461 1.548638 3.331942 0
M  V30 46 H 3.884200 2.306275 1.779423 0
M  V30 47 H 5.092701 1.540312 2.835394 0
M  V30 48 H 3.476857 -2.131405 0.579202 0
M  V30 49 H 3.520977 -2.661427 -1.748526 0
M  V30 50 H 2.186039 0.054030 -4.847185 0
M  V30 51 H 1.883687 -2.251993 -3.418727 0
M  V30 52 H 0.050183 -0.230475 -4.821824 0
M  V30 53 H 0.357624 -0.327170 -3.013002 0
M  V30 54 H -1.687359 -1.353747 -3.102551 0
M  V30 55 H -1.560365 -1.807502 -4.812338 0
M  V30 56 H -1.110035 -4.861829 -2.399665 0
M  V30 57 H -2.393467 -4.007560 -3.249968 0
M  V30 58 H -0.227377 -3.674215 -0.171221 0
M  V30 59 H -1.032956 -2.495125 1.754157 0
M  V30 60 H -1.979263 0.308813 0.575098 0
M  V30 61 H 0.035457 1.454648 -0.058222 0
M  V30 62 H 1.451172 2.394738 1.649808 0
M  V30 63 H -0.091382 1.223389 5.708817 0
M  V30 64 H -1.236844 2.338884 7.215404 0
M  V30 65 H -3.350340 2.637724 8.544860 0
M  V30 66 H -5.479847 1.640538 7.714807 0
M  V30 67 H -5.491303 0.339935 5.548182 0
M  V30 68 H -4.485094 -1.145698 -0.277666 0
M  V30 69 H -3.720842 -2.330116 -2.289489 0
M  V30 70 H -0.615152 -4.399009 -5.107403 0
M  V30 71 H 0.770184 -4.541563 -3.991215 0
M  V30 72 H 0.223930 -2.284811 -5.977326 0
M  V30 73 H 1.681106 -3.307266 -5.837943 0
M  V30 74 H 4.350493 1.398092 -2.735819 0
M  V30 75 H 4.297371 1.904549 -0.266092 0
M  V30 END ATOM
M  V30 BEGIN BOND
M  V30 1 1 1 2
M  V30 2 2 2 3
M  V30 3 1 2 4
M  V30 4 2 4 5
M  V30 5 1 5 6
M  V30 6 2 6 7
M  V30 7 1 7 8
M  V30 8 2 8 9
M  V30 9 2 8 10
M  V30 10 1 8 11
M  V30 11 1 11 12
M  V30 12 1 12 13
M  V30 13 1 13 14
M  V30 14 1 14 15
M  V30 15 1 15 16
M  V30 16 1 16 17
M  V30 17 2 17 18
M  V30 18 1 18 19
M  V30 19 2 19 20
M  V30 20 1 20 21
M  V30 21 2 21 22
M  V30 22 1 22 23
M  V30 23 2 23 24
M  V30 24 1 24 25
M  V30 25 1 25 26
M  V30 26 2 26 27
M  V30 27 1 27 28
M  V30 28 2 28 29
M  V30 29 1 29 30
M  V30 30 2 30 31
M  V30 31 1 31 32
M  V30 32 1 32 33
M  V30 33 2 33 34
M  V30 34 1 34 35
M  V30 35 2 35 36
M  V30 36 1 36 37
M  V30 37 2 37 38
M  V30 38 1 20 39
M  V30 39 2 39 40
M  V30 40 1 15 41
M  V30 41 1 41 42
M  V30 42 1 7 43
M  V30 43 2 43 44
M  V30 44 1 44 4
M  V30 45 1 42 12
M  V30 46 1 40 17
M  V30 47 1 25 21
M  V30 48 1 31 26
M  V30 49 1 38 33
M  V30 50 1 38 24
M  V30 51 1 1 45
M  V30 52 1 1 46
M  V30 53 1 1 47
M  V30 54 1 5 48
M  V30 55 1 6 49
M  V30 56 1 11 50
M  V30 57 1 12 51
M  V30 58 1 13 52
M  V30 59 1 13 53
M  V30 60 1 14 54
M  V30 61 1 14 55
M  V30 62 1 16 56
M  V30 63 1 16 57
M  V30 64 1 18 58
M  V30 65 1 19 59
M  V30 66 1 27 60
M  V30 67 1 28 61
M  V30 68 1 29 62
M  V30 69 1 32 63
M  V30 70 1 34 64
M  V30 71 1 35 65
M  V30 72 1 36 66
M  V30 73 1 37 67
M  V30 74 1 39 68
M  V30 75 1 40 69
M  V30 76 1 41 70
M  V30 77 1 41 71
M  V30 78 1 42 72
M  V30 79 1 42 73
M  V30 80 1 43 74
M  V30 81 1 44 75
M  V30 END BOND
M  V30 END CTAB
M  END
>  <Dataset>  (26) 
ChEMBL_Kinases

>  <Ligand_Instance>  (26) 
nan

>  <PDB_ID>  (26) 
nan

>  <Standardized_SMILES>  (26) 
CC(=O)c1ccc(S(=O)(=O)NC2CCN(Cc3ccc(-c4nnc5n4-c4cccnc4Nc4ccccc4-5)cc3)CC2)cc1

>  <Name>  (26) 
nan

>  <Pocket>  (26) 
nan

>  <ATP_Site>  (26) 
nan

>  <Peripheral>  (26) 
nan

>  <Num_H_Atoms_ProtBoundConf>  (26) 
nan

>  <Num_Resolved_Atoms>  (26) 
nan

>  <Num_Not_Resolved_Atoms>  (26) 
nan

$$$$
CHEMBL3684463
     RDKit          3D

  0  0  0  0  0  0  0  0  0  0999 V3000
M  V30 BEGIN CTAB
M  V30 COUNTS 72 77 0 0 0
M  V30 BEGIN ATOM
M  V30 1 C 3.545425 -4.971047 2.199980 0
M  V30 2 C 2.086570 -5.363365 2.185141 0
M  V30 3 C 1.368259 -4.557028 3.262620 0
M  V30 4 C 1.425230 -5.065182 0.868670 0
M  V30 5 S 2.279931 -5.987576 -0.406689 0
M  V30 6 O 3.690926 -5.472926 -0.446930 0
M  V30 7 O 2.345212 -7.442319 -0.100852 0
M  V30 8 N 1.562991 -5.685847 -1.953677 0
M  V30 9 C 1.669943 -4.301905 -2.283987 0
M  V30 10 C 2.532642 -4.097396 -3.506415 0
M  V30 11 C 2.684889 -2.616579 -3.769702 0
M  V30 12 N 1.934020 -1.806343 -2.873420 0
M  V30 13 C 2.328476 -0.465916 -2.712511 0
M  V30 14 C 1.533564 0.356383 -1.776106 0
M  V30 15 C 0.443263 1.051651 -2.258938 0
M  V30 16 C -0.230541 1.787379 -1.308344 0
M  V30 17 C 0.074592 1.895242 0.060962 0
M  V30 18 C -0.699110 2.732925 0.948092 0
M  V30 19 N 0.031179 3.748588 1.491813 0
M  V30 20 N -0.765838 4.509663 2.261562 0
M  V30 21 C -2.000360 3.990894 2.215825 0
M  V30 22 N -1.933314 2.915943 1.418325 0
M  V30 23 C -2.955627 2.018262 1.047613 0
M  V30 24 C -2.425485 0.802161 0.717791 0
M  V30 25 C -3.304679 -0.166079 0.279768 0
M  V30 26 C -4.660047 0.159239 0.207070 0
M  V30 27 N -5.184818 1.374347 0.541623 0
M  V30 28 C -4.301042 2.305275 0.968063 0
M  V30 29 N -4.996704 3.512593 1.359829 0
M  V30 30 C -4.480682 4.342765 2.430491 0
M  V30 31 C -5.540204 4.972624 3.089755 0
M  V30 32 C -5.222286 5.791480 4.152648 0
M  V30 33 C -3.907254 5.986495 4.556102 0
M  V30 34 C -2.845759 5.379873 3.925080 0
M  V30 35 C -3.169325 4.567494 2.868721 0
M  V30 36 C 1.202595 1.147778 0.445526 0
M  V30 37 C 1.924103 0.389429 -0.452042 0
M  V30 38 C 0.571734 -2.148622 -2.699486 0
M  V30 39 C 0.335971 -3.601178 -2.389227 0
M  V30 40 H 3.813499 -4.741573 3.256243 0
M  V30 41 H 3.751967 -4.058200 1.614145 0
M  V30 42 H 4.188067 -5.820314 1.896722 0
M  V30 43 H 2.022875 -6.440143 2.386273 0
M  V30 44 H 1.531196 -3.482448 3.068786 0
M  V30 45 H 1.854119 -4.808636 4.246849 0
M  V30 46 H 0.291654 -4.807970 3.278524 0
M  V30 47 H 1.521871 -4.007964 0.584244 0
M  V30 48 H 0.377319 -5.421446 0.941676 0
M  V30 49 H 0.629169 -6.094066 -2.049967 0
M  V30 50 H 2.198651 -3.794628 -1.430420 0
M  V30 51 H 2.147467 -4.649562 -4.381685 0
M  V30 52 H 3.539033 -4.491449 -3.230041 0
M  V30 53 H 2.363850 -2.433221 -4.833912 0
M  V30 54 H 3.745677 -2.299134 -3.715400 0
M  V30 55 H 2.338465 0.058120 -3.696969 0
M  V30 56 H 3.405745 -0.452920 -2.388073 0
M  V30 57 H 0.108582 1.054649 -3.265658 0
M  V30 58 H -1.101333 2.361087 -1.618998 0
M  V30 59 H -1.440956 0.421043 0.773204 0
M  V30 60 H -3.044180 -1.179351 -0.021401 0
M  V30 61 H -5.389745 -0.562876 -0.131746 0
M  V30 62 H -5.868883 3.775959 0.889514 0
M  V30 63 H -6.537757 4.778562 2.722184 0
M  V30 64 H -6.029953 6.285643 4.672785 0
M  V30 65 H -3.659201 6.634324 5.397269 0
M  V30 66 H -1.798659 5.462468 4.154404 0
M  V30 67 H 1.479630 1.197073 1.490075 0
M  V30 68 H 2.789931 -0.169106 -0.094660 0
M  V30 69 H 0.045624 -1.919773 -3.650188 0
M  V30 70 H 0.125951 -1.469324 -1.952631 0
M  V30 71 H -0.194316 -3.733911 -1.433184 0
M  V30 72 H -0.271531 -4.098218 -3.172078 0
M  V30 END ATOM
M  V30 BEGIN BOND
M  V30 1 1 1 2
M  V30 2 1 2 3
M  V30 3 1 2 4
M  V30 4 1 4 5
M  V30 5 2 5 6
M  V30 6 2 5 7
M  V30 7 1 5 8
M  V30 8 1 8 9
M  V30 9 1 9 10
M  V30 10 1 10 11
M  V30 11 1 11 12
M  V30 12 1 12 13
M  V30 13 1 13 14
M  V30 14 2 14 15
M  V30 15 1 15 16
M  V30 16 2 16 17
M  V30 17 1 17 18
M  V30 18 2 18 19
M  V30 19 1 19 20
M  V30 20 2 20 21
M  V30 21 1 21 22
M  V30 22 1 22 23
M  V30 23 2 23 24
M  V30 24 1 24 25
M  V30 25 2 25 26
M  V30 26 1 26 27
M  V30 27 2 27 28
M  V30 28 1 28 29
M  V30 29 1 29 30
M  V30 30 2 30 31
M  V30 31 1 31 32
M  V30 32 2 32 33
M  V30 33 1 33 34
M  V30 34 2 34 35
M  V30 35 1 17 36
M  V30 36 2 36 37
M  V30 37 1 12 38
M  V30 38 1 38 39
M  V30 39 1 39 9
M  V30 40 1 37 14
M  V30 41 1 22 18
M  V30 42 1 28 23
M  V30 43 1 35 30
M  V30 44 1 35 21
M  V30 45 1 1 40
M  V30 46 1 1 41
M  V30 47 1 1 42
M  V30 48 1 2 43
M  V30 49 1 3 44
M  V30 50 1 3 45
M  V30 51 1 3 46
M  V30 52 1 4 47
M  V30 53 1 4 48
M  V30 54 1 8 49
M  V30 55 1 9 50
M  V30 56 1 10 51
M  V30 57 1 10 52
M  V30 58 1 11 53
M  V30 59 1 11 54
M  V30 60 1 13 55
M  V30 61 1 13 56
M  V30 62 1 15 57
M  V30 63 1 16 58
M  V30 64 1 24 59
M  V30 65 1 25 60
M  V30 66 1 26 61
M  V30 67 1 29 62
M  V30 68 1 31 63
M  V30 69 1 32 64
M  V30 70 1 33 65
M  V30 71 1 34 66
M  V30 72 1 36 67
M  V30 73 1 37 68
M  V30 74 1 38 69
M  V30 75 1 38 70
M  V30 76 1 39 71
M  V30 77 1 39 72
M  V30 END BOND
M  V30 END CTAB
M  END
>  <Dataset>  (27) 
ChEMBL_Kinases

>  <Ligand_Instance>  (27) 
nan

>  <PDB_ID>  (27) 
nan

>  <Standardized_SMILES>  (27) 
CC(C)CS(=O)(=O)NC1CCN(Cc2ccc(-c3nnc4n3-c3cccnc3Nc3ccccc3-4)cc2)CC1

>  <Name>  (27) 
nan

>  <Pocket>  (27) 
nan

>  <ATP_Site>  (27) 
nan

>  <Peripheral>  (27) 
nan

>  <Num_H_Atoms_ProtBoundConf>  (27) 
nan

>  <Num_Resolved_Atoms>  (27) 
nan

>  <Num_Not_Resolved_Atoms>  (27) 
nan

$$$$
CHEMBL3684462
     RDKit          3D

  0  0  0  0  0  0  0  0  0  0999 V3000
M  V30 BEGIN CTAB
M  V30 COUNTS 72 78 0 0 0
M  V30 BEGIN ATOM
M  V30 1 C 4.939989 -6.891223 1.485848 0
M  V30 2 C 3.527279 -6.491674 1.237950 0
M  V30 3 N 2.558735 -6.211500 1.879394 0
M  V30 4 C 1.383474 -5.881379 1.373525 0
M  V30 5 C 0.171048 -5.530995 2.197468 0
M  V30 6 C 1.268761 -5.859761 -0.035896 0
M  V30 7 S -0.083694 -5.483816 -1.013350 0
M  V30 8 O -1.336524 -5.764031 -0.241037 0
M  V30 9 O -0.130524 -6.307345 -2.271851 0
M  V30 10 N -0.075933 -3.776317 -1.360589 0
M  V30 11 C 1.140582 -3.479757 -2.093421 0
M  V30 12 C 0.877133 -2.946710 -3.471423 0
M  V30 13 C 1.093376 -1.456343 -3.571782 0
M  V30 14 N 2.385441 -1.033199 -3.161880 0
M  V30 15 C 2.574732 0.369133 -3.044113 0
M  V30 16 C 1.687298 1.036602 -2.050515 0
M  V30 17 C 2.183520 1.121146 -0.768524 0
M  V30 18 C 1.419154 1.722415 0.200301 0
M  V30 19 C 0.144920 2.256489 -0.069610 0
M  V30 20 C -0.637254 2.918453 0.950300 0
M  V30 21 N -0.033655 4.026361 1.477768 0
M  V30 22 N -0.833518 4.603505 2.367884 0
M  V30 23 C -1.949490 3.894096 2.432555 0
M  V30 24 N -1.818030 2.874219 1.572728 0
M  V30 25 C -2.718002 1.833284 1.271374 0
M  V30 26 C -2.044273 0.735584 0.811192 0
M  V30 27 C -2.811067 -0.343801 0.423252 0
M  V30 28 C -4.191247 -0.266305 0.518832 0
M  V30 29 N -4.849986 0.838871 0.985952 0
M  V30 30 C -4.090159 1.899363 1.366893 0
M  V30 31 N -4.916445 2.954340 1.907330 0
M  V30 32 C -4.411536 3.815292 2.956785 0
M  V30 33 C -5.479251 4.224621 3.763683 0
M  V30 34 C -5.175871 5.042237 4.830004 0
M  V30 35 C -3.867325 5.444154 5.094053 0
M  V30 36 C -2.805937 5.051443 4.310008 0
M  V30 37 C -3.107330 4.237762 3.248033 0
M  V30 38 C -0.260847 2.120806 -1.385842 0
M  V30 39 C 0.450865 1.531944 -2.404480 0
M  V30 40 C 3.024219 -1.837584 -2.179387 0
M  V30 41 C 2.054979 -2.585078 -1.294130 0
M  V30 42 S 2.897931 -6.326815 -0.563387 0
M  V30 43 H 5.498701 -7.021982 0.535077 0
M  V30 44 H 4.905746 -7.888290 1.952261 0
M  V30 45 H 5.458708 -6.167455 2.125294 0
M  V30 46 H -0.257265 -4.593530 1.775849 0
M  V30 47 H 0.400023 -5.354689 3.246275 0
M  V30 48 H -0.608104 -6.325935 2.068313 0
M  V30 49 H -0.891350 -3.614973 -1.996310 0
M  V30 50 H 1.669043 -4.448310 -2.193838 0
M  V30 51 H 1.469018 -3.507942 -4.209585 0
M  V30 52 H -0.208055 -3.121154 -3.697462 0
M  V30 53 H 0.326254 -0.895438 -3.001286 0
M  V30 54 H 0.954758 -1.182539 -4.639734 0
M  V30 55 H 3.627587 0.573172 -2.818418 0
M  V30 56 H 2.380424 0.825265 -4.060447 0
M  V30 57 H 3.110965 0.781118 -0.382610 0
M  V30 58 H 1.716413 1.843008 1.249483 0
M  V30 59 H -1.012344 0.523444 0.731643 0
M  V30 60 H -2.436054 -1.281036 0.037055 0
M  V30 61 H -4.822708 -1.087031 0.223577 0
M  V30 62 H -5.878101 3.075423 1.547286 0
M  V30 63 H -6.467743 3.882957 3.505879 0
M  V30 64 H -5.982426 5.379166 5.478792 0
M  V30 65 H -3.621711 6.090549 5.936303 0
M  V30 66 H -1.770854 5.297353 4.417552 0
M  V30 67 H -1.244699 2.519123 -1.652731 0
M  V30 68 H 0.077109 1.458324 -3.413586 0
M  V30 69 H 3.702844 -1.204851 -1.580575 0
M  V30 70 H 3.651073 -2.595761 -2.692626 0
M  V30 71 H 1.407046 -1.824090 -0.817277 0
M  V30 72 H 2.572437 -3.130514 -0.485415 0
M  V30 END ATOM
M  V30 BEGIN BOND
M  V30 1 1 1 2
M  V30 2 2 2 3
M  V30 3 1 3 4
M  V30 4 1 4 5
M  V30 5 2 4 6
M  V30 6 1 6 7
M  V30 7 2 7 8
M  V30 8 2 7 9
M  V30 9 1 7 10
M  V30 10 1 10 11
M  V30 11 1 11 12
M  V30 12 1 12 13
M  V30 13 1 13 14
M  V30 14 1 14 15
M  V30 15 1 15 16
M  V30 16 2 16 17
M  V30 17 1 17 18
M  V30 18 2 18 19
M  V30 19 1 19 20
M  V30 20 2 20 21
M  V30 21 1 21 22
M  V30 22 2 22 23
M  V30 23 1 23 24
M  V30 24 1 24 25
M  V30 25 2 25 26
M  V30 26 1 26 27
M  V30 27 2 27 28
M  V30 28 1 28 29
M  V30 29 2 29 30
M  V30 30 1 30 31
M  V30 31 1 31 32
M  V30 32 2 32 33
M  V30 33 1 33 34
M  V30 34 2 34 35
M  V30 35 1 35 36
M  V30 36 2 36 37
M  V30 37 1 19 38
M  V30 38 2 38 39
M  V30 39 1 14 40
M  V30 40 1 40 41
M  V30 41 1 6 42
M  V30 42 1 42 2
M  V30 43 1 41 11
M  V30 44 1 39 16
M  V30 45 1 24 20
M  V30 46 1 30 25
M  V30 47 1 37 32
M  V30 48 1 37 23
M  V30 49 1 1 43
M  V30 50 1 1 44
M  V30 51 1 1 45
M  V30 52 1 5 46
M  V30 53 1 5 47
M  V30 54 1 5 48
M  V30 55 1 10 49
M  V30 56 1 11 50
M  V30 57 1 12 51
M  V30 58 1 12 52
M  V30 59 1 13 53
M  V30 60 1 13 54
M  V30 61 1 15 55
M  V30 62 1 15 56
M  V30 63 1 17 57
M  V30 64 1 18 58
M  V30 65 1 26 59
M  V30 66 1 27 60
M  V30 67 1 28 61
M  V30 68 1 31 62
M  V30 69 1 33 63
M  V30 70 1 34 64
M  V30 71 1 35 65
M  V30 72 1 36 66
M  V30 73 1 38 67
M  V30 74 1 39 68
M  V30 75 1 40 69
M  V30 76 1 40 70
M  V30 77 1 41 71
M  V30 78 1 41 72
M  V30 END BOND
M  V30 END CTAB
M  END
>  <Dataset>  (28) 
ChEMBL_Kinases

>  <Ligand_Instance>  (28) 
nan

>  <PDB_ID>  (28) 
nan

>  <Standardized_SMILES>  (28) 
Cc1nc(C)c(S(=O)(=O)NC2CCN(Cc3ccc(-c4nnc5n4-c4cccnc4Nc4ccccc4-5)cc3)CC2)s1

>  <Name>  (28) 
nan

>  <Pocket>  (28) 
nan

>  <ATP_Site>  (28) 
nan

>  <Peripheral>  (28) 
nan

>  <Num_H_Atoms_ProtBoundConf>  (28) 
nan

>  <Num_Resolved_Atoms>  (28) 
nan

>  <Num_Not_Resolved_Atoms>  (28) 
nan

$$$$
CHEMBL3684461
     RDKit          3D

  0  0  0  0  0  0  0  0  0  0999 V3000
M  V30 BEGIN CTAB
M  V30 COUNTS 73 79 0 0 0
M  V30 BEGIN ATOM
M  V30 1 O 5.757213 -4.309287 -3.136188 0
M  V30 2 S 4.980833 -4.192860 -1.830718 0
M  V30 3 O 4.800420 -5.600678 -1.352307 0
M  V30 4 C 6.010182 -3.332327 -0.715224 0
M  V30 5 C 5.462117 -3.104098 0.624433 0
M  V30 6 C 5.683624 -4.086119 1.602813 0
M  V30 7 C 5.212237 -3.966191 2.890235 0
M  V30 8 C 4.495594 -2.856883 3.262208 0
M  V30 9 C 4.251934 -1.862393 2.333034 0
M  V30 10 C 4.736344 -2.021774 1.072082 0
M  V30 11 N 3.495283 -3.481604 -2.196974 0
M  V30 12 C 3.531363 -2.204558 -2.827668 0
M  V30 13 C 2.734341 -1.145054 -2.123165 0
M  V30 14 C 2.057500 -0.268924 -3.175470 0
M  V30 15 N 1.027379 -0.960987 -3.814571 0
M  V30 16 C -0.300226 -0.583516 -3.746032 0
M  V30 17 C -0.959651 -0.507328 -2.428632 0
M  V30 18 C -1.609791 -1.589931 -1.865922 0
M  V30 19 C -2.224116 -1.501620 -0.634355 0
M  V30 20 C -2.210001 -0.298918 0.095933 0
M  V30 21 C -2.789078 -0.094360 1.406399 0
M  V30 22 N -2.219720 -0.878765 2.371035 0
M  V30 23 N -2.777010 -0.591569 3.561010 0
M  V30 24 C -3.696118 0.368079 3.366272 0
M  V30 25 N -3.686829 0.649159 2.055228 0
M  V30 26 C -4.467881 1.575887 1.348873 0
M  V30 27 C -4.582136 1.198265 0.037416 0
M  V30 28 C -5.280940 2.037791 -0.807846 0
M  V30 29 C -5.824292 3.209709 -0.269692 0
M  V30 30 N -5.713106 3.583063 1.039075 0
M  V30 31 C -5.013678 2.723668 1.840663 0
M  V30 32 N -5.044179 3.209203 3.204898 0
M  V30 33 C -5.038109 2.279546 4.318839 0
M  V30 34 C -5.729684 2.820450 5.394002 0
M  V30 35 C -5.830032 2.049548 6.534541 0
M  V30 36 C -5.264002 0.792444 6.598554 0
M  V30 37 C -4.570357 0.223836 5.552346 0
M  V30 38 C -4.477011 0.999139 4.425671 0
M  V30 39 C -1.528020 0.754647 -0.545686 0
M  V30 40 C -0.898777 0.715401 -1.774880 0
M  V30 41 C 1.383049 -2.300542 -4.118488 0
M  V30 42 C 2.907385 -2.410763 -4.220571 0
M  V30 43 H 6.934649 -3.961511 -0.602390 0
M  V30 44 H 6.423135 -2.381258 -1.167607 0
M  V30 45 H 6.248631 -4.982618 1.347414 0
M  V30 46 H 5.412725 -4.746525 3.589682 0
M  V30 47 H 4.105380 -2.720780 4.264429 0
M  V30 48 H 3.683925 -0.979109 2.619115 0
M  V30 49 H 4.549771 -1.257783 0.363773 0
M  V30 50 H 2.846798 -4.122070 -2.652685 0
M  V30 51 H 4.599295 -1.909403 -2.942138 0
M  V30 52 H 1.925157 -1.540318 -1.502496 0
M  V30 53 H 3.411939 -0.455552 -1.567874 0
M  V30 54 H 1.810959 0.709375 -2.736497 0
M  V30 55 H 2.852821 -0.036462 -3.925389 0
M  V30 56 H -0.486850 0.398460 -4.267157 0
M  V30 57 H -0.924503 -1.306118 -4.348583 0
M  V30 58 H -1.651408 -2.538904 -2.384183 0
M  V30 59 H -2.749476 -2.303284 -0.134359 0
M  V30 60 H -4.268134 0.332526 -0.482196 0
M  V30 61 H -5.463574 1.898153 -1.854089 0
M  V30 62 H -6.377403 3.899747 -0.892163 0
M  V30 63 H -5.086598 4.226743 3.396034 0
M  V30 64 H -6.143761 3.811105 5.270459 0
M  V30 65 H -6.364509 2.453260 7.382841 0
M  V30 66 H -5.340698 0.172602 7.505275 0
M  V30 67 H -4.095838 -0.742957 5.507600 0
M  V30 68 H -1.509878 1.703834 0.017879 0
M  V30 69 H -0.422225 1.617533 -2.119015 0
M  V30 70 H 1.054556 -3.065864 -3.414352 0
M  V30 71 H 1.006661 -2.550859 -5.138402 0
M  V30 72 H 3.330051 -1.724396 -4.963285 0
M  V30 73 H 3.137083 -3.441982 -4.557687 0
M  V30 END ATOM
M  V30 BEGIN BOND
M  V30 1 2 1 2
M  V30 2 2 2 3
M  V30 3 1 2 4
M  V30 4 1 4 5
M  V30 5 2 5 6
M  V30 6 1 6 7
M  V30 7 2 7 8
M  V30 8 1 8 9
M  V30 9 2 9 10
M  V30 10 1 2 11
M  V30 11 1 11 12
M  V30 12 1 12 13
M  V30 13 1 13 14
M  V30 14 1 14 15
M  V30 15 1 15 16
M  V30 16 1 16 17
M  V30 17 2 17 18
M  V30 18 1 18 19
M  V30 19 2 19 20
M  V30 20 1 20 21
M  V30 21 2 21 22
M  V30 22 1 22 23
M  V30 23 2 23 24
M  V30 24 1 24 25
M  V30 25 1 25 26
M  V30 26 2 26 27
M  V30 27 1 27 28
M  V30 28 2 28 29
M  V30 29 1 29 30
M  V30 30 2 30 31
M  V30 31 1 31 32
M  V30 32 1 32 33
M  V30 33 2 33 34
M  V30 34 1 34 35
M  V30 35 2 35 36
M  V30 36 1 36 37
M  V30 37 2 37 38
M  V30 38 1 20 39
M  V30 39 2 39 40
M  V30 40 1 15 41
M  V30 41 1 41 42
M  V30 42 1 10 5
M  V30 43 1 42 12
M  V30 44 1 40 17
M  V30 45 1 25 21
M  V30 46 1 31 26
M  V30 47 1 38 33
M  V30 48 1 38 24
M  V30 49 1 4 43
M  V30 50 1 4 44
M  V30 51 1 6 45
M  V30 52 1 7 46
M  V30 53 1 8 47
M  V30 54 1 9 48
M  V30 55 1 10 49
M  V30 56 1 11 50
M  V30 57 1 12 51
M  V30 58 1 13 52
M  V30 59 1 13 53
M  V30 60 1 14 54
M  V30 61 1 14 55
M  V30 62 1 16 56
M  V30 63 1 16 57
M  V30 64 1 18 58
M  V30 65 1 19 59
M  V30 66 1 27 60
M  V30 67 1 28 61
M  V30 68 1 29 62
M  V30 69 1 32 63
M  V30 70 1 34 64
M  V30 71 1 35 65
M  V30 72 1 36 66
M  V30 73 1 37 67
M  V30 74 1 39 68
M  V30 75 1 40 69
M  V30 76 1 41 70
M  V30 77 1 41 71
M  V30 78 1 42 72
M  V30 79 1 42 73
M  V30 END BOND
M  V30 END CTAB
M  END
>  <Dataset>  (29) 
ChEMBL_Kinases

>  <Ligand_Instance>  (29) 
nan

>  <PDB_ID>  (29) 
nan

>  <Standardized_SMILES>  (29) 
O=S(=O)(Cc1ccccc1)NC1CCN(Cc2ccc(-c3nnc4n3-c3cccnc3Nc3ccccc3-4)cc2)CC1

>  <Name>  (29) 
nan

>  <Pocket>  (29) 
nan

>  <ATP_Site>  (29) 
nan

>  <Peripheral>  (29) 
nan

>  <Num_H_Atoms_ProtBoundConf>  (29) 
nan

>  <Num_Resolved_Atoms>  (29) 
nan

>  <Num_Not_Resolved_Atoms>  (29) 
nan

$$$$
CHEMBL3684460
     RDKit          3D

  0  0  0  0  0  0  0  0  0  0999 V3000
M  V30 BEGIN CTAB
M  V30 COUNTS 77 83 0 0 0
M  V30 BEGIN ATOM
M  V30 1 C 5.035244 -2.815788 4.280870 0
M  V30 2 C 4.791374 -1.832020 3.183096 0
M  V30 3 O 4.819117 -0.590792 3.430935 0
M  V30 4 N 4.521304 -2.235652 1.831099 0
M  V30 5 C 4.286709 -1.314572 0.774418 0
M  V30 6 C 5.223265 -0.753582 -0.065533 0
M  V30 7 C 4.852365 0.133456 -1.056457 0
M  V30 8 C 3.541417 0.509859 -1.267033 0
M  V30 9 S 2.995862 1.627338 -2.489920 0
M  V30 10 O 4.037201 2.700411 -2.746446 0
M  V30 11 O 1.789302 2.357224 -1.965806 0
M  V30 12 N 2.655495 0.848363 -3.983812 0
M  V30 13 C 1.609937 -0.121249 -3.871113 0
M  V30 14 C 0.471364 0.192140 -4.847768 0
M  V30 15 C -0.699889 -0.760240 -4.574219 0
M  V30 16 N -0.132429 -1.972480 -4.124541 0
M  V30 17 C -0.983232 -2.977477 -3.621647 0
M  V30 18 C -1.723128 -2.458935 -2.440588 0
M  V30 19 C -2.951383 -1.836032 -2.489059 0
M  V30 20 C -3.565524 -1.389578 -1.342318 0
M  V30 21 C -2.974923 -1.545849 -0.079233 0
M  V30 22 C -3.544471 -1.150107 1.189977 0
M  V30 23 N -4.685090 -1.815419 1.458246 0
M  V30 24 N -5.138279 -1.443155 2.669574 0
M  V30 25 C -4.269025 -0.527941 3.174638 0
M  V30 26 N -3.313338 -0.371459 2.245992 0
M  V30 27 C -2.180152 0.465833 2.269116 0
M  V30 28 C -1.783572 0.757053 0.994974 0
M  V30 29 C -0.648520 1.528076 0.848277 0
M  V30 30 C 0.005462 1.953140 2.011996 0
M  V30 31 N -0.403900 1.658345 3.283396 0
M  V30 32 C -1.516702 0.902977 3.390187 0
M  V30 33 N -1.867586 0.737367 4.781754 0
M  V30 34 C -3.254592 0.613258 5.184892 0
M  V30 35 C -3.443971 1.131894 6.454051 0
M  V30 36 C -4.715378 1.106928 6.989211 0
M  V30 37 C -5.768236 0.568866 6.254165 0
M  V30 38 C -5.630619 0.042127 4.992407 0
M  V30 39 C -4.353049 0.084709 4.496331 0
M  V30 40 C -1.724016 -2.188352 -0.102900 0
M  V30 41 C -1.089256 -2.643856 -1.234778 0
M  V30 42 C 1.072560 -2.407250 -4.744624 0
M  V30 43 C 2.188148 -1.466208 -4.326107 0
M  V30 44 C 2.592598 -0.062519 -0.411349 0
M  V30 45 C 2.943742 -0.962787 0.599060 0
M  V30 46 H 5.382470 -3.787250 3.902354 0
M  V30 47 H 4.074559 -3.025863 4.809676 0
M  V30 48 H 5.725321 -2.428623 5.032794 0
M  V30 49 H 4.518859 -3.286279 1.720103 0
M  V30 50 H 6.232125 -1.048031 0.101579 0
M  V30 51 H 5.595241 0.565931 -1.708273 0
M  V30 52 H 2.577293 1.526692 -4.746684 0
M  V30 53 H 1.255172 -0.152905 -2.835796 0
M  V30 54 H 0.825684 0.040480 -5.866352 0
M  V30 55 H 0.207982 1.246291 -4.705470 0
M  V30 56 H -1.250730 -0.289624 -3.724292 0
M  V30 57 H -1.372365 -0.826576 -5.436271 0
M  V30 58 H -0.373272 -3.867882 -3.352493 0
M  V30 59 H -1.707182 -3.375672 -4.391450 0
M  V30 60 H -3.415106 -1.710130 -3.450118 0
M  V30 61 H -4.522413 -0.900368 -1.344286 0
M  V30 62 H -2.204849 0.543356 0.049453 0
M  V30 63 H -0.185775 1.855437 -0.089680 0
M  V30 64 H 0.894343 2.553434 1.970327 0
M  V30 65 H -1.139105 0.721487 5.504734 0
M  V30 66 H -2.568627 1.527823 6.953135 0
M  V30 67 H -4.871034 1.509217 7.978325 0
M  V30 68 H -6.783164 0.549878 6.683223 0
M  V30 69 H -6.394288 -0.387624 4.372343 0
M  V30 70 H -1.236673 -2.326336 0.859149 0
M  V30 71 H -0.113989 -3.128137 -1.108657 0
M  V30 72 H 1.019357 -2.584390 -5.823478 0
M  V30 73 H 1.332733 -3.395923 -4.264570 0
M  V30 74 H 2.792276 -1.230747 -5.236558 0
M  V30 75 H 2.798118 -1.869477 -3.492869 0
M  V30 76 H 1.531096 0.166477 -0.488053 0
M  V30 77 H 2.165480 -1.373719 1.230418 0
M  V30 END ATOM
M  V30 BEGIN BOND
M  V30 1 1 1 2
M  V30 2 2 2 3
M  V30 3 1 2 4
M  V30 4 1 4 5
M  V30 5 2 5 6
M  V30 6 1 6 7
M  V30 7 2 7 8
M  V30 8 1 8 9
M  V30 9 2 9 10
M  V30 10 2 9 11
M  V30 11 1 9 12
M  V30 12 1 12 13
M  V30 13 1 13 14
M  V30 14 1 14 15
M  V30 15 1 15 16
M  V30 16 1 16 17
M  V30 17 1 17 18
M  V30 18 2 18 19
M  V30 19 1 19 20
M  V30 20 2 20 21
M  V30 21 1 21 22
M  V30 22 2 22 23
M  V30 23 1 23 24
M  V30 24 2 24 25
M  V30 25 1 25 26
M  V30 26 1 26 27
M  V30 27 2 27 28
M  V30 28 1 28 29
M  V30 29 2 29 30
M  V30 30 1 30 31
M  V30 31 2 31 32
M  V30 32 1 32 33
M  V30 33 1 33 34
M  V30 34 2 34 35
M  V30 35 1 35 36
M  V30 36 2 36 37
M  V30 37 1 37 38
M  V30 38 2 38 39
M  V30 39 1 21 40
M  V30 40 2 40 41
M  V30 41 1 16 42
M  V30 42 1 42 43
M  V30 43 1 8 44
M  V30 44 2 44 45
M  V30 45 1 45 5
M  V30 46 1 43 13
M  V30 47 1 41 18
M  V30 48 1 26 22
M  V30 49 1 32 27
M  V30 50 1 39 34
M  V30 51 1 39 25
M  V30 52 1 1 46
M  V30 53 1 1 47
M  V30 54 1 1 48
M  V30 55 1 4 49
M  V30 56 1 6 50
M  V30 57 1 7 51
M  V30 58 1 12 52
M  V30 59 1 13 53
M  V30 60 1 14 54
M  V30 61 1 14 55
M  V30 62 1 15 56
M  V30 63 1 15 57
M  V30 64 1 17 58
M  V30 65 1 17 59
M  V30 66 1 19 60
M  V30 67 1 20 61
M  V30 68 1 28 62
M  V30 69 1 29 63
M  V30 70 1 30 64
M  V30 71 1 33 65
M  V30 72 1 35 66
M  V30 73 1 36 67
M  V30 74 1 37 68
M  V30 75 1 38 69
M  V30 76 1 40 70
M  V30 77 1 41 71
M  V30 78 1 42 72
M  V30 79 1 42 73
M  V30 80 1 43 74
M  V30 81 1 43 75
M  V30 82 1 44 76
M  V30 83 1 45 77
M  V30 END BOND
M  V30 END CTAB
M  END
>  <Dataset>  (30) 
ChEMBL_Kinases

>  <Ligand_Instance>  (30) 
nan

>  <PDB_ID>  (30) 
nan

>  <Standardized_SMILES>  (30) 
CC(=O)Nc1ccc(S(=O)(=O)NC2CCN(Cc3ccc(-c4nnc5n4-c4cccnc4Nc4ccccc4-5)cc3)CC2)cc1

>  <Name>  (30) 
nan

>  <Pocket>  (30) 
nan

>  <ATP_Site>  (30) 
nan

>  <Peripheral>  (30) 
nan

>  <Num_H_Atoms_ProtBoundConf>  (30) 
nan

>  <Num_Resolved_Atoms>  (30) 
nan

>  <Num_Not_Resolved_Atoms>  (30) 
nan

$$$$
CHEMBL3684459
     RDKit          3D

  0  0  0  0  0  0  0  0  0  0999 V3000
M  V30 BEGIN CTAB
M  V30 COUNTS 74 80 0 0 0
M  V30 BEGIN ATOM
M  V30 1 C 4.663561 2.623428 1.280958 0
M  V30 2 O 4.682418 2.253284 -0.073755 0
M  V30 3 C 4.460832 0.943629 -0.459557 0
M  V30 4 C 4.220895 0.009151 0.506832 0
M  V30 5 C 4.002780 -1.294545 0.097141 0
M  V30 6 C 4.029624 -1.621333 -1.244641 0
M  V30 7 C 4.273751 -0.673721 -2.244677 0
M  V30 8 S 4.293110 -1.168442 -3.904299 0
M  V30 9 O 5.332690 -0.429554 -4.695303 0
M  V30 10 O 4.696381 -2.637261 -3.927743 0
M  V30 11 N 2.747011 -1.056494 -4.671839 0
M  V30 12 C 1.772301 -1.905158 -4.043944 0
M  V30 13 C 0.625954 -1.017374 -3.550439 0
M  V30 14 C -0.706009 -1.766851 -3.768557 0
M  V30 15 N -0.472090 -3.100338 -3.369691 0
M  V30 16 C -1.488971 -3.811003 -2.702029 0
M  V30 17 C -1.900286 -3.116703 -1.463631 0
M  V30 18 C -1.244898 -3.285336 -0.262596 0
M  V30 19 C -1.749213 -2.605905 0.824080 0
M  V30 20 C -2.876511 -1.761112 0.788452 0
M  V30 21 C -3.426436 -1.086748 1.940864 0
M  V30 22 N -4.693377 -1.509370 2.236205 0
M  V30 23 N -5.126645 -0.880184 3.342238 0
M  V30 24 C -4.161593 -0.071093 3.750211 0
M  V30 25 N -3.136349 -0.200401 2.892976 0
M  V30 26 C -1.883381 0.442754 2.883740 0
M  V30 27 C -1.373153 0.463884 1.617249 0
M  V30 28 C -0.121360 1.016986 1.460429 0
M  V30 29 C 0.529207 1.514064 2.595952 0
M  V30 30 N 0.007624 1.491744 3.860726 0
M  V30 31 C -1.227848 0.941152 3.987497 0
M  V30 32 N -1.686086 1.046787 5.354577 0
M  V30 33 C -3.095768 1.189440 5.648375 0
M  V30 34 C -3.250103 1.928155 6.828793 0
M  V30 35 C -4.530390 2.173417 7.250441 0
M  V30 36 C -5.634202 1.717321 6.551513 0
M  V30 37 C -5.512361 0.987691 5.387785 0
M  V30 38 C -4.230860 0.739196 4.960547 0
M  V30 39 C -3.511032 -1.622271 -0.465452 0
M  V30 40 C -3.024496 -2.292177 -1.567358 0
M  V30 41 C 0.285243 -3.885655 -4.316922 0
M  V30 42 C 1.214003 -2.936638 -5.038872 0
M  V30 43 C 4.491712 0.634583 -1.812854 0
M  V30 44 H 4.636372 3.739797 1.359153 0
M  V30 45 H 5.603575 2.313842 1.820730 0
M  V30 46 H 3.812919 2.203349 1.854195 0
M  V30 47 H 4.191713 0.220686 1.562808 0
M  V30 48 H 3.811818 -2.042860 0.871416 0
M  V30 49 H 3.846071 -2.674597 -1.440765 0
M  V30 50 H 2.889299 -1.263027 -5.678887 0
M  V30 51 H 2.248774 -2.417504 -3.199360 0
M  V30 52 H 0.548165 -0.113445 -4.162987 0
M  V30 53 H 0.798998 -0.853747 -2.475948 0
M  V30 54 H -1.052975 -1.636100 -4.807102 0
M  V30 55 H -1.433034 -1.285115 -3.095957 0
M  V30 56 H -2.394539 -4.001190 -3.351121 0
M  V30 57 H -1.066433 -4.817989 -2.435627 0
M  V30 58 H -0.386776 -3.915468 -0.189287 0
M  V30 59 H -1.265345 -2.703605 1.802185 0
M  V30 60 H -1.767961 0.169929 0.684166 0
M  V30 61 H 0.457933 1.129042 0.540246 0
M  V30 62 H 1.499107 1.953273 2.546546 0
M  V30 63 H -0.995079 1.034809 6.122427 0
M  V30 64 H -2.353084 2.256536 7.335039 0
M  V30 65 H -4.682286 2.739308 8.158373 0
M  V30 66 H -6.659731 1.906325 6.876862 0
M  V30 67 H -6.294368 0.582760 4.762288 0
M  V30 68 H -4.378086 -0.974215 -0.502765 0
M  V30 69 H -3.594690 -2.111063 -2.479068 0
M  V30 70 H -0.396959 -4.298751 -5.113755 0
M  V30 71 H 0.781503 -4.719417 -3.824263 0
M  V30 72 H 0.777618 -2.450534 -5.909254 0
M  V30 73 H 2.103652 -3.554028 -5.313308 0
M  V30 74 H 4.684362 1.386797 -2.588942 0
M  V30 END ATOM
M  V30 BEGIN BOND
M  V30 1 1 1 2
M  V30 2 1 2 3
M  V30 3 2 3 4
M  V30 4 1 4 5
M  V30 5 2 5 6
M  V30 6 1 6 7
M  V30 7 1 7 8
M  V30 8 2 8 9
M  V30 9 2 8 10
M  V30 10 1 8 11
M  V30 11 1 11 12
M  V30 12 1 12 13
M  V30 13 1 13 14
M  V30 14 1 14 15
M  V30 15 1 15 16
M  V30 16 1 16 17
M  V30 17 2 17 18
M  V30 18 1 18 19
M  V30 19 2 19 20
M  V30 20 1 20 21
M  V30 21 2 21 22
M  V30 22 1 22 23
M  V30 23 2 23 24
M  V30 24 1 24 25
M  V30 25 1 25 26
M  V30 26 2 26 27
M  V30 27 1 27 28
M  V30 28 2 28 29
M  V30 29 1 29 30
M  V30 30 2 30 31
M  V30 31 1 31 32
M  V30 32 1 32 33
M  V30 33 2 33 34
M  V30 34 1 34 35
M  V30 35 2 35 36
M  V30 36 1 36 37
M  V30 37 2 37 38
M  V30 38 1 20 39
M  V30 39 2 39 40
M  V30 40 1 15 41
M  V30 41 1 41 42
M  V30 42 2 7 43
M  V30 43 1 43 3
M  V30 44 1 42 12
M  V30 45 1 40 17
M  V30 46 1 25 21
M  V30 47 1 31 26
M  V30 48 1 38 33
M  V30 49 1 38 24
M  V30 50 1 1 44
M  V30 51 1 1 45
M  V30 52 1 1 46
M  V30 53 1 4 47
M  V30 54 1 5 48
M  V30 55 1 6 49
M  V30 56 1 11 50
M  V30 57 1 12 51
M  V30 58 1 13 52
M  V30 59 1 13 53
M  V30 60 1 14 54
M  V30 61 1 14 55
M  V30 62 1 16 56
M  V30 63 1 16 57
M  V30 64 1 18 58
M  V30 65 1 19 59
M  V30 66 1 27 60
M  V30 67 1 28 61
M  V30 68 1 29 62
M  V30 69 1 32 63
M  V30 70 1 34 64
M  V30 71 1 35 65
M  V30 72 1 36 66
M  V30 73 1 37 67
M  V30 74 1 39 68
M  V30 75 1 40 69
M  V30 76 1 41 70
M  V30 77 1 41 71
M  V30 78 1 42 72
M  V30 79 1 42 73
M  V30 80 1 43 74
M  V30 END BOND
M  V30 END CTAB
M  END
>  <Dataset>  (31) 
ChEMBL_Kinases

>  <Ligand_Instance>  (31) 
nan

>  <PDB_ID>  (31) 
nan

>  <Standardized_SMILES>  (31) 
COc1cccc(S(=O)(=O)NC2CCN(Cc3ccc(-c4nnc5n4-c4cccnc4Nc4ccccc4-5)cc3)CC2)c1

>  <Name>  (31) 
nan

>  <Pocket>  (31) 
nan

>  <ATP_Site>  (31) 
nan

>  <Peripheral>  (31) 
nan

>  <Num_H_Atoms_ProtBoundConf>  (31) 
nan

>  <Num_Resolved_Atoms>  (31) 
nan

>  <Num_Not_Resolved_Atoms>  (31) 
nan

$$$$
CHEMBL3684458
     RDKit          3D

  0  0  0  0  0  0  0  0  0  0999 V3000
M  V30 BEGIN CTAB
M  V30 COUNTS 67 73 0 0 0
M  V30 BEGIN ATOM
M  V30 1 O 0.524605 -1.645893 4.428517 0
M  V30 2 S 1.750199 -0.802975 4.773708 0
M  V30 3 O 1.619755 -0.440491 6.235185 0
M  V30 4 N 1.666260 0.602093 3.840053 0
M  V30 5 C 2.693326 1.568769 4.012310 0
M  V30 6 C 3.254012 1.951675 2.654895 0
M  V30 7 C 2.118371 2.232480 1.741364 0
M  V30 8 N 0.941280 2.763281 2.264373 0
M  V30 9 C 0.064505 3.413702 1.348343 0
M  V30 10 C -0.341979 2.390887 0.320554 0
M  V30 11 C -1.477687 1.679491 0.645323 0
M  V30 12 C -1.853300 0.740483 -0.294429 0
M  V30 13 C -1.239724 0.433701 -1.498260 0
M  V30 14 C -1.772094 -0.550277 -2.386536 0
M  V30 15 N -2.166383 -0.034826 -3.590412 0
M  V30 16 N -2.697217 -1.000967 -4.346516 0
M  V30 17 C -2.652887 -2.130603 -3.652531 0
M  V30 18 N -2.087960 -1.845799 -2.469685 0
M  V30 19 C -1.812739 -2.693201 -1.392931 0
M  V30 20 C -0.780950 -2.200971 -0.640553 0
M  V30 21 C -0.420262 -2.897549 0.495691 0
M  V30 22 C -1.127223 -4.061597 0.806823 0
M  V30 23 N -2.156566 -4.555205 0.051178 0
M  V30 24 C -2.491650 -3.844560 -1.068591 0
M  V30 25 N -3.538428 -4.525539 -1.801099 0
M  V30 26 C -3.603011 -4.430965 -3.245446 0
M  V30 27 C -4.152399 -5.592442 -3.756310 0
M  V30 28 C -4.279357 -5.692234 -5.126386 0
M  V30 29 C -3.865353 -4.652351 -5.962296 0
M  V30 30 C -3.315556 -3.485014 -5.475356 0
M  V30 31 C -3.197519 -3.403152 -4.109744 0
M  V30 32 C -0.092664 1.216243 -1.731149 0
M  V30 33 C 0.355186 2.175551 -0.849150 0
M  V30 34 C 0.858689 3.184999 3.605190 0
M  V30 35 C 2.015554 2.880149 4.476611 0
M  V30 36 C 3.161309 -1.786305 4.490887 0
M  V30 37 C 3.624717 -2.024072 3.057981 0
M  V30 38 C 4.475420 -1.336749 4.061148 0
M  V30 39 H 1.315782 0.483179 2.883520 0
M  V30 40 H 3.473042 1.329026 4.754768 0
M  V30 41 H 3.902048 1.191539 2.204399 0
M  V30 42 H 3.797921 2.917233 2.833805 0
M  V30 43 H 1.886335 1.319222 1.118117 0
M  V30 44 H 2.511840 2.957562 0.966327 0
M  V30 45 H -0.776796 3.932719 1.801908 0
M  V30 46 H 0.659942 4.161674 0.775722 0
M  V30 47 H -2.074018 1.793227 1.540937 0
M  V30 48 H -2.750946 0.153464 -0.074503 0
M  V30 49 H -0.137730 -1.372529 -0.782275 0
M  V30 50 H 0.362572 -2.647868 1.194160 0
M  V30 51 H -0.893256 -4.644866 1.680208 0
M  V30 52 H -4.227789 -5.091828 -1.283762 0
M  V30 53 H -4.456908 -6.361658 -3.061201 0
M  V30 54 H -4.705897 -6.589759 -5.554621 0
M  V30 55 H -3.958332 -4.715113 -7.048709 0
M  V30 56 H -2.969875 -2.636282 -6.018608 0
M  V30 57 H 0.442701 1.020789 -2.674045 0
M  V30 58 H 1.231116 2.757085 -1.051482 0
M  V30 59 H 0.684190 4.285369 3.634816 0
M  V30 60 H -0.063501 2.746301 4.087850 0
M  V30 61 H 1.668968 2.766956 5.527006 0
M  V30 62 H 2.824604 3.647245 4.408701 0
M  V30 63 H 3.177996 -2.716041 5.146733 0
M  V30 64 H 3.743025 -3.079194 2.775278 0
M  V30 65 H 3.174259 -1.416096 2.258555 0
M  V30 66 H 5.378088 -1.964586 4.350907 0
M  V30 67 H 4.791100 -0.326755 3.797511 0
M  V30 END ATOM
M  V30 BEGIN BOND
M  V30 1 2 1 2
M  V30 2 2 2 3
M  V30 3 1 2 4
M  V30 4 1 4 5
M  V30 5 1 5 6
M  V30 6 1 6 7
M  V30 7 1 7 8
M  V30 8 1 8 9
M  V30 9 1 9 10
M  V30 10 2 10 11
M  V30 11 1 11 12
M  V30 12 2 12 13
M  V30 13 1 13 14
M  V30 14 2 14 15
M  V30 15 1 15 16
M  V30 16 2 16 17
M  V30 17 1 17 18
M  V30 18 1 18 19
M  V30 19 2 19 20
M  V30 20 1 20 21
M  V30 21 2 21 22
M  V30 22 1 22 23
M  V30 23 2 23 24
M  V30 24 1 24 25
M  V30 25 1 25 26
M  V30 26 2 26 27
M  V30 27 1 27 28
M  V30 28 2 28 29
M  V30 29 1 29 30
M  V30 30 2 30 31
M  V30 31 1 13 32
M  V30 32 2 32 33
M  V30 33 1 8 34
M  V30 34 1 34 35
M  V30 35 1 2 36
M  V30 36 1 36 37
M  V30 37 1 37 38
M  V30 38 1 35 5
M  V30 39 1 38 36
M  V30 40 1 33 10
M  V30 41 1 18 14
M  V30 42 1 24 19
M  V30 43 1 31 26
M  V30 44 1 31 17
M  V30 45 1 4 39
M  V30 46 1 5 40
M  V30 47 1 6 41
M  V30 48 1 6 42
M  V30 49 1 7 43
M  V30 50 1 7 44
M  V30 51 1 9 45
M  V30 52 1 9 46
M  V30 53 1 11 47
M  V30 54 1 12 48
M  V30 55 1 20 49
M  V30 56 1 21 50
M  V30 57 1 22 51
M  V30 58 1 25 52
M  V30 59 1 27 53
M  V30 60 1 28 54
M  V30 61 1 29 55
M  V30 62 1 30 56
M  V30 63 1 32 57
M  V30 64 1 33 58
M  V30 65 1 34 59
M  V30 66 1 34 60
M  V30 67 1 35 61
M  V30 68 1 35 62
M  V30 69 1 36 63
M  V30 70 1 37 64
M  V30 71 1 37 65
M  V30 72 1 38 66
M  V30 73 1 38 67
M  V30 END BOND
M  V30 END CTAB
M  END
>  <Dataset>  (32) 
ChEMBL_Kinases

>  <Ligand_Instance>  (32) 
nan

>  <PDB_ID>  (32) 
nan

>  <Standardized_SMILES>  (32) 
O=S(=O)(NC1CCN(Cc2ccc(-c3nnc4n3-c3cccnc3Nc3ccccc3-4)cc2)CC1)C1CC1

>  <Name>  (32) 
nan

>  <Pocket>  (32) 
nan

>  <ATP_Site>  (32) 
nan

>  <Peripheral>  (32) 
nan

>  <Num_H_Atoms_ProtBoundConf>  (32) 
nan

>  <Num_Resolved_Atoms>  (32) 
nan

>  <Num_Not_Resolved_Atoms>  (32) 
nan

$$$$
CHEMBL3680380
     RDKit          3D

  0  0  0  0  0  0  0  0  0  0999 V3000
M  V30 BEGIN CTAB
M  V30 COUNTS 63 68 0 0 0
M  V30 BEGIN ATOM
M  V30 1 C 5.067089 0.261091 4.926496 0
M  V30 2 C 3.855156 1.087331 5.060806 0
M  V30 3 O 3.023781 0.851068 5.985116 0
M  V30 4 N 3.606892 2.164205 4.147524 0
M  V30 5 C 4.507763 2.492227 3.071733 0
M  V30 6 C 3.763590 3.334031 2.060140 0
M  V30 7 C 2.357273 2.871281 1.969543 0
M  V30 8 N 1.720328 2.612229 0.787802 0
M  V30 9 C 0.441380 2.184533 0.741261 0
M  V30 10 N -0.184214 1.943723 -0.534786 0
M  V30 11 C -1.507559 1.448706 -0.627119 0
M  V30 12 N -2.750815 1.980017 -0.517965 0
M  V30 13 C -3.854538 1.238053 -0.674340 0
M  V30 14 C -3.835348 -0.112437 -0.957444 0
M  V30 15 C -4.773083 -1.088349 -1.166840 0
M  V30 16 C -6.155235 -1.027141 -1.156499 0
M  V30 17 C -6.820540 -2.223820 -1.413966 0
M  V30 18 N -6.142603 -3.378278 -1.659250 0
M  V30 19 C -4.776959 -3.378806 -1.656216 0
M  V30 20 C -4.047305 -2.235665 -1.410391 0
M  V30 21 N -2.741895 -1.972286 -1.351876 0
M  V30 22 C -1.643484 -2.929877 -1.563828 0 CFG=1
M  V30 23 C -0.376884 -2.178314 -1.951367 0
M  V30 24 C 0.675259 -3.189518 -2.325123 0
M  V30 25 C 0.375509 -4.591049 -1.943549 0 CFG=2
M  V30 26 C -0.233135 -5.315179 -3.124663 0
M  V30 27 C -0.365440 -4.811883 -0.676590 0
M  V30 28 C -1.314459 -3.699229 -0.336297 0
M  V30 29 C -2.549004 -0.648612 -1.068408 0
M  V30 30 N -1.483145 0.132236 -0.902626 0
M  V30 31 C -0.335702 1.971759 1.888324 0
M  V30 32 C 0.258208 2.219368 3.106405 0
M  V30 33 C 1.548431 2.647781 3.092630 0
M  V30 34 C 2.383251 2.965365 4.306174 0
M  V30 35 H 6.008109 0.823262 4.812292 0
M  V30 36 H 4.999309 -0.482325 4.077893 0
M  V30 37 H 5.181486 -0.386850 5.833102 0
M  V30 38 H 5.315734 3.124749 3.518436 0
M  V30 39 H 4.924771 1.573721 2.610765 0
M  V30 40 H 3.828591 4.430224 2.302077 0
M  V30 41 H 4.215720 3.145003 1.049658 0
M  V30 42 H 0.378065 2.148164 -1.408948 0
M  V30 43 H -4.794428 1.754785 -0.564452 0
M  V30 44 H -6.691034 -0.110918 -0.959454 0
M  V30 45 H -7.917300 -2.264404 -1.423314 0
M  V30 46 H -4.280455 -4.334514 -1.861936 0
M  V30 47 H -1.906493 -3.654912 -2.364361 0
M  V30 48 H -0.555178 -1.400977 -2.692425 0
M  V30 49 H 0.000136 -1.716402 -0.991503 0
M  V30 50 H 0.742550 -3.144958 -3.453555 0
M  V30 51 H 1.682430 -2.885939 -1.941756 0
M  V30 52 H 1.391569 -5.083991 -1.787734 0
M  V30 53 H -1.162544 -5.877161 -2.838199 0
M  V30 54 H 0.466404 -6.077558 -3.537589 0
M  V30 55 H -0.412248 -4.616447 -3.974158 0
M  V30 56 H -1.015536 -5.723897 -0.829415 0
M  V30 57 H 0.289649 -5.083235 0.182074 0
M  V30 58 H -0.748857 -3.038076 0.385108 0
M  V30 59 H -2.205662 -4.052114 0.223141 0
M  V30 60 H -1.356949 1.632805 1.877893 0
M  V30 61 H -0.212021 2.104639 4.078794 0
M  V30 62 H 1.837428 2.608247 5.201779 0
M  V30 63 H 2.648728 4.031946 4.371274 0
M  V30 END ATOM
M  V30 BEGIN BOND
M  V30 1 1 1 2
M  V30 2 2 2 3
M  V30 3 1 2 4
M  V30 4 1 4 5
M  V30 5 1 5 6
M  V30 6 1 6 7
M  V30 7 2 7 8
M  V30 8 1 8 9
M  V30 9 1 9 10
M  V30 10 1 10 11
M  V30 11 2 11 12
M  V30 12 1 12 13
M  V30 13 2 13 14
M  V30 14 1 14 15
M  V30 15 2 15 16
M  V30 16 1 16 17
M  V30 17 2 17 18
M  V30 18 1 18 19
M  V30 19 2 19 20
M  V30 20 1 20 21
M  V30 21 1 21 22
M  V30 22 1 22 23
M  V30 23 1 23 24
M  V30 24 1 24 25
M  V30 25 1 25 26
M  V30 26 1 25 27
M  V30 27 1 27 28
M  V30 28 1 21 29
M  V30 29 2 29 30
M  V30 30 2 9 31
M  V30 31 1 31 32
M  V30 32 2 32 33
M  V30 33 1 33 34
M  V30 34 1 34 4
M  V30 35 1 33 7
M  V30 36 1 30 11
M  V30 37 1 29 14
M  V30 38 1 20 15
M  V30 39 1 28 22
M  V30 40 1 1 35
M  V30 41 1 1 36
M  V30 42 1 1 37
M  V30 43 1 5 38
M  V30 44 1 5 39
M  V30 45 1 6 40
M  V30 46 1 6 41
M  V30 47 1 10 42
M  V30 48 1 13 43
M  V30 49 1 16 44
M  V30 50 1 17 45
M  V30 51 1 19 46
M  V30 52 1 22 47 CFG=3
M  V30 53 1 23 48
M  V30 54 1 23 49
M  V30 55 1 24 50
M  V30 56 1 24 51
M  V30 57 1 25 52 CFG=1
M  V30 58 1 26 53
M  V30 59 1 26 54
M  V30 60 1 26 55
M  V30 61 1 27 56
M  V30 62 1 27 57
M  V30 63 1 28 58
M  V30 64 1 28 59
M  V30 65 1 31 60
M  V30 66 1 32 61
M  V30 67 1 34 62
M  V30 68 1 34 63
M  V30 END BOND
M  V30 END CTAB
M  END
>  <Dataset>  (33) 
ChEMBL_Kinases

>  <Ligand_Instance>  (33) 
nan

>  <PDB_ID>  (33) 
nan

>  <Standardized_SMILES>  (33) 
CC(=O)N1CCc2nc(Nc3ncc4c5ccncc5n([C@H]5CC[C@H](C)CC5)c4n3)ccc2C1

>  <Name>  (33) 
nan

>  <Pocket>  (33) 
nan

>  <ATP_Site>  (33) 
nan

>  <Peripheral>  (33) 
nan

>  <Num_H_Atoms_ProtBoundConf>  (33) 
nan

>  <Num_Resolved_Atoms>  (33) 
nan

>  <Num_Not_Resolved_Atoms>  (33) 
nan

$$$$
CHEMBL3684441
     RDKit          3D

  0  0  0  0  0  0  0  0  0  0999 V3000
M  V30 BEGIN CTAB
M  V30 COUNTS 70 77 0 0 0
M  V30 BEGIN ATOM
M  V30 1 C 3.802451 0.952124 7.654596 0
M  V30 2 C 4.032053 2.193161 7.057963 0
M  V30 3 C 3.537032 2.524222 5.813684 0
M  V30 4 C 2.798069 1.544810 5.196655 0
M  V30 5 C 2.547075 0.288742 5.761172 0
M  V30 6 C 3.061948 -0.015293 7.022825 0
M  V30 7 N 1.814914 -0.849983 5.247306 0
M  V30 8 C 1.750615 -1.098825 3.825219 0
M  V30 9 N 1.689578 -2.434500 3.581254 0
M  V30 10 C 1.694812 -2.825903 2.269736 0
M  V30 11 C 1.760470 -1.925636 1.198787 0
M  V30 12 C 1.821457 -0.575051 1.471268 0
M  V30 13 C 1.811401 -0.196336 2.786164 0
M  V30 14 N 1.819765 1.207593 2.897900 0
M  V30 15 C 1.336536 1.946697 1.899454 0
M  V30 16 C 0.684575 1.841976 0.613420 0
M  V30 17 C -0.565683 1.193998 0.498262 0
M  V30 18 C -1.197933 1.124851 -0.725979 0
M  V30 19 C -0.645077 1.675233 -1.864498 0
M  V30 20 C -1.520597 1.481976 -3.040731 0
M  V30 21 N -1.319013 0.211965 -3.633734 0
M  V30 22 C 0.015924 -0.017076 -4.093243 0
M  V30 23 C 0.239779 -1.532069 -3.920434 0
M  V30 24 C -0.943981 -2.302235 -4.416986 0
M  V30 25 C -1.616041 -3.120179 -3.363714 0
M  V30 26 N -1.664699 -4.480536 -3.330407 0
M  V30 27 N -2.340969 -4.862254 -2.255679 0
M  V30 28 C -2.727836 -3.758888 -1.597253 0
M  V30 29 C -3.494614 -3.726814 -0.362629 0
M  V30 30 C -3.947204 -4.847369 0.327852 0
M  V30 31 C -4.669452 -4.728944 1.493262 0
M  V30 32 N -4.973626 -3.527056 2.022609 0
M  V30 33 C -4.557192 -2.423881 1.389755 0
M  V30 34 C -3.831792 -2.513230 0.220038 0
M  V30 35 N -2.282785 -2.703172 -2.277922 0
M  V30 36 C -1.900264 -1.487835 -5.218352 0
M  V30 37 C -2.252784 -0.152017 -4.643681 0
M  V30 38 C 0.573739 2.312953 -1.775617 0
M  V30 39 C 1.228980 2.396928 -0.563995 0
M  V30 40 N 1.500080 3.233656 2.321786 0
M  V30 41 N 2.063946 3.240151 3.542092 0
M  V30 42 C 2.264182 1.966164 3.908129 0
M  V30 43 H 4.215153 0.746575 8.633119 0
M  V30 44 H 4.622207 2.969510 7.556060 0
M  V30 45 H 3.653558 3.438136 5.273448 0
M  V30 46 H 2.844031 -0.992584 7.426234 0
M  V30 47 H 1.349315 -1.498409 5.898593 0
M  V30 48 H 1.644154 -3.890366 2.087953 0
M  V30 49 H 1.757326 -2.386289 0.201037 0
M  V30 50 H 1.915926 -0.017482 0.577481 0
M  V30 51 H -0.948390 0.782496 1.424264 0
M  V30 52 H -2.146274 0.596613 -0.649211 0
M  V30 53 H -2.582060 1.714021 -2.822185 0
M  V30 54 H -1.203300 2.252794 -3.802484 0
M  V30 55 H 0.154085 0.223290 -5.188108 0
M  V30 56 H 0.718615 0.549320 -3.480405 0
M  V30 57 H 1.195537 -1.825328 -4.373881 0
M  V30 58 H 0.312739 -1.743389 -2.821833 0
M  V30 59 H -0.518632 -3.078014 -5.121855 0
M  V30 60 H -3.700942 -5.808088 -0.100101 0
M  V30 61 H -4.968329 -5.678417 1.941551 0
M  V30 62 H -4.794942 -1.434948 1.804947 0
M  V30 63 H -3.521487 -1.594171 -0.249006 0
M  V30 64 H -2.448943 -1.729887 -1.978399 0
M  V30 65 H -1.497799 -1.410213 -6.263959 0
M  V30 66 H -2.826412 -2.116914 -5.345883 0
M  V30 67 H -3.312299 -0.170079 -4.265923 0
M  V30 68 H -2.163612 0.601127 -5.468644 0
M  V30 69 H 0.950843 2.733577 -2.695041 0
M  V30 70 H 2.183866 2.900678 -0.515593 0
M  V30 END ATOM
M  V30 BEGIN BOND
M  V30 1 2 1 2
M  V30 2 1 2 3
M  V30 3 2 3 4
M  V30 4 1 4 5
M  V30 5 2 5 6
M  V30 6 1 5 7
M  V30 7 1 7 8
M  V30 8 2 8 9
M  V30 9 1 9 10
M  V30 10 2 10 11
M  V30 11 1 11 12
M  V30 12 2 12 13
M  V30 13 1 13 14
M  V30 14 1 14 15
M  V30 15 1 15 16
M  V30 16 2 16 17
M  V30 17 1 17 18
M  V30 18 2 18 19
M  V30 19 1 19 20
M  V30 20 1 20 21
M  V30 21 1 21 22
M  V30 22 1 22 23
M  V30 23 1 23 24
M  V30 24 1 24 25
M  V30 25 2 25 26
M  V30 26 1 26 27
M  V30 27 2 27 28
M  V30 28 1 28 29
M  V30 29 2 29 30
M  V30 30 1 30 31
M  V30 31 2 31 32
M  V30 32 1 32 33
M  V30 33 2 33 34
M  V30 34 1 28 35
M  V30 35 1 24 36
M  V30 36 1 36 37
M  V30 37 1 19 38
M  V30 38 2 38 39
M  V30 39 2 15 40
M  V30 40 1 40 41
M  V30 41 2 41 42
M  V30 42 1 6 1
M  V30 43 1 13 8
M  V30 44 1 42 14
M  V30 45 1 42 4
M  V30 46 1 39 16
M  V30 47 1 37 21
M  V30 48 1 35 25
M  V30 49 1 34 29
M  V30 50 1 1 43
M  V30 51 1 2 44
M  V30 52 1 3 45
M  V30 53 1 6 46
M  V30 54 1 7 47
M  V30 55 1 10 48
M  V30 56 1 11 49
M  V30 57 1 12 50
M  V30 58 1 17 51
M  V30 59 1 18 52
M  V30 60 1 20 53
M  V30 61 1 20 54
M  V30 62 1 22 55
M  V30 63 1 22 56
M  V30 64 1 23 57
M  V30 65 1 23 58
M  V30 66 1 24 59
M  V30 67 1 30 60
M  V30 68 1 31 61
M  V30 69 1 33 62
M  V30 70 1 34 63
M  V30 71 1 35 64
M  V30 72 1 36 65
M  V30 73 1 36 66
M  V30 74 1 37 67
M  V30 75 1 37 68
M  V30 76 1 38 69
M  V30 77 1 39 70
M  V30 END BOND
M  V30 END CTAB
M  END
>  <Dataset>  (34) 
ChEMBL_Kinases

>  <Ligand_Instance>  (34) 
nan

>  <PDB_ID>  (34) 
nan

>  <Standardized_SMILES>  (34) 
c1ccc2c(c1)Nc1ncccc1-n1c(-c3ccc(CN4CCC(c5nnc(-c6ccncc6)[nH]5)CC4)cc3)nnc1-2

>  <Name>  (34) 
nan

>  <Pocket>  (34) 
nan

>  <ATP_Site>  (34) 
nan

>  <Peripheral>  (34) 
nan

>  <Num_H_Atoms_ProtBoundConf>  (34) 
nan

>  <Num_Resolved_Atoms>  (34) 
nan

>  <Num_Not_Resolved_Atoms>  (34) 
nan

$$$$
CHEMBL3684442
     RDKit          3D

  0  0  0  0  0  0  0  0  0  0999 V3000
M  V30 BEGIN CTAB
M  V30 COUNTS 66 72 0 0 0
M  V30 BEGIN ATOM
M  V30 1 O 1.172677 2.203580 1.051030 0
M  V30 2 C 1.576448 2.100940 2.251678 0
M  V30 3 C 2.717337 1.277031 2.514833 0
M  V30 4 C 3.596599 1.087955 1.470054 0
M  V30 5 C 4.721096 0.307443 1.635576 0
M  V30 6 C 4.970012 -0.294245 2.866351 0
M  V30 7 F 6.077459 -1.076157 3.065499 0
M  V30 8 C 4.120024 -0.142739 3.964292 0
M  V30 9 C 3.030439 0.651659 3.698243 0
M  V30 10 N 0.672617 2.908331 2.950563 0
M  V30 11 C -0.387515 3.577639 2.190952 0
M  V30 12 C -1.690227 3.431872 2.965624 0
M  V30 13 N -1.658500 2.402075 3.921349 0
M  V30 14 C -2.294173 1.182109 3.702019 0
M  V30 15 C -1.965818 0.511866 2.413238 0
M  V30 16 C -2.903590 0.721201 1.393232 0
M  V30 17 C -2.752306 0.187949 0.129392 0
M  V30 18 C -1.617350 -0.594802 -0.151343 0
M  V30 19 C -1.484415 -1.108418 -1.504199 0
M  V30 20 N -1.587179 -0.177211 -2.506263 0
M  V30 21 N -1.382956 -0.773290 -3.691719 0
M  V30 22 C -1.149844 -2.075802 -3.464324 0
M  V30 23 N -1.220086 -2.257716 -2.138378 0
M  V30 24 C -1.061327 -3.445819 -1.403863 0
M  V30 25 C -1.783270 -3.381154 -0.241204 0
M  V30 26 C -1.642064 -4.485053 0.599830 0
M  V30 27 C -0.813770 -5.547703 0.228914 0
M  V30 28 N -0.106455 -5.590401 -0.940920 0
M  V30 29 C -0.251439 -4.511325 -1.753020 0
M  V30 30 N 0.470176 -4.724066 -2.994226 0
M  V30 31 C -0.047328 -4.195243 -4.246380 0
M  V30 32 C 0.289530 -5.039034 -5.293259 0
M  V30 33 C -0.159597 -4.672886 -6.541328 0
M  V30 34 C -0.911842 -3.527678 -6.778520 0
M  V30 35 C -1.253569 -2.678255 -5.744469 0
M  V30 36 C -0.805768 -3.041810 -4.501072 0
M  V30 37 C -0.688005 -0.791103 0.889534 0
M  V30 38 C -0.853755 -0.252646 2.145062 0
M  V30 39 C -0.616451 2.479981 4.893345 0
M  V30 40 C 0.608615 3.202735 4.373455 0
M  V30 41 H 3.488824 1.511868 0.471410 0
M  V30 42 H 5.418574 0.145769 0.839128 0
M  V30 43 H 4.282801 -0.592815 4.928919 0
M  V30 44 H 2.338506 0.792659 4.536435 0
M  V30 45 H -0.049260 4.638559 2.132051 0
M  V30 46 H -0.449885 3.220974 1.150538 0
M  V30 47 H -2.493136 3.323301 2.246353 0
M  V30 48 H -1.849402 4.409634 3.486770 0
M  V30 49 H -1.988036 0.460213 4.514602 0
M  V30 50 H -3.385516 1.258386 3.803455 0
M  V30 51 H -3.808651 1.310881 1.515353 0
M  V30 52 H -3.471650 0.346288 -0.655926 0
M  V30 53 H -2.475047 -2.650772 0.098793 0
M  V30 54 H -2.110458 -4.652846 1.564963 0
M  V30 55 H -0.671178 -6.421633 0.850267 0
M  V30 56 H 1.347333 -5.273222 -2.995263 0
M  V30 57 H 0.872312 -5.903528 -5.056007 0
M  V30 58 H 0.096163 -5.323561 -7.372838 0
M  V30 59 H -1.260565 -3.253666 -7.764723 0
M  V30 60 H -1.827637 -1.767797 -5.793741 0
M  V30 61 H 0.174594 -1.397263 0.649687 0
M  V30 62 H -0.154905 -0.397259 2.943975 0
M  V30 63 H -0.986594 3.043351 5.770998 0
M  V30 64 H -0.371297 1.459367 5.242749 0
M  V30 65 H 1.508062 2.982071 4.935258 0
M  V30 66 H 0.448399 4.306930 4.454450 0
M  V30 END ATOM
M  V30 BEGIN BOND
M  V30 1 2 1 2
M  V30 2 1 2 3
M  V30 3 2 3 4
M  V30 4 1 4 5
M  V30 5 2 5 6
M  V30 6 1 6 7
M  V30 7 1 6 8
M  V30 8 2 8 9
M  V30 9 1 2 10
M  V30 10 1 10 11
M  V30 11 1 11 12
M  V30 12 1 12 13
M  V30 13 1 13 14
M  V30 14 1 14 15
M  V30 15 2 15 16
M  V30 16 1 16 17
M  V30 17 2 17 18
M  V30 18 1 18 19
M  V30 19 2 19 20
M  V30 20 1 20 21
M  V30 21 2 21 22
M  V30 22 1 22 23
M  V30 23 1 23 24
M  V30 24 2 24 25
M  V30 25 1 25 26
M  V30 26 2 26 27
M  V30 27 1 27 28
M  V30 28 2 28 29
M  V30 29 1 29 30
M  V30 30 1 30 31
M  V30 31 2 31 32
M  V30 32 1 32 33
M  V30 33 2 33 34
M  V30 34 1 34 35
M  V30 35 2 35 36
M  V30 36 1 18 37
M  V30 37 2 37 38
M  V30 38 1 13 39
M  V30 39 1 39 40
M  V30 40 1 9 3
M  V30 41 1 40 10
M  V30 42 1 38 15
M  V30 43 1 23 19
M  V30 44 1 29 24
M  V30 45 1 36 31
M  V30 46 1 36 22
M  V30 47 1 4 41
M  V30 48 1 5 42
M  V30 49 1 8 43
M  V30 50 1 9 44
M  V30 51 1 11 45
M  V30 52 1 11 46
M  V30 53 1 12 47
M  V30 54 1 12 48
M  V30 55 1 14 49
M  V30 56 1 14 50
M  V30 57 1 16 51
M  V30 58 1 17 52
M  V30 59 1 25 53
M  V30 60 1 26 54
M  V30 61 1 27 55
M  V30 62 1 30 56
M  V30 63 1 32 57
M  V30 64 1 33 58
M  V30 65 1 34 59
M  V30 66 1 35 60
M  V30 67 1 37 61
M  V30 68 1 38 62
M  V30 69 1 39 63
M  V30 70 1 39 64
M  V30 71 1 40 65
M  V30 72 1 40 66
M  V30 END BOND
M  V30 END CTAB
M  END
>  <Dataset>  (35) 
ChEMBL_Kinases

>  <Ligand_Instance>  (35) 
nan

>  <PDB_ID>  (35) 
nan

>  <Standardized_SMILES>  (35) 
O=C(c1ccc(F)cc1)N1CCN(Cc2ccc(-c3nnc4n3-c3cccnc3Nc3ccccc3-4)cc2)CC1

>  <Name>  (35) 
nan

>  <Pocket>  (35) 
nan

>  <ATP_Site>  (35) 
nan

>  <Peripheral>  (35) 
nan

>  <Num_H_Atoms_ProtBoundConf>  (35) 
nan

>  <Num_Resolved_Atoms>  (35) 
nan

>  <Num_Not_Resolved_Atoms>  (35) 
nan

$$$$
CHEMBL3684443
     RDKit          3D

  0  0  0  0  0  0  0  0  0  0999 V3000
M  V30 BEGIN CTAB
M  V30 COUNTS 69 75 0 0 0
M  V30 BEGIN ATOM
M  V30 1 O 1.756027 4.237487 3.014197 0
M  V30 2 C 0.952197 4.281083 2.016180 0
M  V30 3 C -0.503640 4.291552 2.259988 0
M  V30 4 C -1.221436 3.077943 1.708586 0
M  V30 5 C -0.688334 1.982811 2.629601 0
M  V30 6 C -0.452760 2.662415 3.959982 0
M  V30 7 C -0.743690 4.130278 3.747346 0
M  V30 8 N 1.554380 4.317935 0.700132 0
M  V30 9 C 1.078225 4.385886 -0.678421 0
M  V30 10 C 1.519004 3.249041 -1.532449 0
M  V30 11 N 2.610577 2.509885 -1.077341 0
M  V30 12 C 2.842161 1.214875 -1.551581 0
M  V30 13 C 1.759738 0.224874 -1.313082 0
M  V30 14 C 1.778353 -0.511116 -0.147782 0
M  V30 15 C 0.753379 -1.415548 0.022308 0
M  V30 16 C -0.293223 -1.637796 -0.892953 0
M  V30 17 C -1.358212 -2.582088 -0.635000 0
M  V30 18 N -2.590241 -1.996841 -0.558714 0
M  V30 19 N -3.508410 -2.914720 -0.270668 0
M  V30 20 C -2.887113 -4.099054 -0.156949 0
M  V30 21 N -1.586148 -3.871286 -0.385433 0
M  V30 22 C -0.509592 -4.779819 -0.391215 0
M  V30 23 C 0.503692 -4.312476 -1.181768 0
M  V30 24 C 1.647135 -5.082291 -1.233410 0
M  V30 25 C 1.690370 -6.258701 -0.494932 0
M  V30 26 N 0.684750 -6.741848 0.296862 0
M  V30 27 C -0.433097 -5.954813 0.324756 0
M  V30 28 N -1.457024 -6.593422 1.124044 0
M  V30 29 C -2.861176 -6.417672 0.807926 0
M  V30 30 C -3.572855 -7.563293 1.176293 0
M  V30 31 C -4.926968 -7.553016 0.921452 0
M  V30 32 C -5.571001 -6.489897 0.338498 0
M  V30 33 C -4.889653 -5.344035 -0.034883 0
M  V30 34 C -3.541859 -5.347728 0.216513 0
M  V30 35 C -0.226639 -0.840144 -2.050981 0
M  V30 36 C 0.770350 0.083062 -2.283807 0
M  V30 37 C 3.499133 3.082835 -0.155384 0
M  V30 38 C 3.006415 4.273716 0.582219 0
M  V30 39 H -0.973109 5.237156 1.885375 0
M  V30 40 H -1.044771 2.862435 0.662417 0
M  V30 41 H -2.310979 3.269394 1.921842 0
M  V30 42 H -1.410807 1.145391 2.703698 0
M  V30 43 H 0.279213 1.647501 2.175877 0
M  V30 44 H -1.080320 2.226504 4.765281 0
M  V30 45 H 0.637345 2.582028 4.205446 0
M  V30 46 H -0.072423 4.778067 4.346676 0
M  V30 47 H -1.808110 4.291705 3.970084 0
M  V30 48 H 1.470848 5.370765 -1.079107 0
M  V30 49 H -0.015362 4.551860 -0.627936 0
M  V30 50 H 1.794551 3.685789 -2.538639 0
M  V30 51 H 0.652930 2.576806 -1.747272 0
M  V30 52 H 3.112566 1.276003 -2.635309 0
M  V30 53 H 3.767470 0.806215 -1.067666 0
M  V30 54 H 2.536185 -0.414518 0.615020 0
M  V30 55 H 0.691246 -2.043646 0.922980 0
M  V30 56 H 0.575078 -3.472218 -1.818595 0
M  V30 57 H 2.545382 -4.855846 -1.810286 0
M  V30 58 H 2.564190 -6.892664 -0.502107 0
M  V30 59 H -1.187743 -7.196898 1.922657 0
M  V30 60 H -3.017681 -8.367751 1.632210 0
M  V30 61 H -5.489418 -8.439550 1.203962 0
M  V30 62 H -6.639941 -6.483361 0.137360 0
M  V30 63 H -5.280210 -4.450098 -0.496612 0
M  V30 64 H -1.049099 -1.029406 -2.748292 0
M  V30 65 H 0.758700 0.660739 -3.193801 0
M  V30 66 H 4.452204 3.345753 -0.679311 0
M  V30 67 H 3.807623 2.308157 0.600786 0
M  V30 68 H 3.433487 4.292211 1.623043 0
M  V30 69 H 3.326977 5.227625 0.134416 0
M  V30 END ATOM
M  V30 BEGIN BOND
M  V30 1 2 1 2
M  V30 2 1 2 3
M  V30 3 1 3 4
M  V30 4 1 4 5
M  V30 5 1 5 6
M  V30 6 1 6 7
M  V30 7 1 2 8
M  V30 8 1 8 9
M  V30 9 1 9 10
M  V30 10 1 10 11
M  V30 11 1 11 12
M  V30 12 1 12 13
M  V30 13 2 13 14
M  V30 14 1 14 15
M  V30 15 2 15 16
M  V30 16 1 16 17
M  V30 17 2 17 18
M  V30 18 1 18 19
M  V30 19 2 19 20
M  V30 20 1 20 21
M  V30 21 1 21 22
M  V30 22 2 22 23
M  V30 23 1 23 24
M  V30 24 2 24 25
M  V30 25 1 25 26
M  V30 26 2 26 27
M  V30 27 1 27 28
M  V30 28 1 28 29
M  V30 29 2 29 30
M  V30 30 1 30 31
M  V30 31 2 31 32
M  V30 32 1 32 33
M  V30 33 2 33 34
M  V30 34 1 16 35
M  V30 35 2 35 36
M  V30 36 1 11 37
M  V30 37 1 37 38
M  V30 38 1 7 3
M  V30 39 1 38 8
M  V30 40 1 36 13
M  V30 41 1 21 17
M  V30 42 1 27 22
M  V30 43 1 34 29
M  V30 44 1 34 20
M  V30 45 1 3 39
M  V30 46 1 4 40
M  V30 47 1 4 41
M  V30 48 1 5 42
M  V30 49 1 5 43
M  V30 50 1 6 44
M  V30 51 1 6 45
M  V30 52 1 7 46
M  V30 53 1 7 47
M  V30 54 1 9 48
M  V30 55 1 9 49
M  V30 56 1 10 50
M  V30 57 1 10 51
M  V30 58 1 12 52
M  V30 59 1 12 53
M  V30 60 1 14 54
M  V30 61 1 15 55
M  V30 62 1 23 56
M  V30 63 1 24 57
M  V30 64 1 25 58
M  V30 65 1 28 59
M  V30 66 1 30 60
M  V30 67 1 31 61
M  V30 68 1 32 62
M  V30 69 1 33 63
M  V30 70 1 35 64
M  V30 71 1 36 65
M  V30 72 1 37 66
M  V30 73 1 37 67
M  V30 74 1 38 68
M  V30 75 1 38 69
M  V30 END BOND
M  V30 END CTAB
M  END
>  <Dataset>  (36) 
ChEMBL_Kinases

>  <Ligand_Instance>  (36) 
nan

>  <PDB_ID>  (36) 
nan

>  <Standardized_SMILES>  (36) 
O=C(C1CCCC1)N1CCN(Cc2ccc(-c3nnc4n3-c3cccnc3Nc3ccccc3-4)cc2)CC1

>  <Name>  (36) 
nan

>  <Pocket>  (36) 
nan

>  <ATP_Site>  (36) 
nan

>  <Peripheral>  (36) 
nan

>  <Num_H_Atoms_ProtBoundConf>  (36) 
nan

>  <Num_Resolved_Atoms>  (36) 
nan

>  <Num_Not_Resolved_Atoms>  (36) 
nan

$$$$
CHEMBL3684444
     RDKit          3D

  0  0  0  0  0  0  0  0  0  0999 V3000
M  V30 BEGIN CTAB
M  V30 COUNTS 70 76 0 0 0
M  V30 BEGIN ATOM
M  V30 1 C 8.470080 1.170374 3.723360 0
M  V30 2 O 7.401728 0.658668 2.985500 0
M  V30 3 C 6.613936 -0.409397 3.315992 0
M  V30 4 C 6.895873 -1.069038 4.516872 0
M  V30 5 C 6.102386 -2.157567 4.865775 0
M  V30 6 C 5.059283 -2.594282 4.065571 0
M  V30 7 C 4.782534 -1.932812 2.868970 0
M  V30 8 C 5.574869 -0.845933 2.520722 0
M  V30 9 C 5.319916 -0.137991 1.294373 0
M  V30 10 O 5.784199 -0.329313 0.141171 0
M  V30 11 N 4.393345 0.960075 1.385101 0
M  V30 12 C 4.048056 1.763828 0.201009 0
M  V30 13 C 2.586613 1.378313 -0.086607 0
M  V30 14 N 1.802414 1.596548 1.076158 0
M  V30 15 C 0.952888 0.539711 1.501620 0
M  V30 16 C -0.084261 0.106175 0.567589 0
M  V30 17 C 0.124473 -0.915066 -0.335209 0
M  V30 18 C -0.850554 -1.323334 -1.219782 0
M  V30 19 C -2.114976 -0.703590 -1.234540 0
M  V30 20 C -3.193304 -1.031628 -2.140348 0
M  V30 21 N -2.887778 -0.830703 -3.455524 0
M  V30 22 N -3.939844 -1.103963 -4.219920 0
M  V30 23 C -4.936983 -1.484137 -3.409190 0
M  V30 24 N -4.462959 -1.436584 -2.155864 0
M  V30 25 C -5.113840 -1.746016 -0.949895 0
M  V30 26 C -4.201691 -2.114038 0.000387 0
M  V30 27 C -4.683348 -2.397361 1.262016 0
M  V30 28 C -6.062590 -2.292353 1.482199 0
M  V30 29 N -6.965924 -1.927519 0.523869 0
M  V30 30 C -6.466627 -1.655207 -0.705495 0
M  V30 31 N -7.536447 -1.360126 -1.634696 0
M  V30 32 C -7.414849 -1.709436 -3.036619 0
M  V30 33 C -8.677866 -1.991108 -3.551265 0
M  V30 34 C -8.746545 -2.360626 -4.877249 0
M  V30 35 C -7.602056 -2.450728 -5.676802 0
M  V30 36 C -6.347273 -2.174395 -5.180980 0
M  V30 37 C -6.285048 -1.806462 -3.860331 0
M  V30 38 C -2.258885 0.328468 -0.288897 0
M  V30 39 C -1.305246 0.760613 0.608560 0
M  V30 40 C 2.511349 2.176413 2.196832 0
M  V30 41 C 3.727013 1.371814 2.606098 0
M  V30 42 H 8.995705 1.917903 3.068126 0
M  V30 43 H 8.201336 1.675246 4.657347 0
M  V30 44 H 9.231011 0.373589 3.936088 0
M  V30 45 H 7.708656 -0.744548 5.160437 0
M  V30 46 H 6.324232 -2.672954 5.806486 0
M  V30 47 H 4.485963 -3.455850 4.413113 0
M  V30 48 H 3.966188 -2.288571 2.260288 0
M  V30 49 H 4.082154 2.821293 0.496387 0
M  V30 50 H 4.712169 1.550384 -0.646573 0
M  V30 51 H 2.279284 1.997638 -0.954000 0
M  V30 52 H 2.641830 0.297146 -0.314388 0
M  V30 53 H 1.609822 -0.327885 1.811643 0
M  V30 54 H 0.438121 0.815587 2.458312 0
M  V30 55 H 1.044579 -1.457399 -0.409183 0
M  V30 56 H -0.739397 -2.119993 -1.950045 0
M  V30 57 H -3.157553 -2.276631 -0.044284 0
M  V30 58 H -4.101154 -2.699070 2.122365 0
M  V30 59 H -6.485852 -2.502124 2.453879 0
M  V30 60 H -8.397475 -0.911513 -1.286382 0
M  V30 61 H -9.524523 -1.902608 -2.889157 0
M  V30 62 H -9.715413 -2.584995 -5.302606 0
M  V30 63 H -7.653222 -2.741732 -6.719654 0
M  V30 64 H -5.409467 -2.208667 -5.692461 0
M  V30 65 H -3.244897 0.813957 -0.298125 0
M  V30 66 H -1.572834 1.570174 1.274025 0
M  V30 67 H 1.825014 2.138177 3.073816 0
M  V30 68 H 2.800662 3.233346 2.027161 0
M  V30 69 H 4.465348 2.011957 3.149312 0
M  V30 70 H 3.459421 0.523535 3.266049 0
M  V30 END ATOM
M  V30 BEGIN BOND
M  V30 1 1 1 2
M  V30 2 1 2 3
M  V30 3 2 3 4
M  V30 4 1 4 5
M  V30 5 2 5 6
M  V30 6 1 6 7
M  V30 7 2 7 8
M  V30 8 1 8 9
M  V30 9 2 9 10
M  V30 10 1 9 11
M  V30 11 1 11 12
M  V30 12 1 12 13
M  V30 13 1 13 14
M  V30 14 1 14 15
M  V30 15 1 15 16
M  V30 16 2 16 17
M  V30 17 1 17 18
M  V30 18 2 18 19
M  V30 19 1 19 20
M  V30 20 2 20 21
M  V30 21 1 21 22
M  V30 22 2 22 23
M  V30 23 1 23 24
M  V30 24 1 24 25
M  V30 25 2 25 26
M  V30 26 1 26 27
M  V30 27 2 27 28
M  V30 28 1 28 29
M  V30 29 2 29 30
M  V30 30 1 30 31
M  V30 31 1 31 32
M  V30 32 2 32 33
M  V30 33 1 33 34
M  V30 34 2 34 35
M  V30 35 1 35 36
M  V30 36 2 36 37
M  V30 37 1 19 38
M  V30 38 2 38 39
M  V30 39 1 14 40
M  V30 40 1 40 41
M  V30 41 1 8 3
M  V30 42 1 41 11
M  V30 43 1 39 16
M  V30 44 1 24 20
M  V30 45 1 30 25
M  V30 46 1 37 32
M  V30 47 1 37 23
M  V30 48 1 1 42
M  V30 49 1 1 43
M  V30 50 1 1 44
M  V30 51 1 4 45
M  V30 52 1 5 46
M  V30 53 1 6 47
M  V30 54 1 7 48
M  V30 55 1 12 49
M  V30 56 1 12 50
M  V30 57 1 13 51
M  V30 58 1 13 52
M  V30 59 1 15 53
M  V30 60 1 15 54
M  V30 61 1 17 55
M  V30 62 1 18 56
M  V30 63 1 26 57
M  V30 64 1 27 58
M  V30 65 1 28 59
M  V30 66 1 31 60
M  V30 67 1 33 61
M  V30 68 1 34 62
M  V30 69 1 35 63
M  V30 70 1 36 64
M  V30 71 1 38 65
M  V30 72 1 39 66
M  V30 73 1 40 67
M  V30 74 1 40 68
M  V30 75 1 41 69
M  V30 76 1 41 70
M  V30 END BOND
M  V30 END CTAB
M  END
>  <Dataset>  (37) 
ChEMBL_Kinases

>  <Ligand_Instance>  (37) 
nan

>  <PDB_ID>  (37) 
nan

>  <Standardized_SMILES>  (37) 
COc1ccccc1C(=O)N1CCN(Cc2ccc(-c3nnc4n3-c3cccnc3Nc3ccccc3-4)cc2)CC1

>  <Name>  (37) 
nan

>  <Pocket>  (37) 
nan

>  <ATP_Site>  (37) 
nan

>  <Peripheral>  (37) 
nan

>  <Num_H_Atoms_ProtBoundConf>  (37) 
nan

>  <Num_Resolved_Atoms>  (37) 
nan

>  <Num_Not_Resolved_Atoms>  (37) 
nan

$$$$
CHEMBL3684445
     RDKit          3D

  0  0  0  0  0  0  0  0  0  0999 V3000
M  V30 BEGIN CTAB
M  V30 COUNTS 72 78 0 0 0
M  V30 BEGIN ATOM
M  V30 1 O 3.563952 1.146388 -3.555190 0
M  V30 2 C 2.369056 0.766704 -3.480792 0
M  V30 3 C 1.643456 -0.502985 -3.609004 0
M  V30 4 C 2.574895 -1.655449 -3.851294 0
M  V30 5 C 3.554012 -1.889064 -2.787442 0
M  V30 6 C 3.026438 -2.673640 -1.755970 0
M  V30 7 C 3.756244 -3.046633 -0.643495 0
M  V30 8 C 5.061497 -2.649494 -0.506938 0
M  V30 9 C 5.594910 -1.877184 -1.514068 0
M  V30 10 C 4.860400 -1.514613 -2.612069 0
M  V30 11 N 1.505084 1.892023 -3.194126 0
M  V30 12 C 0.065010 1.757307 -3.049591 0
M  V30 13 C -0.633631 3.070353 -2.859287 0
M  V30 14 N -0.062853 3.791225 -1.784149 0
M  V30 15 C -0.720297 3.823110 -0.541311 0
M  V30 16 C -0.890039 2.470480 0.044437 0
M  V30 17 C 0.138514 1.989455 0.826849 0
M  V30 18 C 0.100885 0.751737 1.434341 0
M  V30 19 C -1.018791 -0.084495 1.271846 0
M  V30 20 C -1.174728 -1.412299 1.820769 0
M  V30 21 N -0.251621 -2.315165 1.370666 0
M  V30 22 N -0.494028 -3.515034 1.879889 0
M  V30 23 C -1.561860 -3.412516 2.656731 0
M  V30 24 N -1.964992 -2.132992 2.616927 0
M  V30 25 C -3.048657 -1.517210 3.275760 0
M  V30 26 C -2.800320 -0.181216 3.437166 0
M  V30 27 C -3.795174 0.577292 4.019792 0
M  V30 28 C -4.974832 -0.075252 4.401234 0
M  V30 29 N -5.210620 -1.411536 4.238878 0
M  V30 30 C -4.218370 -2.123636 3.666847 0
M  V30 31 N -4.561548 -3.528829 3.624524 0
M  V30 32 C -3.536046 -4.547654 3.735610 0
M  V30 33 C -4.078187 -5.679934 4.356887 0
M  V30 34 C -3.227793 -6.745412 4.558266 0
M  V30 35 C -1.900234 -6.701205 4.165854 0
M  V30 36 C -1.345104 -5.598127 3.552153 0
M  V30 37 C -2.187905 -4.534103 3.348685 0
M  V30 38 C -2.069496 0.404359 0.474121 0
M  V30 39 C -1.986131 1.649351 -0.113010 0
M  V30 40 C 1.346805 3.937853 -1.816225 0
M  V30 41 C 1.976370 3.272517 -3.021441 0
M  V30 42 H 0.975023 -0.693144 -2.738179 0
M  V30 43 H 0.935729 -0.493279 -4.490544 0
M  V30 44 H 2.022308 -2.596870 -4.080351 0
M  V30 45 H 3.167463 -1.377284 -4.763852 0
M  V30 46 H 2.012279 -3.064669 -1.718686 0
M  V30 47 H 3.369951 -3.650786 0.163160 0
M  V30 48 H 5.742329 -2.866729 0.303693 0
M  V30 49 H 6.604071 -1.503052 -1.525384 0
M  V30 50 H 5.246688 -0.923530 -3.425417 0
M  V30 51 H -0.195604 1.010626 -2.290239 0
M  V30 52 H -0.308505 1.327845 -4.019329 0
M  V30 53 H -1.690199 2.831376 -2.621200 0
M  V30 54 H -0.674237 3.656477 -3.810063 0
M  V30 55 H -0.114635 4.432392 0.164616 0
M  V30 56 H -1.701404 4.363650 -0.600328 0
M  V30 57 H 1.069932 2.477110 1.070729 0
M  V30 58 H 0.859226 0.302805 2.058939 0
M  V30 59 H -1.948211 0.413192 3.239457 0
M  V30 60 H -3.795243 1.645523 4.232612 0
M  V30 61 H -5.790043 0.459938 4.859089 0
M  V30 62 H -5.555631 -3.806178 3.529413 0
M  V30 63 H -5.121458 -5.650435 4.635829 0
M  V30 64 H -3.621122 -7.633445 5.036621 0
M  V30 65 H -1.221078 -7.540205 4.322359 0
M  V30 66 H -0.341747 -5.452597 3.208703 0
M  V30 67 H -2.971364 -0.179231 0.297627 0
M  V30 68 H -2.807964 2.002657 -0.714680 0
M  V30 69 H 1.609066 5.011995 -1.854395 0
M  V30 70 H 1.845648 3.533061 -0.915479 0
M  V30 71 H 1.777310 3.878210 -3.910791 0
M  V30 72 H 3.079424 3.191969 -2.856126 0
M  V30 END ATOM
M  V30 BEGIN BOND
M  V30 1 2 1 2
M  V30 2 1 2 3
M  V30 3 1 3 4
M  V30 4 1 4 5
M  V30 5 2 5 6
M  V30 6 1 6 7
M  V30 7 2 7 8
M  V30 8 1 8 9
M  V30 9 2 9 10
M  V30 10 1 2 11
M  V30 11 1 11 12
M  V30 12 1 12 13
M  V30 13 1 13 14
M  V30 14 1 14 15
M  V30 15 1 15 16
M  V30 16 2 16 17
M  V30 17 1 17 18
M  V30 18 2 18 19
M  V30 19 1 19 20
M  V30 20 2 20 21
M  V30 21 1 21 22
M  V30 22 2 22 23
M  V30 23 1 23 24
M  V30 24 1 24 25
M  V30 25 2 25 26
M  V30 26 1 26 27
M  V30 27 2 27 28
M  V30 28 1 28 29
M  V30 29 2 29 30
M  V30 30 1 30 31
M  V30 31 1 31 32
M  V30 32 2 32 33
M  V30 33 1 33 34
M  V30 34 2 34 35
M  V30 35 1 35 36
M  V30 36 2 36 37
M  V30 37 1 19 38
M  V30 38 2 38 39
M  V30 39 1 14 40
M  V30 40 1 40 41
M  V30 41 1 10 5
M  V30 42 1 41 11
M  V30 43 1 39 16
M  V30 44 1 24 20
M  V30 45 1 30 25
M  V30 46 1 37 32
M  V30 47 1 37 23
M  V30 48 1 3 42
M  V30 49 1 3 43
M  V30 50 1 4 44
M  V30 51 1 4 45
M  V30 52 1 6 46
M  V30 53 1 7 47
M  V30 54 1 8 48
M  V30 55 1 9 49
M  V30 56 1 10 50
M  V30 57 1 12 51
M  V30 58 1 12 52
M  V30 59 1 13 53
M  V30 60 1 13 54
M  V30 61 1 15 55
M  V30 62 1 15 56
M  V30 63 1 17 57
M  V30 64 1 18 58
M  V30 65 1 26 59
M  V30 66 1 27 60
M  V30 67 1 28 61
M  V30 68 1 31 62
M  V30 69 1 33 63
M  V30 70 1 34 64
M  V30 71 1 35 65
M  V30 72 1 36 66
M  V30 73 1 38 67
M  V30 74 1 39 68
M  V30 75 1 40 69
M  V30 76 1 40 70
M  V30 77 1 41 71
M  V30 78 1 41 72
M  V30 END BOND
M  V30 END CTAB
M  END
>  <Dataset>  (38) 
ChEMBL_Kinases

>  <Ligand_Instance>  (38) 
nan

>  <PDB_ID>  (38) 
nan

>  <Standardized_SMILES>  (38) 
O=C(CCc1ccccc1)N1CCN(Cc2ccc(-c3nnc4n3-c3cccnc3Nc3ccccc3-4)cc2)CC1

>  <Name>  (38) 
nan

>  <Pocket>  (38) 
nan

>  <ATP_Site>  (38) 
nan

>  <Peripheral>  (38) 
nan

>  <Num_H_Atoms_ProtBoundConf>  (38) 
nan

>  <Num_Resolved_Atoms>  (38) 
nan

>  <Num_Not_Resolved_Atoms>  (38) 
nan

$$$$
CHEMBL3684446
     RDKit          3D

  0  0  0  0  0  0  0  0  0  0999 V3000
M  V30 BEGIN CTAB
M  V30 COUNTS 69 75 0 0 0
M  V30 BEGIN ATOM
M  V30 1 C 4.264490 -1.981528 5.615368 0
M  V30 2 C 3.039526 -1.368721 5.015616 0
M  V30 3 C 1.816517 -1.973754 5.134432 0
M  V30 4 C 0.689600 -1.403970 4.572471 0
M  V30 5 C 0.746189 -0.207570 3.871266 0
M  V30 6 C 1.969561 0.432381 3.731835 0
M  V30 7 C 2.303735 1.670966 3.055060 0
M  V30 8 O 1.717651 2.448634 3.856421 0
M  V30 9 N 3.056730 1.885340 1.866470 0
M  V30 10 C 3.542220 0.686115 1.258021 0
M  V30 11 C 4.146139 1.007648 -0.077416 0
M  V30 12 N 3.488116 2.068137 -0.709441 0
M  V30 13 C 2.736965 1.811223 -1.864988 0
M  V30 14 C 1.467790 1.121422 -1.541269 0
M  V30 15 C 0.387394 2.010070 -1.426894 0
M  V30 16 C -0.896070 1.633611 -1.147283 0
M  V30 17 C -1.180459 0.291615 -0.957854 0
M  V30 18 C -2.458559 -0.321448 -0.643857 0
M  V30 19 N -3.140732 0.127819 0.449902 0
M  V30 20 N -4.247395 -0.588958 0.637369 0
M  V30 21 C -4.286481 -1.500008 -0.327472 0
M  V30 22 N -3.208669 -1.332483 -1.101105 0
M  V30 23 C -2.831266 -2.053053 -2.256100 0
M  V30 24 C -2.096780 -1.244703 -3.087991 0
M  V30 25 C -1.605321 -1.888346 -4.226079 0
M  V30 26 C -1.857960 -3.235063 -4.470567 0
M  V30 27 N -2.598783 -4.004500 -3.620104 0
M  V30 28 C -3.081800 -3.390234 -2.510524 0
M  V30 29 N -3.924958 -4.293612 -1.752638 0
M  V30 30 C -5.077899 -3.792394 -1.021080 0
M  V30 31 C -6.068982 -4.783507 -1.001563 0
M  V30 32 C -7.239457 -4.452376 -0.354241 0
M  V30 33 C -7.458258 -3.220841 0.251887 0
M  V30 34 C -6.480152 -2.242562 0.231931 0
M  V30 35 C -5.322358 -2.553121 -0.399225 0
M  V30 36 C -0.108549 -0.608917 -1.068188 0
M  V30 37 C 1.176564 -0.207841 -1.351284 0
M  V30 38 C 3.404033 3.327325 -0.088840 0
M  V30 39 C 3.258745 3.217819 1.413295 0
M  V30 40 C 3.092482 -0.162267 4.308000 0
M  V30 41 H 4.452487 -2.971755 5.166912 0
M  V30 42 H 4.134440 -2.096572 6.710127 0
M  V30 43 H 5.144210 -1.316921 5.451541 0
M  V30 44 H 1.694056 -2.917978 5.676450 0
M  V30 45 H -0.298926 -1.845473 4.640442 0
M  V30 46 H -0.048964 0.320891 3.397587 0
M  V30 47 H 2.681568 -0.006792 1.100966 0
M  V30 48 H 4.294387 0.201373 1.931962 0
M  V30 49 H 5.235262 1.192423 0.125324 0
M  V30 50 H 4.139281 0.122680 -0.764008 0
M  V30 51 H 3.275196 1.104880 -2.579564 0
M  V30 52 H 2.542829 2.719457 -2.491048 0
M  V30 53 H 0.459127 3.097612 -1.548490 0
M  V30 54 H -1.745247 2.288777 -1.056512 0
M  V30 55 H -1.896911 -0.203930 -3.028468 0
M  V30 56 H -1.001789 -1.327483 -4.948676 0
M  V30 57 H -1.457457 -3.720712 -5.366704 0
M  V30 58 H -3.708521 -5.299021 -1.752870 0
M  V30 59 H -5.857886 -5.710990 -1.474595 0
M  V30 60 H -8.032399 -5.188651 -0.313850 0
M  V30 61 H -8.381570 -2.965405 0.761852 0
M  V30 62 H -6.511628 -1.259077 0.652530 0
M  V30 63 H -0.210818 -1.694776 -0.939725 0
M  V30 64 H 2.050352 -0.834651 -1.451657 0
M  V30 65 H 2.447920 3.831764 -0.423274 0
M  V30 66 H 4.209344 4.053423 -0.381882 0
M  V30 67 H 4.250126 3.565869 1.825875 0
M  V30 68 H 2.505683 3.884925 1.844493 0
M  V30 69 H 4.111127 0.241985 4.276247 0
M  V30 END ATOM
M  V30 BEGIN BOND
M  V30 1 1 1 2
M  V30 2 2 2 3
M  V30 3 1 3 4
M  V30 4 2 4 5
M  V30 5 1 5 6
M  V30 6 1 6 7
M  V30 7 2 7 8
M  V30 8 1 7 9
M  V30 9 1 9 10
M  V30 10 1 10 11
M  V30 11 1 11 12
M  V30 12 1 12 13
M  V30 13 1 13 14
M  V30 14 2 14 15
M  V30 15 1 15 16
M  V30 16 2 16 17
M  V30 17 1 17 18
M  V30 18 2 18 19
M  V30 19 1 19 20
M  V30 20 2 20 21
M  V30 21 1 21 22
M  V30 22 1 22 23
M  V30 23 2 23 24
M  V30 24 1 24 25
M  V30 25 2 25 26
M  V30 26 1 26 27
M  V30 27 2 27 28
M  V30 28 1 28 29
M  V30 29 1 29 30
M  V30 30 2 30 31
M  V30 31 1 31 32
M  V30 32 2 32 33
M  V30 33 1 33 34
M  V30 34 2 34 35
M  V30 35 1 17 36
M  V30 36 2 36 37
M  V30 37 1 12 38
M  V30 38 1 38 39
M  V30 39 2 6 40
M  V30 40 1 40 2
M  V30 41 1 39 9
M  V30 42 1 37 14
M  V30 43 1 22 18
M  V30 44 1 28 23
M  V30 45 1 35 30
M  V30 46 1 35 21
M  V30 47 1 1 41
M  V30 48 1 1 42
M  V30 49 1 1 43
M  V30 50 1 3 44
M  V30 51 1 4 45
M  V30 52 1 5 46
M  V30 53 1 10 47
M  V30 54 1 10 48
M  V30 55 1 11 49
M  V30 56 1 11 50
M  V30 57 1 13 51
M  V30 58 1 13 52
M  V30 59 1 15 53
M  V30 60 1 16 54
M  V30 61 1 24 55
M  V30 62 1 25 56
M  V30 63 1 26 57
M  V30 64 1 29 58
M  V30 65 1 31 59
M  V30 66 1 32 60
M  V30 67 1 33 61
M  V30 68 1 34 62
M  V30 69 1 36 63
M  V30 70 1 37 64
M  V30 71 1 38 65
M  V30 72 1 38 66
M  V30 73 1 39 67
M  V30 74 1 39 68
M  V30 75 1 40 69
M  V30 END BOND
M  V30 END CTAB
M  END
>  <Dataset>  (39) 
ChEMBL_Kinases

>  <Ligand_Instance>  (39) 
nan

>  <PDB_ID>  (39) 
nan

>  <Standardized_SMILES>  (39) 
Cc1cccc(C(=O)N2CCN(Cc3ccc(-c4nnc5n4-c4cccnc4Nc4ccccc4-5)cc3)CC2)c1

>  <Name>  (39) 
nan

>  <Pocket>  (39) 
nan

>  <ATP_Site>  (39) 
nan

>  <Peripheral>  (39) 
nan

>  <Num_H_Atoms_ProtBoundConf>  (39) 
nan

>  <Num_Resolved_Atoms>  (39) 
nan

>  <Num_Not_Resolved_Atoms>  (39) 
nan

$$$$
CHEMBL3684447
     RDKit          3D

  0  0  0  0  0  0  0  0  0  0999 V3000
M  V30 BEGIN CTAB
M  V30 COUNTS 70 76 0 0 0
M  V30 BEGIN ATOM
M  V30 1 C 6.355798 -4.400066 5.337034 0
M  V30 2 O 5.661135 -4.449964 4.115951 0
M  V30 3 C 5.438476 -3.244012 3.439944 0
M  V30 4 C 5.839888 -2.017464 3.869464 0
M  V30 5 C 5.546523 -0.877792 3.081217 0
M  V30 6 C 4.842942 -1.155196 1.895398 0
M  V30 7 C 4.568895 0.041609 1.111137 0
M  V30 8 O 5.731481 0.266576 0.608377 0
M  V30 9 N 3.543181 0.949046 0.757917 0
M  V30 10 C 2.129640 0.893422 1.185486 0
M  V30 11 C 1.685988 2.327077 1.437697 0
M  V30 12 N 1.733002 3.115399 0.246633 0
M  V30 13 C 0.565904 3.767355 -0.180189 0
M  V30 14 C -0.565884 2.956150 -0.628711 0
M  V30 15 C -1.512374 2.380588 0.208565 0
M  V30 16 C -2.558791 1.616209 -0.329471 0
M  V30 17 C -2.685752 1.409655 -1.721473 0
M  V30 18 C -3.866535 0.585826 -1.915379 0
M  V30 19 N -4.939886 1.116573 -2.521613 0
M  V30 20 N -5.955740 0.235673 -2.541342 0
M  V30 21 C -5.501589 -0.858414 -1.937280 0
M  V30 22 N -4.234936 -0.647732 -1.562037 0
M  V30 23 C -3.368107 -1.541169 -0.907370 0
M  V30 24 C -2.048710 -1.275182 -1.166416 0
M  V30 25 C -1.031840 -2.002907 -0.580380 0
M  V30 26 C -1.420384 -3.029353 0.290406 0
M  V30 27 N -2.716758 -3.314109 0.557463 0
M  V30 28 C -3.675641 -2.567149 -0.046072 0
M  V30 29 N -4.991352 -3.058925 0.286484 0
M  V30 30 C -6.085952 -2.976702 -0.663128 0
M  V30 31 C -6.963849 -4.048422 -0.450127 0
M  V30 32 C -8.059244 -4.119259 -1.280140 0
M  V30 33 C -8.295106 -3.193072 -2.271669 0
M  V30 34 C -7.439693 -2.131790 -2.493162 0
M  V30 35 C -6.343830 -2.043545 -1.677643 0
M  V30 36 C -1.741658 1.987978 -2.548543 0
M  V30 37 C -0.725825 2.731708 -1.983066 0
M  V30 38 C 2.555620 2.496664 -0.774183 0
M  V30 39 C 3.855077 2.064530 -0.108388 0
M  V30 40 C 4.444331 -2.388308 1.473450 0
M  V30 41 C 4.736656 -3.520022 2.257148 0
M  V30 42 H 6.809516 -5.368694 5.644452 0
M  V30 43 H 5.644807 -4.107143 6.158519 0
M  V30 44 H 7.219193 -3.679214 5.305039 0
M  V30 45 H 6.365526 -1.918186 4.784400 0
M  V30 46 H 5.847546 0.102701 3.394665 0
M  V30 47 H 2.129421 0.350832 2.144275 0
M  V30 48 H 1.471188 0.482708 0.418847 0
M  V30 49 H 2.467918 2.769379 2.122908 0
M  V30 50 H 0.776219 2.320922 1.989608 0
M  V30 51 H 0.859289 4.465062 -1.023489 0
M  V30 52 H 0.232255 4.469232 0.620870 0
M  V30 53 H -1.420300 2.546897 1.274318 0
M  V30 54 H -3.214381 1.236597 0.476001 0
M  V30 55 H -1.673239 -0.560700 -1.853453 0
M  V30 56 H 0.040199 -1.840388 -0.739531 0
M  V30 57 H -0.618826 -3.619836 0.771535 0
M  V30 58 H -5.139338 -3.484569 1.203973 0
M  V30 59 H -6.716042 -4.742003 0.354698 0
M  V30 60 H -8.725522 -4.951556 -1.102282 0
M  V30 61 H -9.161722 -3.272138 -2.910420 0
M  V30 62 H -7.539796 -1.361297 -3.243297 0
M  V30 63 H -1.986066 1.736342 -3.565418 0
M  V30 64 H -0.061511 3.121639 -2.771318 0
M  V30 65 H 2.105961 1.636540 -1.271544 0
M  V30 66 H 2.875182 3.254403 -1.531037 0
M  V30 67 H 4.627675 1.806278 -0.860887 0
M  V30 68 H 4.252283 2.885330 0.526590 0
M  V30 69 H 3.902599 -2.529813 0.543892 0
M  V30 70 H 4.406643 -4.465132 1.884601 0
M  V30 END ATOM
M  V30 BEGIN BOND
M  V30 1 1 1 2
M  V30 2 1 2 3
M  V30 3 2 3 4
M  V30 4 1 4 5
M  V30 5 2 5 6
M  V30 6 1 6 7
M  V30 7 2 7 8
M  V30 8 1 7 9
M  V30 9 1 9 10
M  V30 10 1 10 11
M  V30 11 1 11 12
M  V30 12 1 12 13
M  V30 13 1 13 14
M  V30 14 2 14 15
M  V30 15 1 15 16
M  V30 16 2 16 17
M  V30 17 1 17 18
M  V30 18 2 18 19
M  V30 19 1 19 20
M  V30 20 2 20 21
M  V30 21 1 21 22
M  V30 22 1 22 23
M  V30 23 2 23 24
M  V30 24 1 24 25
M  V30 25 2 25 26
M  V30 26 1 26 27
M  V30 27 2 27 28
M  V30 28 1 28 29
M  V30 29 1 29 30
M  V30 30 2 30 31
M  V30 31 1 31 32
M  V30 32 2 32 33
M  V30 33 1 33 34
M  V30 34 2 34 35
M  V30 35 1 17 36
M  V30 36 2 36 37
M  V30 37 1 12 38
M  V30 38 1 38 39
M  V30 39 1 6 40
M  V30 40 2 40 41
M  V30 41 1 41 3
M  V30 42 1 39 9
M  V30 43 1 37 14
M  V30 44 1 22 18
M  V30 45 1 28 23
M  V30 46 1 35 30
M  V30 47 1 35 21
M  V30 48 1 1 42
M  V30 49 1 1 43
M  V30 50 1 1 44
M  V30 51 1 4 45
M  V30 52 1 5 46
M  V30 53 1 10 47
M  V30 54 1 10 48
M  V30 55 1 11 49
M  V30 56 1 11 50
M  V30 57 1 13 51
M  V30 58 1 13 52
M  V30 59 1 15 53
M  V30 60 1 16 54
M  V30 61 1 24 55
M  V30 62 1 25 56
M  V30 63 1 26 57
M  V30 64 1 29 58
M  V30 65 1 31 59
M  V30 66 1 32 60
M  V30 67 1 33 61
M  V30 68 1 34 62
M  V30 69 1 36 63
M  V30 70 1 37 64
M  V30 71 1 38 65
M  V30 72 1 38 66
M  V30 73 1 39 67
M  V30 74 1 39 68
M  V30 75 1 40 69
M  V30 76 1 41 70
M  V30 END BOND
M  V30 END CTAB
M  END
>  <Dataset>  (40) 
ChEMBL_Kinases

>  <Ligand_Instance>  (40) 
nan

>  <PDB_ID>  (40) 
nan

>  <Standardized_SMILES>  (40) 
COc1ccc(C(=O)N2CCN(Cc3ccc(-c4nnc5n4-c4cccnc4Nc4ccccc4-5)cc3)CC2)cc1

>  <Name>  (40) 
nan

>  <Pocket>  (40) 
nan

>  <ATP_Site>  (40) 
nan

>  <Peripheral>  (40) 
nan

>  <Num_H_Atoms_ProtBoundConf>  (40) 
nan

>  <Num_Resolved_Atoms>  (40) 
nan

>  <Num_Not_Resolved_Atoms>  (40) 
nan

$$$$
CHEMBL3684457
     RDKit          3D

  0  0  0  0  0  0  0  0  0  0999 V3000
M  V30 BEGIN CTAB
M  V30 COUNTS 70 76 0 0 0
M  V30 BEGIN ATOM
M  V30 1 O 3.911135 2.555038 5.803109 0
M  V30 2 S 3.466097 2.314704 4.364278 0
M  V30 3 O 4.659025 2.747991 3.516927 0
M  V30 4 N 2.184109 3.346953 3.949701 0
M  V30 5 C 1.744583 3.306944 2.601581 0
M  V30 6 C 0.245610 3.172388 2.557851 0
M  V30 7 C -0.145793 2.795542 1.141350 0
M  V30 8 N 0.926244 3.229800 0.258410 0
M  V30 9 C 0.497970 3.157871 -1.131209 0
M  V30 10 C 0.093305 1.816985 -1.554175 0
M  V30 11 C 0.978761 0.900931 -2.081962 0
M  V30 12 C 0.543858 -0.348042 -2.468890 0
M  V30 13 C -0.796886 -0.762287 -2.354410 0
M  V30 14 C -1.324589 -2.016527 -2.761119 0
M  V30 15 N -1.183646 -2.245513 -4.101450 0
M  V30 16 N -1.746987 -3.420821 -4.419823 0
M  V30 17 C -2.247105 -3.946899 -3.299121 0
M  V30 18 N -1.979231 -3.087804 -2.312597 0
M  V30 19 C -2.293818 -3.188966 -0.945060 0
M  V30 20 C -1.410837 -2.451061 -0.200262 0
M  V30 21 C -1.616228 -2.400737 1.163863 0
M  V30 22 C -2.706745 -3.106251 1.689274 0
M  V30 23 N -3.585140 -3.845947 0.944265 0
M  V30 24 C -3.349972 -3.872887 -0.403192 0
M  V30 25 N -4.304537 -4.748425 -1.052551 0
M  V30 26 C -3.921181 -5.493046 -2.236321 0
M  V30 27 C -4.638183 -6.695310 -2.273003 0
M  V30 28 C -4.379043 -7.537873 -3.334708 0
M  V30 29 C -3.457217 -7.215836 -4.317582 0
M  V30 30 C -2.742311 -6.037114 -4.299416 0
M  V30 31 C -2.996135 -5.195001 -3.246455 0
M  V30 32 C -1.618710 0.232725 -1.809290 0
M  V30 33 C -1.242905 1.499898 -1.403468 0
M  V30 34 C 1.240064 4.606772 0.599598 0
M  V30 35 C 2.022973 4.655330 1.888521 0
M  V30 36 C 3.151533 0.618382 4.165346 0
M  V30 37 C 2.059416 -0.094799 3.725381 0
M  V30 38 C 2.087220 -1.469285 3.667784 0
M  V30 39 C 3.203779 -2.215995 4.044581 0
M  V30 40 C 4.292794 -1.495684 4.483653 0
M  V30 41 C 4.285051 -0.117361 4.548796 0
M  V30 42 F 5.470657 0.353408 5.010783 0
M  V30 43 H 2.223280 4.253836 4.416644 0
M  V30 44 H 2.260537 2.549955 1.975765 0
M  V30 45 H -0.159977 4.201691 2.799447 0
M  V30 46 H -0.098127 2.465493 3.302496 0
M  V30 47 H -1.081325 3.325785 0.888777 0
M  V30 48 H -0.194350 1.704108 1.087102 0
M  V30 49 H 1.359553 3.561819 -1.724559 0
M  V30 50 H -0.350913 3.887764 -1.274584 0
M  V30 51 H 2.015345 1.195385 -2.180166 0
M  V30 52 H 1.232907 -1.091910 -2.891226 0
M  V30 53 H -0.533829 -1.919486 -0.460409 0
M  V30 54 H -1.026283 -1.871022 1.901199 0
M  V30 55 H -2.914062 -3.098555 2.749899 0
M  V30 56 H -5.249209 -4.850767 -0.659241 0
M  V30 57 H -5.338648 -6.883954 -1.482760 0
M  V30 58 H -4.919352 -8.473555 -3.386950 0
M  V30 59 H -3.248636 -7.879868 -5.159675 0
M  V30 60 H -2.008681 -5.686912 -5.003878 0
M  V30 61 H -2.668412 -0.047607 -1.702377 0
M  V30 62 H -2.006268 2.150774 -1.001169 0
M  V30 63 H 0.296445 5.154917 0.798144 0
M  V30 64 H 1.860558 5.093606 -0.176556 0
M  V30 65 H 1.710382 5.481525 2.554611 0
M  V30 66 H 3.086580 4.618659 1.647123 0
M  V30 67 H 1.270635 0.566382 3.464777 0
M  V30 68 H 1.172948 -1.923755 3.307155 0
M  V30 69 H 3.090102 -3.275532 3.950504 0
M  V30 70 H 5.123586 -2.145287 4.759423 0
M  V30 END ATOM
M  V30 BEGIN BOND
M  V30 1 2 1 2
M  V30 2 2 2 3
M  V30 3 1 2 4
M  V30 4 1 4 5
M  V30 5 1 5 6
M  V30 6 1 6 7
M  V30 7 1 7 8
M  V30 8 1 8 9
M  V30 9 1 9 10
M  V30 10 2 10 11
M  V30 11 1 11 12
M  V30 12 2 12 13
M  V30 13 1 13 14
M  V30 14 2 14 15
M  V30 15 1 15 16
M  V30 16 2 16 17
M  V30 17 1 17 18
M  V30 18 1 18 19
M  V30 19 2 19 20
M  V30 20 1 20 21
M  V30 21 2 21 22
M  V30 22 1 22 23
M  V30 23 2 23 24
M  V30 24 1 24 25
M  V30 25 1 25 26
M  V30 26 2 26 27
M  V30 27 1 27 28
M  V30 28 2 28 29
M  V30 29 1 29 30
M  V30 30 2 30 31
M  V30 31 1 13 32
M  V30 32 2 32 33
M  V30 33 1 8 34
M  V30 34 1 34 35
M  V30 35 1 2 36
M  V30 36 2 36 37
M  V30 37 1 37 38
M  V30 38 2 38 39
M  V30 39 1 39 40
M  V30 40 2 40 41
M  V30 41 1 41 42
M  V30 42 1 35 5
M  V30 43 1 41 36
M  V30 44 1 33 10
M  V30 45 1 18 14
M  V30 46 1 24 19
M  V30 47 1 31 26
M  V30 48 1 31 17
M  V30 49 1 4 43
M  V30 50 1 5 44
M  V30 51 1 6 45
M  V30 52 1 6 46
M  V30 53 1 7 47
M  V30 54 1 7 48
M  V30 55 1 9 49
M  V30 56 1 9 50
M  V30 57 1 11 51
M  V30 58 1 12 52
M  V30 59 1 20 53
M  V30 60 1 21 54
M  V30 61 1 22 55
M  V30 62 1 25 56
M  V30 63 1 27 57
M  V30 64 1 28 58
M  V30 65 1 29 59
M  V30 66 1 30 60
M  V30 67 1 32 61
M  V30 68 1 33 62
M  V30 69 1 34 63
M  V30 70 1 34 64
M  V30 71 1 35 65
M  V30 72 1 35 66
M  V30 73 1 37 67
M  V30 74 1 38 68
M  V30 75 1 39 69
M  V30 76 1 40 70
M  V30 END BOND
M  V30 END CTAB
M  END
>  <Dataset>  (41) 
ChEMBL_Kinases

>  <Ligand_Instance>  (41) 
nan

>  <PDB_ID>  (41) 
nan

>  <Standardized_SMILES>  (41) 
O=S(=O)(NC1CCN(Cc2ccc(-c3nnc4n3-c3cccnc3Nc3ccccc3-4)cc2)CC1)c1ccccc1F

>  <Name>  (41) 
nan

>  <Pocket>  (41) 
nan

>  <ATP_Site>  (41) 
nan

>  <Peripheral>  (41) 
nan

>  <Num_H_Atoms_ProtBoundConf>  (41) 
nan

>  <Num_Resolved_Atoms>  (41) 
nan

>  <Num_Not_Resolved_Atoms>  (41) 
nan

$$$$
CHEMBL3684449
     RDKit          3D

  0  0  0  0  0  0  0  0  0  0999 V3000
M  V30 BEGIN CTAB
M  V30 COUNTS 67 73 0 0 0
M  V30 BEGIN ATOM
M  V30 1 C 4.500633 -2.826182 6.681970 0 CHG=-1 VAL=3
M  V30 2 N 4.045987 -1.936874 6.097913 0 CHG=1 VAL=4
M  V30 3 C 3.523638 -0.864487 5.401369 0
M  V30 4 C 3.480447 0.374908 5.994218 0
M  V30 5 C 2.958978 1.441022 5.294311 0
M  V30 6 C 2.503646 1.217859 4.030207 0
M  V30 7 C 1.913742 2.208988 3.122519 0
M  V30 8 O 2.136991 2.723486 1.995829 0
M  V30 9 N 0.709718 2.802105 3.632060 0
M  V30 10 C 0.013286 3.808602 2.823890 0
M  V30 11 C -1.340180 3.226216 2.387495 0
M  V30 12 N -1.650844 2.169097 3.262281 0
M  V30 13 C -2.561356 1.174638 2.854502 0
M  V30 14 C -1.986308 0.490619 1.648035 0
M  V30 15 C -1.181450 -0.572313 2.006379 0
M  V30 16 C -0.554281 -1.340075 1.045109 0
M  V30 17 C -0.723505 -1.053336 -0.325400 0
M  V30 18 C -0.064345 -1.799515 -1.377203 0
M  V30 19 N 1.296045 -1.733456 -1.318092 0
M  V30 20 N 1.830367 -2.397444 -2.341991 0
M  V30 21 C 0.822980 -2.898256 -3.072204 0
M  V30 22 N -0.313871 -2.527190 -2.468013 0
M  V30 23 C -1.647594 -2.802419 -2.831442 0
M  V30 24 C -2.458316 -2.753210 -1.730924 0
M  V30 25 C -3.808905 -2.947751 -1.937600 0
M  V30 26 C -4.243165 -3.181925 -3.249044 0
M  V30 27 N -3.425129 -3.232235 -4.333337 0
M  V30 28 C -2.110774 -3.039301 -4.106106 0
M  V30 29 N -1.355260 -3.195039 -5.323516 0
M  V30 30 C -0.002489 -3.715327 -5.302861 0
M  V30 31 C 0.265651 -4.401693 -6.477830 0
M  V30 32 C 1.504987 -4.977300 -6.620398 0
M  V30 33 C 2.476488 -4.884346 -5.622737 0
M  V30 34 C 2.235767 -4.207073 -4.444532 0
M  V30 35 C 0.991437 -3.636259 -4.318191 0
M  V30 36 C -1.554452 0.040496 -0.629541 0
M  V30 37 C -2.184049 0.811679 0.322638 0
M  V30 38 C -1.498429 2.447283 4.637757 0
M  V30 39 C 0.008505 2.562453 4.902935 0
M  V30 40 C 2.538382 -0.036345 3.408834 0
M  V30 41 C 3.067467 -1.120853 4.117452 0
M  V30 42 H 3.844421 0.554412 7.007289 0
M  V30 43 H 2.878338 2.448035 5.659620 0
M  V30 44 H -0.097697 4.705076 3.444567 0
M  V30 45 H 0.652785 4.059364 1.946967 0
M  V30 46 H -1.211095 2.944415 1.345102 0
M  V30 47 H -2.054852 4.073788 2.437020 0
M  V30 48 H -3.507884 1.660939 2.481447 0
M  V30 49 H -2.847362 0.451094 3.613891 0
M  V30 50 H -0.962848 -0.905391 3.029357 0
M  V30 51 H 0.086243 -2.182854 1.283897 0
M  V30 52 H -2.252521 -2.634455 -0.700677 0
M  V30 53 H -4.626388 -2.946043 -1.199681 0
M  V30 54 H -5.286979 -3.339217 -3.473797 0
M  V30 55 H -1.786552 -2.948040 -6.232257 0
M  V30 56 H -0.522616 -4.442885 -7.222844 0
M  V30 57 H 1.743575 -5.513742 -7.515114 0
M  V30 58 H 3.455179 -5.332305 -5.720460 0
M  V30 59 H 2.902034 -4.067736 -3.607175 0
M  V30 60 H -1.709002 0.291693 -1.659473 0
M  V30 61 H -2.824757 1.650411 0.147328 0
M  V30 62 H -1.927243 1.610777 5.252410 0
M  V30 63 H -1.994872 3.372160 5.000011 0
M  V30 64 H 0.349731 1.586710 5.283132 0
M  V30 65 H 0.244660 3.378491 5.587382 0
M  V30 66 H 2.195807 -0.280783 2.415716 0
M  V30 67 H 3.110217 -2.113376 3.664373 0
M  V30 END ATOM
M  V30 BEGIN BOND
M  V30 1 3 1 2
M  V30 2 1 2 3
M  V30 3 2 3 4
M  V30 4 1 4 5
M  V30 5 2 5 6
M  V30 6 1 6 7
M  V30 7 2 7 8
M  V30 8 1 7 9
M  V30 9 1 9 10
M  V30 10 1 10 11
M  V30 11 1 11 12
M  V30 12 1 12 13
M  V30 13 1 13 14
M  V30 14 2 14 15
M  V30 15 1 15 16
M  V30 16 2 16 17
M  V30 17 1 17 18
M  V30 18 2 18 19
M  V30 19 1 19 20
M  V30 20 2 20 21
M  V30 21 1 21 22
M  V30 22 1 22 23
M  V30 23 2 23 24
M  V30 24 1 24 25
M  V30 25 2 25 26
M  V30 26 1 26 27
M  V30 27 2 27 28
M  V30 28 1 28 29
M  V30 29 1 29 30
M  V30 30 2 30 31
M  V30 31 1 31 32
M  V30 32 2 32 33
M  V30 33 1 33 34
M  V30 34 2 34 35
M  V30 35 1 17 36
M  V30 36 2 36 37
M  V30 37 1 12 38
M  V30 38 1 38 39
M  V30 39 1 6 40
M  V30 40 2 40 41
M  V30 41 1 41 3
M  V30 42 1 39 9
M  V30 43 1 37 14
M  V30 44 1 22 18
M  V30 45 1 28 23
M  V30 46 1 35 30
M  V30 47 1 35 21
M  V30 48 1 4 42
M  V30 49 1 5 43
M  V30 50 1 10 44
M  V30 51 1 10 45
M  V30 52 1 11 46
M  V30 53 1 11 47
M  V30 54 1 13 48
M  V30 55 1 13 49
M  V30 56 1 15 50
M  V30 57 1 16 51
M  V30 58 1 24 52
M  V30 59 1 25 53
M  V30 60 1 26 54
M  V30 61 1 29 55
M  V30 62 1 31 56
M  V30 63 1 32 57
M  V30 64 1 33 58
M  V30 65 1 34 59
M  V30 66 1 36 60
M  V30 67 1 37 61
M  V30 68 1 38 62
M  V30 69 1 38 63
M  V30 70 1 39 64
M  V30 71 1 39 65
M  V30 72 1 40 66
M  V30 73 1 41 67
M  V30 END BOND
M  V30 END CTAB
M  END
>  <Dataset>  (42) 
ChEMBL_Kinases

>  <Ligand_Instance>  (42) 
nan

>  <PDB_ID>  (42) 
nan

>  <Standardized_SMILES>  (42) 
[C-]#[N+]c1ccc(C(=O)N2CCN(Cc3ccc(-c4nnc5n4-c4cccnc4Nc4ccccc4-5)cc3)CC2)cc1

>  <Name>  (42) 
nan

>  <Pocket>  (42) 
nan

>  <ATP_Site>  (42) 
nan

>  <Peripheral>  (42) 
nan

>  <Num_H_Atoms_ProtBoundConf>  (42) 
nan

>  <Num_Resolved_Atoms>  (42) 
nan

>  <Num_Not_Resolved_Atoms>  (42) 
nan

$$$$
CHEMBL3684450
     RDKit          3D

  0  0  0  0  0  0  0  0  0  0999 V3000
M  V30 BEGIN CTAB
M  V30 COUNTS 69 75 0 0 0
M  V30 BEGIN ATOM
M  V30 1 O 4.218857 -2.308880 0.860816 0
M  V30 2 C 4.679727 -1.149028 0.967953 0
M  V30 3 C 5.316995 -0.950576 2.285073 0
M  V30 4 C 5.242994 -2.155736 3.139593 0
M  V30 5 C 6.176852 -3.169294 3.179190 0
M  V30 6 C 6.040357 -4.271989 4.008607 0
M  V30 7 C 4.933365 -4.383272 4.838199 0
M  V30 8 C 3.991314 -3.380675 4.811478 0
M  V30 9 C 4.133130 -2.284779 3.983009 0
M  V30 10 N 4.716532 -0.002065 0.100105 0
M  V30 11 C 5.262861 1.355947 0.240761 0
M  V30 12 C 4.232213 2.384608 -0.245323 0
M  V30 13 N 2.988097 1.709082 -0.304376 0
M  V30 14 C 1.830173 2.400987 0.114294 0
M  V30 15 C 0.633156 1.531442 -0.019670 0
M  V30 16 C 0.319748 0.749720 1.069968 0
M  V30 17 C -0.780816 -0.076549 1.001930 0
M  V30 18 C -1.596770 -0.149985 -0.142722 0
M  V30 19 C -2.736840 -1.030546 -0.263150 0
M  V30 20 N -2.413593 -2.356187 -0.168358 0
M  V30 21 N -3.504102 -3.103329 -0.337399 0
M  V30 22 C -4.531712 -2.289799 -0.540728 0
M  V30 23 N -4.051430 -1.040432 -0.489404 0
M  V30 24 C -4.730618 0.185535 -0.636482 0
M  V30 25 C -4.062035 1.190988 0.007224 0
M  V30 26 C -4.571255 2.472894 -0.085963 0
M  V30 27 C -5.743296 2.645249 -0.836161 0
M  V30 28 N -6.414749 1.640481 -1.476756 0
M  V30 29 C -5.883770 0.391611 -1.362355 0
M  V30 30 N -6.730140 -0.579141 -2.019133 0
M  V30 31 C -6.821528 -1.932592 -1.514437 0
M  V30 32 C -8.096266 -2.442360 -1.793307 0
M  V30 33 C -8.363555 -3.723031 -1.365495 0
M  V30 34 C -7.416920 -4.481323 -0.687497 0
M  V30 35 C -6.156996 -4.000327 -0.403140 0
M  V30 36 C -5.892301 -2.722951 -0.831291 0
M  V30 37 C -1.186960 0.688202 -1.193908 0
M  V30 38 C -0.098971 1.532724 -1.182737 0
M  V30 39 C 2.843598 0.718788 -1.313990 0
M  V30 40 C 4.086196 -0.177586 -1.209349 0
M  V30 41 H 4.779081 -0.129119 2.799978 0
M  V30 42 H 6.369068 -0.638638 2.093806 0
M  V30 43 H 7.005269 -3.003199 2.502479 0
M  V30 44 H 6.810989 -5.007567 3.973960 0
M  V30 45 H 4.817624 -5.243688 5.491836 0
M  V30 46 H 3.130915 -3.501137 5.478995 0
M  V30 47 H 3.323545 -1.572992 4.060160 0
M  V30 48 H 5.534396 1.574711 1.275433 0
M  V30 49 H 6.186708 1.374004 -0.366739 0
M  V30 50 H 4.167872 3.264967 0.395638 0
M  V30 51 H 4.603619 2.716222 -1.249146 0
M  V30 52 H 1.955409 2.701605 1.174738 0
M  V30 53 H 1.613317 3.331870 -0.450840 0
M  V30 54 H 0.867275 0.724115 1.990214 0
M  V30 55 H -1.113830 -0.738349 1.816662 0
M  V30 56 H -3.209608 1.177877 0.633951 0
M  V30 57 H -4.147669 3.369845 0.369849 0
M  V30 58 H -6.189460 3.621301 -0.949195 0
M  V30 59 H -7.283689 -0.293232 -2.845696 0
M  V30 60 H -8.783105 -1.810042 -2.322434 0
M  V30 61 H -9.333915 -4.146463 -1.562752 0
M  V30 62 H -7.621356 -5.499313 -0.343930 0
M  V30 63 H -5.352952 -4.494171 0.109619 0
M  V30 64 H -1.823112 0.625080 -2.074155 0
M  V30 65 H 0.137287 2.139062 -2.039114 0
M  V30 66 H 1.924583 0.134500 -1.136106 0
M  V30 67 H 2.764481 1.147857 -2.341402 0
M  V30 68 H 4.830288 0.150781 -1.961639 0
M  V30 69 H 3.784264 -1.217489 -1.404916 0
M  V30 END ATOM
M  V30 BEGIN BOND
M  V30 1 2 1 2
M  V30 2 1 2 3
M  V30 3 1 3 4
M  V30 4 2 4 5
M  V30 5 1 5 6
M  V30 6 2 6 7
M  V30 7 1 7 8
M  V30 8 2 8 9
M  V30 9 1 2 10
M  V30 10 1 10 11
M  V30 11 1 11 12
M  V30 12 1 12 13
M  V30 13 1 13 14
M  V30 14 1 14 15
M  V30 15 2 15 16
M  V30 16 1 16 17
M  V30 17 2 17 18
M  V30 18 1 18 19
M  V30 19 2 19 20
M  V30 20 1 20 21
M  V30 21 2 21 22
M  V30 22 1 22 23
M  V30 23 1 23 24
M  V30 24 2 24 25
M  V30 25 1 25 26
M  V30 26 2 26 27
M  V30 27 1 27 28
M  V30 28 2 28 29
M  V30 29 1 29 30
M  V30 30 1 30 31
M  V30 31 2 31 32
M  V30 32 1 32 33
M  V30 33 2 33 34
M  V30 34 1 34 35
M  V30 35 2 35 36
M  V30 36 1 18 37
M  V30 37 2 37 38
M  V30 38 1 13 39
M  V30 39 1 39 40
M  V30 40 1 9 4
M  V30 41 1 40 10
M  V30 42 1 38 15
M  V30 43 1 23 19
M  V30 44 1 29 24
M  V30 45 1 36 31
M  V30 46 1 36 22
M  V30 47 1 3 41
M  V30 48 1 3 42
M  V30 49 1 5 43
M  V30 50 1 6 44
M  V30 51 1 7 45
M  V30 52 1 8 46
M  V30 53 1 9 47
M  V30 54 1 11 48
M  V30 55 1 11 49
M  V30 56 1 12 50
M  V30 57 1 12 51
M  V30 58 1 14 52
M  V30 59 1 14 53
M  V30 60 1 16 54
M  V30 61 1 17 55
M  V30 62 1 25 56
M  V30 63 1 26 57
M  V30 64 1 27 58
M  V30 65 1 30 59
M  V30 66 1 32 60
M  V30 67 1 33 61
M  V30 68 1 34 62
M  V30 69 1 35 63
M  V30 70 1 37 64
M  V30 71 1 38 65
M  V30 72 1 39 66
M  V30 73 1 39 67
M  V30 74 1 40 68
M  V30 75 1 40 69
M  V30 END BOND
M  V30 END CTAB
M  END
>  <Dataset>  (43) 
ChEMBL_Kinases

>  <Ligand_Instance>  (43) 
nan

>  <PDB_ID>  (43) 
nan

>  <Standardized_SMILES>  (43) 
O=C(Cc1ccccc1)N1CCN(Cc2ccc(-c3nnc4n3-c3cccnc3Nc3ccccc3-4)cc2)CC1

>  <Name>  (43) 
nan

>  <Pocket>  (43) 
nan

>  <ATP_Site>  (43) 
nan

>  <Peripheral>  (43) 
nan

>  <Num_H_Atoms_ProtBoundConf>  (43) 
nan

>  <Num_Resolved_Atoms>  (43) 
nan

>  <Num_Not_Resolved_Atoms>  (43) 
nan

$$$$
CHEMBL3684451
     RDKit          3D

  0  0  0  0  0  0  0  0  0  0999 V3000
M  V30 BEGIN CTAB
M  V30 COUNTS 66 72 0 0 0
M  V30 BEGIN ATOM
M  V30 1 O 1.237182 3.025798 0.502750 0
M  V30 2 C 1.679607 2.725236 1.642985 0
M  V30 3 C 3.047155 2.250087 1.842226 0
M  V30 4 C 3.186470 0.881168 1.756966 0
M  V30 5 C 4.450041 0.310259 1.930378 0
M  V30 6 C 5.506633 1.185725 2.183505 0
M  V30 7 C 5.371317 2.566277 2.270385 0
M  V30 8 C 4.112719 3.101117 2.094960 0
M  V30 9 F 3.901370 4.427836 2.164380 0
M  V30 10 N 0.825892 2.850930 2.770765 0
M  V30 11 C -0.536447 3.314051 2.646620 0
M  V30 12 C -1.409350 2.890363 3.785333 0
M  V30 13 N -1.010928 1.728775 4.464774 0
M  V30 14 C -1.677974 0.512510 4.213223 0
M  V30 15 C -1.627851 0.028050 2.809141 0
M  V30 16 C -0.578071 -0.792372 2.450835 0
M  V30 17 C -0.526093 -1.245637 1.150047 0
M  V30 18 C -1.495031 -0.905170 0.184946 0
M  V30 19 C -1.478905 -1.320237 -1.202199 0
M  V30 20 N -1.395943 -0.263787 -2.067654 0
M  V30 21 N -1.335640 -0.722817 -3.326505 0
M  V30 22 C -1.378943 -2.064992 -3.277257 0
M  V30 23 N -1.468821 -2.398647 -1.981106 0
M  V30 24 C -1.548007 -3.671361 -1.397395 0
M  V30 25 C -2.170907 -3.604664 -0.180718 0
M  V30 26 C -2.266251 -4.785898 0.528121 0
M  V30 27 C -1.738683 -5.933978 -0.029372 0
M  V30 28 N -1.117250 -6.034230 -1.237810 0
M  V30 29 C -1.041346 -4.846617 -1.910563 0
M  V30 30 N -0.438483 -5.068984 -3.209418 0
M  V30 31 C -0.823405 -4.269529 -4.357755 0
M  V30 32 C -0.711949 -5.027122 -5.525561 0
M  V30 33 C -1.059158 -4.410067 -6.699315 0
M  V30 34 C -1.505457 -3.086721 -6.744900 0
M  V30 35 C -1.621609 -2.324913 -5.610074 0
M  V30 36 C -1.273164 -2.944033 -4.436684 0
M  V30 37 C -2.519299 -0.064025 0.660834 0
M  V30 38 C -2.629568 0.423467 1.946317 0
M  V30 39 C 0.348394 1.664836 4.885924 0
M  V30 40 C 1.286232 2.518563 4.100992 0
M  V30 41 H 2.369949 0.200729 1.561044 0
M  V30 42 H 4.577066 -0.743736 1.868186 0
M  V30 43 H 6.500210 0.742830 2.320331 0
M  V30 44 H 6.234395 3.180965 2.469125 0
M  V30 45 H -0.488440 4.421359 2.537791 0
M  V30 46 H -0.944947 2.924845 1.691199 0
M  V30 47 H -2.463579 2.812994 3.496311 0
M  V30 48 H -1.378004 3.743705 4.525420 0
M  V30 49 H -1.236063 -0.271986 4.855254 0
M  V30 50 H -2.759190 0.634779 4.481976 0
M  V30 51 H 0.192412 -1.085220 3.149657 0
M  V30 52 H 0.268286 -1.896185 0.786251 0
M  V30 53 H -2.649827 -2.808539 0.325212 0
M  V30 54 H -2.722587 -4.903071 1.496497 0
M  V30 55 H -1.795319 -6.883146 0.504806 0
M  V30 56 H 0.268164 -5.818607 -3.334328 0
M  V30 57 H -0.362069 -6.033269 -5.423237 0
M  V30 58 H -0.982836 -4.968612 -7.607676 0
M  V30 59 H -1.780402 -2.603237 -7.683369 0
M  V30 60 H -1.951280 -1.302690 -5.525347 0
M  V30 61 H -3.277758 0.208105 -0.077516 0
M  V30 62 H -3.459030 1.060815 2.196229 0
M  V30 63 H 0.409815 2.026278 5.954469 0
M  V30 64 H 0.679612 0.618123 4.902890 0
M  V30 65 H 2.277390 2.041399 4.037219 0
M  V30 66 H 1.462331 3.507827 4.616717 0
M  V30 END ATOM
M  V30 BEGIN BOND
M  V30 1 2 1 2
M  V30 2 1 2 3
M  V30 3 2 3 4
M  V30 4 1 4 5
M  V30 5 2 5 6
M  V30 6 1 6 7
M  V30 7 2 7 8
M  V30 8 1 8 9
M  V30 9 1 2 10
M  V30 10 1 10 11
M  V30 11 1 11 12
M  V30 12 1 12 13
M  V30 13 1 13 14
M  V30 14 1 14 15
M  V30 15 2 15 16
M  V30 16 1 16 17
M  V30 17 2 17 18
M  V30 18 1 18 19
M  V30 19 2 19 20
M  V30 20 1 20 21
M  V30 21 2 21 22
M  V30 22 1 22 23
M  V30 23 1 23 24
M  V30 24 2 24 25
M  V30 25 1 25 26
M  V30 26 2 26 27
M  V30 27 1 27 28
M  V30 28 2 28 29
M  V30 29 1 29 30
M  V30 30 1 30 31
M  V30 31 2 31 32
M  V30 32 1 32 33
M  V30 33 2 33 34
M  V30 34 1 34 35
M  V30 35 2 35 36
M  V30 36 1 18 37
M  V30 37 2 37 38
M  V30 38 1 13 39
M  V30 39 1 39 40
M  V30 40 1 8 3
M  V30 41 1 40 10
M  V30 42 1 38 15
M  V30 43 1 23 19
M  V30 44 1 29 24
M  V30 45 1 36 31
M  V30 46 1 36 22
M  V30 47 1 4 41
M  V30 48 1 5 42
M  V30 49 1 6 43
M  V30 50 1 7 44
M  V30 51 1 11 45
M  V30 52 1 11 46
M  V30 53 1 12 47
M  V30 54 1 12 48
M  V30 55 1 14 49
M  V30 56 1 14 50
M  V30 57 1 16 51
M  V30 58 1 17 52
M  V30 59 1 25 53
M  V30 60 1 26 54
M  V30 61 1 27 55
M  V30 62 1 30 56
M  V30 63 1 32 57
M  V30 64 1 33 58
M  V30 65 1 34 59
M  V30 66 1 35 60
M  V30 67 1 37 61
M  V30 68 1 38 62
M  V30 69 1 39 63
M  V30 70 1 39 64
M  V30 71 1 40 65
M  V30 72 1 40 66
M  V30 END BOND
M  V30 END CTAB
M  END
>  <Dataset>  (44) 
ChEMBL_Kinases

>  <Ligand_Instance>  (44) 
nan

>  <PDB_ID>  (44) 
nan

>  <Standardized_SMILES>  (44) 
O=C(c1ccccc1F)N1CCN(Cc2ccc(-c3nnc4n3-c3cccnc3Nc3ccccc3-4)cc2)CC1

>  <Name>  (44) 
nan

>  <Pocket>  (44) 
nan

>  <ATP_Site>  (44) 
nan

>  <Peripheral>  (44) 
nan

>  <Num_H_Atoms_ProtBoundConf>  (44) 
nan

>  <Num_Resolved_Atoms>  (44) 
nan

>  <Num_Not_Resolved_Atoms>  (44) 
nan

$$$$
CHEMBL3684452
     RDKit          3D

  0  0  0  0  0  0  0  0  0  0999 V3000
M  V30 BEGIN CTAB
M  V30 COUNTS 65 71 0 0 0
M  V30 BEGIN ATOM
M  V30 1 C 2.576008 -1.577248 3.994657 0
M  V30 2 C 3.050960 -0.312706 3.337137 0
M  V30 3 C 2.388339 0.920250 3.340897 0
M  V30 4 C 3.178765 1.811793 2.616912 0
M  V30 5 C 2.666151 3.162723 2.498299 0
M  V30 6 O 2.590011 3.800201 3.581586 0
M  V30 7 N 2.266026 3.757121 1.247852 0
M  V30 8 C 2.385392 2.953341 0.030644 0
M  V30 9 C 1.659744 3.708604 -1.080577 0
M  V30 10 N 0.476900 4.211547 -0.551000 0
M  V30 11 C -0.771901 3.667780 -0.789254 0
M  V30 12 C -0.844395 2.230860 -0.366180 0
M  V30 13 C -1.193242 1.803898 0.899224 0
M  V30 14 C -1.239332 0.459459 1.206081 0
M  V30 15 C -0.933246 -0.520281 0.242380 0
M  V30 16 C -0.912375 -1.950872 0.457557 0
M  V30 17 N 0.022663 -2.343454 1.367913 0
M  V30 18 N 0.018536 -3.681528 1.476133 0
M  V30 19 C -0.918500 -4.147521 0.635373 0
M  V30 20 N -1.470956 -3.084502 0.032876 0
M  V30 21 C -2.496867 -3.046607 -0.922274 0
M  V30 22 C -3.143458 -1.840484 -0.874888 0
M  V30 23 C -4.153126 -1.618119 -1.789483 0
M  V30 24 C -4.450073 -2.638671 -2.700965 0
M  V30 25 N -3.795830 -3.840668 -2.731655 0
M  V30 26 C -2.813984 -4.028879 -1.825545 0
M  V30 27 N -2.275950 -5.367443 -1.941277 0
M  V30 28 C -1.775109 -6.058004 -0.768599 0
M  V30 29 C -1.961777 -7.436318 -0.922542 0
M  V30 30 C -1.553511 -8.249952 0.115333 0
M  V30 31 C -0.985291 -7.718882 1.254712 0
M  V30 32 C -0.785316 -6.368505 1.441148 0
M  V30 33 C -1.192570 -5.562913 0.405529 0
M  V30 34 C -0.580910 -0.054100 -1.039120 0
M  V30 35 C -0.538863 1.293434 -1.331685 0
M  V30 36 C 0.637251 5.314734 0.289342 0
M  V30 37 C 1.767033 5.115143 1.277075 0
M  V30 38 N 4.243941 1.089292 2.227058 0
M  V30 39 O 4.149965 -0.131111 2.652657 0
M  V30 40 H 2.846868 -2.475165 3.442599 0
M  V30 41 H 2.921586 -1.579653 5.035710 0
M  V30 42 H 1.448187 -1.516455 3.990933 0
M  V30 43 H 1.426387 1.021418 3.862061 0
M  V30 44 H 1.984803 1.938859 0.170407 0
M  V30 45 H 3.447136 2.884777 -0.208888 0
M  V30 46 H 2.356000 4.529343 -1.374027 0
M  V30 47 H 1.580780 3.012433 -1.937941 0
M  V30 48 H -1.535376 4.187534 -0.171048 0
M  V30 49 H -1.147364 3.710618 -1.833785 0
M  V30 50 H -1.424972 2.545533 1.631708 0
M  V30 51 H -1.507097 0.088545 2.182449 0
M  V30 52 H -3.056266 -1.012651 -0.221974 0
M  V30 53 H -4.761280 -0.728215 -1.892962 0
M  V30 54 H -5.229648 -2.516952 -3.439971 0
M  V30 55 H -2.263985 -5.832436 -2.849126 0
M  V30 56 H -2.411908 -7.775784 -1.845383 0
M  V30 57 H -1.688393 -9.317245 0.017851 0
M  V30 58 H -0.664403 -8.359655 2.069887 0
M  V30 59 H -0.352744 -5.861575 2.289591 0
M  V30 60 H -0.338420 -0.798760 -1.807280 0
M  V30 61 H -0.254180 1.533876 -2.352816 0
M  V30 62 H -0.279469 5.662633 0.808631 0
M  V30 63 H 0.941025 6.203187 -0.341133 0
M  V30 64 H 2.616724 5.806473 1.102392 0
M  V30 65 H 1.373844 5.320097 2.283571 0
M  V30 END ATOM
M  V30 BEGIN BOND
M  V30 1 1 1 2
M  V30 2 2 2 3
M  V30 3 1 3 4
M  V30 4 1 4 5
M  V30 5 2 5 6
M  V30 6 1 5 7
M  V30 7 1 7 8
M  V30 8 1 8 9
M  V30 9 1 9 10
M  V30 10 1 10 11
M  V30 11 1 11 12
M  V30 12 2 12 13
M  V30 13 1 13 14
M  V30 14 2 14 15
M  V30 15 1 15 16
M  V30 16 2 16 17
M  V30 17 1 17 18
M  V30 18 2 18 19
M  V30 19 1 19 20
M  V30 20 1 20 21
M  V30 21 2 21 22
M  V30 22 1 22 23
M  V30 23 2 23 24
M  V30 24 1 24 25
M  V30 25 2 25 26
M  V30 26 1 26 27
M  V30 27 1 27 28
M  V30 28 2 28 29
M  V30 29 1 29 30
M  V30 30 2 30 31
M  V30 31 1 31 32
M  V30 32 2 32 33
M  V30 33 1 15 34
M  V30 34 2 34 35
M  V30 35 1 10 36
M  V30 36 1 36 37
M  V30 37 2 4 38
M  V30 38 1 38 39
M  V30 39 1 39 2
M  V30 40 1 37 7
M  V30 41 1 35 12
M  V30 42 1 20 16
M  V30 43 1 26 21
M  V30 44 1 33 28
M  V30 45 1 33 19
M  V30 46 1 1 40
M  V30 47 1 1 41
M  V30 48 1 1 42
M  V30 49 1 3 43
M  V30 50 1 8 44
M  V30 51 1 8 45
M  V30 52 1 9 46
M  V30 53 1 9 47
M  V30 54 1 11 48
M  V30 55 1 11 49
M  V30 56 1 13 50
M  V30 57 1 14 51
M  V30 58 1 22 52
M  V30 59 1 23 53
M  V30 60 1 24 54
M  V30 61 1 27 55
M  V30 62 1 29 56
M  V30 63 1 30 57
M  V30 64 1 31 58
M  V30 65 1 32 59
M  V30 66 1 34 60
M  V30 67 1 35 61
M  V30 68 1 36 62
M  V30 69 1 36 63
M  V30 70 1 37 64
M  V30 71 1 37 65
M  V30 END BOND
M  V30 END CTAB
M  END
>  <Dataset>  (45) 
ChEMBL_Kinases

>  <Ligand_Instance>  (45) 
nan

>  <PDB_ID>  (45) 
nan

>  <Standardized_SMILES>  (45) 
Cc1cc(C(=O)N2CCN(Cc3ccc(-c4nnc5n4-c4cccnc4Nc4ccccc4-5)cc3)CC2)no1

>  <Name>  (45) 
nan

>  <Pocket>  (45) 
nan

>  <ATP_Site>  (45) 
nan

>  <Peripheral>  (45) 
nan

>  <Num_H_Atoms_ProtBoundConf>  (45) 
nan

>  <Num_Resolved_Atoms>  (45) 
nan

>  <Num_Not_Resolved_Atoms>  (45) 
nan

$$$$
CHEMBL3684453
     RDKit          3D

  0  0  0  0  0  0  0  0  0  0999 V3000
M  V30 BEGIN CTAB
M  V30 COUNTS 66 72 0 0 0
M  V30 BEGIN ATOM
M  V30 1 O 2.274862 2.284885 0.899704 0
M  V30 2 C 2.573177 2.211805 2.139891 0
M  V30 3 C 3.827284 1.623424 2.527715 0
M  V30 4 C 4.030966 0.759351 3.590456 0
M  V30 5 C 5.260440 0.222133 3.916554 0
M  V30 6 C 6.288941 0.624639 3.080588 0
M  V30 7 F 7.540307 0.148937 3.321161 0
M  V30 8 C 6.154644 1.473900 2.016584 0
M  V30 9 F 7.223575 1.814277 1.248522 0
M  V30 10 C 4.917838 1.979851 1.732764 0
M  V30 11 N 1.418532 2.807760 2.709278 0
M  V30 12 C 0.489266 3.201783 1.700267 0
M  V30 13 C -0.799919 3.637477 2.360848 0
M  V30 14 N -1.224431 2.824254 3.425118 0
M  V30 15 C -2.192606 1.827414 3.210957 0
M  V30 16 C -1.849777 0.813391 2.201463 0
M  V30 17 C -2.226005 1.003622 0.886379 0
M  V30 18 C -1.858682 0.010176 0.003035 0
M  V30 19 C -1.144347 -1.157562 0.335844 0
M  V30 20 C -0.777827 -2.121160 -0.678982 0
M  V30 21 N 0.576409 -2.226368 -0.840741 0
M  V30 22 N 0.839986 -3.096796 -1.825908 0
M  V30 23 C -0.330478 -3.553637 -2.300783 0
M  V30 24 N -1.291748 -2.950429 -1.588001 0
M  V30 25 C -2.689736 -3.086316 -1.687749 0
M  V30 26 C -3.288849 -2.769175 -0.501685 0
M  V30 27 C -4.668120 -2.801695 -0.448513 0
M  V30 28 C -5.352918 -3.161458 -1.617596 0
M  V30 29 N -4.750762 -3.482829 -2.804094 0
M  V30 30 C -3.384313 -3.438179 -2.813886 0
M  V30 31 N -2.893135 -3.869602 -4.102996 0
M  V30 32 C -1.622220 -4.555430 -4.204681 0
M  V30 33 C -1.649329 -5.440049 -5.290391 0
M  V30 34 C -0.511650 -6.184664 -5.516225 0
M  V30 35 C 0.613868 -6.079494 -4.721245 0
M  V30 36 C 0.665782 -5.216035 -3.647191 0
M  V30 37 C -0.465867 -4.475520 -3.423905 0
M  V30 38 C -0.804571 -1.264542 1.697705 0
M  V30 39 C -1.148295 -0.300024 2.619099 0
M  V30 40 C -0.274321 2.613869 4.473416 0
M  V30 41 C 1.124889 3.027110 4.104847 0
M  V30 42 H 3.168407 0.505312 4.184032 0
M  V30 43 H 5.384640 -0.447516 4.750505 0
M  V30 44 H 4.826786 2.652601 0.885809 0
M  V30 45 H 0.331796 2.347981 1.010649 0
M  V30 46 H 0.923145 4.022163 1.096741 0
M  V30 47 H -0.577591 4.659862 2.790014 0
M  V30 48 H -1.609685 3.800749 1.649378 0
M  V30 49 H -3.140312 2.328977 2.856921 0
M  V30 50 H -2.464822 1.385590 4.191146 0
M  V30 51 H -2.775211 1.862859 0.529536 0
M  V30 52 H -2.135166 0.119520 -1.052809 0
M  V30 53 H -2.893202 -2.532039 0.448370 0
M  V30 54 H -5.308075 -2.583469 0.386837 0
M  V30 55 H -6.424499 -3.206880 -1.649632 0
M  V30 56 H -3.454895 -3.703422 -4.956217 0
M  V30 57 H -2.555833 -5.476876 -5.875759 0
M  V30 58 H -0.514576 -6.873636 -6.354095 0
M  V30 59 H 1.509051 -6.671656 -4.903363 0
M  V30 60 H 1.486060 -5.050791 -2.964812 0
M  V30 61 H -0.258078 -2.178614 1.894943 0
M  V30 62 H -0.835939 -0.490091 3.628958 0
M  V30 63 H -0.581782 3.211755 5.355770 0
M  V30 64 H -0.326019 1.548637 4.780047 0
M  V30 65 H 1.830490 2.423416 4.707144 0
M  V30 66 H 1.331232 4.092174 4.339502 0
M  V30 END ATOM
M  V30 BEGIN BOND
M  V30 1 2 1 2
M  V30 2 1 2 3
M  V30 3 2 3 4
M  V30 4 1 4 5
M  V30 5 2 5 6
M  V30 6 1 6 7
M  V30 7 1 6 8
M  V30 8 1 8 9
M  V30 9 2 8 10
M  V30 10 1 2 11
M  V30 11 1 11 12
M  V30 12 1 12 13
M  V30 13 1 13 14
M  V30 14 1 14 15
M  V30 15 1 15 16
M  V30 16 2 16 17
M  V30 17 1 17 18
M  V30 18 2 18 19
M  V30 19 1 19 20
M  V30 20 2 20 21
M  V30 21 1 21 22
M  V30 22 2 22 23
M  V30 23 1 23 24
M  V30 24 1 24 25
M  V30 25 2 25 26
M  V30 26 1 26 27
M  V30 27 2 27 28
M  V30 28 1 28 29
M  V30 29 2 29 30
M  V30 30 1 30 31
M  V30 31 1 31 32
M  V30 32 2 32 33
M  V30 33 1 33 34
M  V30 34 2 34 35
M  V30 35 1 35 36
M  V30 36 2 36 37
M  V30 37 1 19 38
M  V30 38 2 38 39
M  V30 39 1 14 40
M  V30 40 1 40 41
M  V30 41 1 10 3
M  V30 42 1 41 11
M  V30 43 1 39 16
M  V30 44 1 24 20
M  V30 45 1 30 25
M  V30 46 1 37 32
M  V30 47 1 37 23
M  V30 48 1 4 42
M  V30 49 1 5 43
M  V30 50 1 10 44
M  V30 51 1 12 45
M  V30 52 1 12 46
M  V30 53 1 13 47
M  V30 54 1 13 48
M  V30 55 1 15 49
M  V30 56 1 15 50
M  V30 57 1 17 51
M  V30 58 1 18 52
M  V30 59 1 26 53
M  V30 60 1 27 54
M  V30 61 1 28 55
M  V30 62 1 31 56
M  V30 63 1 33 57
M  V30 64 1 34 58
M  V30 65 1 35 59
M  V30 66 1 36 60
M  V30 67 1 38 61
M  V30 68 1 39 62
M  V30 69 1 40 63
M  V30 70 1 40 64
M  V30 71 1 41 65
M  V30 72 1 41 66
M  V30 END BOND
M  V30 END CTAB
M  END
>  <Dataset>  (46) 
ChEMBL_Kinases

>  <Ligand_Instance>  (46) 
nan

>  <PDB_ID>  (46) 
nan

>  <Standardized_SMILES>  (46) 
O=C(c1ccc(F)c(F)c1)N1CCN(Cc2ccc(-c3nnc4n3-c3cccnc3Nc3ccccc3-4)cc2)CC1

>  <Name>  (46) 
nan

>  <Pocket>  (46) 
nan

>  <ATP_Site>  (46) 
nan

>  <Peripheral>  (46) 
nan

>  <Num_H_Atoms_ProtBoundConf>  (46) 
nan

>  <Num_Resolved_Atoms>  (46) 
nan

>  <Num_Not_Resolved_Atoms>  (46) 
nan

$$$$
CHEMBL3684454
     RDKit          3D

  0  0  0  0  0  0  0  0  0  0999 V3000
M  V30 BEGIN CTAB
M  V30 COUNTS 66 72 0 0 0
M  V30 BEGIN ATOM
M  V30 1 O 1.700083 2.644628 0.589859 0
M  V30 2 C 2.183625 2.131637 1.633131 0
M  V30 3 C 3.293828 1.277667 1.318172 0
M  V30 4 C 3.332090 -0.069128 1.578586 0
M  V30 5 C 4.382650 -0.933775 1.292361 0
M  V30 6 C 5.475654 -0.331262 0.685386 0
M  V30 7 C 5.533685 1.010072 0.383456 0
M  V30 8 C 4.421651 1.787334 0.714714 0
M  V30 9 N 1.589516 2.459190 2.883558 0
M  V30 10 C 0.464059 3.368531 2.823060 0
M  V30 11 C -0.494989 3.166068 3.968798 0
M  V30 12 N -0.306872 1.964487 4.686792 0
M  V30 13 C -1.179035 0.884634 4.478406 0
M  V30 14 C -1.250755 0.374350 3.085396 0
M  V30 15 C -2.230527 0.927103 2.288658 0
M  V30 16 C -2.289232 0.447521 0.995940 0
M  V30 17 C -1.447107 -0.536393 0.445107 0
M  V30 18 C -1.606620 -0.916652 -0.940999 0
M  V30 19 N -1.417755 0.130097 -1.801148 0
M  V30 20 N -1.534750 -0.315939 -3.066208 0
M  V30 21 C -1.795126 -1.633038 -3.022657 0
M  V30 22 N -1.836916 -1.970683 -1.724824 0
M  V30 23 C -2.080321 -3.225262 -1.147437 0
M  V30 24 C -2.579994 -3.082573 0.118276 0
M  V30 25 C -2.819551 -4.235543 0.838622 0
M  V30 26 C -2.543473 -5.471070 0.241062 0
M  V30 27 N -2.046661 -5.590210 -1.030681 0
M  V30 28 C -1.814158 -4.439809 -1.733863 0
M  V30 29 N -1.367534 -4.748073 -3.067584 0
M  V30 30 C -1.699832 -3.859978 -4.160283 0
M  V30 31 C -1.803944 -4.600940 -5.343897 0
M  V30 32 C -2.133379 -3.918037 -6.495983 0
M  V30 33 C -2.352803 -2.557519 -6.486526 0
M  V30 34 C -2.256828 -1.784534 -5.322644 0
M  V30 35 C -1.927603 -2.494742 -4.197950 0
M  V30 36 C -0.483023 -1.033186 1.343189 0
M  V30 37 C -0.373263 -0.595472 2.645650 0
M  V30 38 C 1.003304 1.672833 5.133604 0
M  V30 39 C 2.084374 1.914714 4.132478 0
M  V30 40 H 2.470816 -0.550242 2.058006 0
M  V30 41 H 4.334176 -1.975612 1.528997 0
M  V30 42 H 6.314872 -0.967894 0.445717 0
M  V30 43 H 6.414896 1.384200 -0.083403 0
M  V30 44 H 4.531105 2.828476 0.451495 0
M  V30 45 H 0.898492 4.389258 2.817389 0
M  V30 46 H -0.099763 3.261332 1.874535 0
M  V30 47 H -0.354693 4.027810 4.666115 0
M  V30 48 H -1.550084 3.242333 3.648528 0
M  V30 49 H -2.181831 1.150601 4.874102 0
M  V30 50 H -0.843190 0.030117 5.119220 0
M  V30 51 H -2.949241 1.673100 2.542685 0
M  V30 52 H -3.048814 0.846015 0.304918 0
M  V30 53 H -2.875670 -2.231035 0.668600 0
M  V30 54 H -3.209212 -4.304934 1.846767 0
M  V30 55 H -2.716504 -6.394588 0.775638 0
M  V30 56 H -0.825279 -5.611658 -3.241693 0
M  V30 57 H -1.618823 -5.664331 -5.291774 0
M  V30 58 H -2.220421 -4.463100 -7.425899 0
M  V30 59 H -2.617413 -1.988106 -7.391540 0
M  V30 60 H -2.406409 -0.732149 -5.212714 0
M  V30 61 H 0.174588 -1.798804 0.918911 0
M  V30 62 H 0.383896 -1.015906 3.275079 0
M  V30 63 H 1.053643 0.617771 5.467408 0
M  V30 64 H 1.198066 2.292556 6.056507 0
M  V30 65 H 2.624323 0.975691 3.896485 0
M  V30 66 H 2.882795 2.587748 4.565582 0
M  V30 END ATOM
M  V30 BEGIN BOND
M  V30 1 2 1 2
M  V30 2 1 2 3
M  V30 3 2 3 4
M  V30 4 1 4 5
M  V30 5 2 5 6
M  V30 6 1 6 7
M  V30 7 2 7 8
M  V30 8 1 2 9
M  V30 9 1 9 10
M  V30 10 1 10 11
M  V30 11 1 11 12
M  V30 12 1 12 13
M  V30 13 1 13 14
M  V30 14 2 14 15
M  V30 15 1 15 16
M  V30 16 2 16 17
M  V30 17 1 17 18
M  V30 18 2 18 19
M  V30 19 1 19 20
M  V30 20 2 20 21
M  V30 21 1 21 22
M  V30 22 1 22 23
M  V30 23 2 23 24
M  V30 24 1 24 25
M  V30 25 2 25 26
M  V30 26 1 26 27
M  V30 27 2 27 28
M  V30 28 1 28 29
M  V30 29 1 29 30
M  V30 30 2 30 31
M  V30 31 1 31 32
M  V30 32 2 32 33
M  V30 33 1 33 34
M  V30 34 2 34 35
M  V30 35 1 17 36
M  V30 36 2 36 37
M  V30 37 1 12 38
M  V30 38 1 38 39
M  V30 39 1 8 3
M  V30 40 1 39 9
M  V30 41 1 37 14
M  V30 42 1 22 18
M  V30 43 1 28 23
M  V30 44 1 35 30
M  V30 45 1 35 21
M  V30 46 1 4 40
M  V30 47 1 5 41
M  V30 48 1 6 42
M  V30 49 1 7 43
M  V30 50 1 8 44
M  V30 51 1 10 45
M  V30 52 1 10 46
M  V30 53 1 11 47
M  V30 54 1 11 48
M  V30 55 1 13 49
M  V30 56 1 13 50
M  V30 57 1 15 51
M  V30 58 1 16 52
M  V30 59 1 24 53
M  V30 60 1 25 54
M  V30 61 1 26 55
M  V30 62 1 29 56
M  V30 63 1 31 57
M  V30 64 1 32 58
M  V30 65 1 33 59
M  V30 66 1 34 60
M  V30 67 1 36 61
M  V30 68 1 37 62
M  V30 69 1 38 63
M  V30 70 1 38 64
M  V30 71 1 39 65
M  V30 72 1 39 66
M  V30 END BOND
M  V30 END CTAB
M  END
>  <Dataset>  (47) 
ChEMBL_Kinases

>  <Ligand_Instance>  (47) 
nan

>  <PDB_ID>  (47) 
nan

>  <Standardized_SMILES>  (47) 
O=C(c1ccccc1)N1CCN(Cc2ccc(-c3nnc4n3-c3cccnc3Nc3ccccc3-4)cc2)CC1

>  <Name>  (47) 
nan

>  <Pocket>  (47) 
nan

>  <ATP_Site>  (47) 
nan

>  <Peripheral>  (47) 
nan

>  <Num_H_Atoms_ProtBoundConf>  (47) 
nan

>  <Num_Resolved_Atoms>  (47) 
nan

>  <Num_Not_Resolved_Atoms>  (47) 
nan

$$$$
CHEMBL3684455
     RDKit          3D

  0  0  0  0  0  0  0  0  0  0999 V3000
M  V30 BEGIN CTAB
M  V30 COUNTS 73 79 0 0 0
M  V30 BEGIN ATOM
M  V30 1 C 5.296874 3.865930 0.657959 0
M  V30 2 O 5.219416 2.758956 -0.220615 0
M  V30 3 C 4.164084 2.582597 -1.097804 0
M  V30 4 O 3.328106 3.520371 -0.991458 0
M  V30 5 C 4.126081 1.443947 -1.971534 0
M  V30 6 S 5.414611 0.192589 -1.989580 0
M  V30 7 C 4.712999 -0.843560 -3.255694 0
M  V30 8 C 3.563460 -0.169754 -3.568739 0
M  V30 9 C 3.217467 0.994314 -2.948695 0
M  V30 10 S 1.845443 2.032186 -3.153693 0
M  V30 11 O 2.386617 3.398668 -3.514309 0
M  V30 12 O 1.110999 2.197243 -1.829462 0
M  V30 13 N 0.701607 1.498229 -4.307276 0
M  V30 14 C 0.077409 0.235127 -4.020804 0
M  V30 15 C -1.415320 0.443987 -3.697091 0
M  V30 16 C -2.167632 -0.852194 -3.729581 0
M  V30 17 N -1.400817 -2.014863 -3.817492 0
M  V30 18 C -1.815725 -3.206451 -3.204812 0
M  V30 19 C -2.015168 -3.087792 -1.724865 0
M  V30 20 C -3.269473 -2.763776 -1.251773 0
M  V30 21 C -3.511394 -2.631044 0.102844 0
M  V30 22 C -2.474097 -2.825320 1.039801 0
M  V30 23 C -2.616242 -2.742869 2.477788 0
M  V30 24 N -3.480524 -3.664407 2.992904 0
M  V30 25 N -3.516146 -3.555133 4.332874 0
M  V30 26 C -2.679879 -2.568886 4.678732 0
M  V30 27 N -2.152141 -2.092615 3.543616 0
M  V30 28 C -1.221503 -1.047589 3.369516 0
M  V30 29 C -1.351856 -0.497495 2.123386 0
M  V30 30 C -0.465568 0.506146 1.785198 0
M  V30 31 C 0.495221 0.893817 2.726623 0
M  V30 32 N 0.616469 0.341702 3.971881 0
M  V30 33 C -0.271043 -0.648309 4.282972 0
M  V30 34 N -0.074638 -1.081772 5.647864 0
M  V30 35 C -1.199997 -1.546234 6.433536 0
M  V30 36 C -0.978144 -1.250311 7.784453 0
M  V30 37 C -1.958067 -1.608457 8.675149 0
M  V30 38 C -3.126284 -2.239527 8.261972 0
M  V30 39 C -3.371027 -2.542809 6.943563 0
M  V30 40 C -2.389152 -2.184292 6.055441 0
M  V30 41 C -1.228756 -3.153841 0.456894 0
M  V30 42 C -0.941152 -3.296729 -0.883825 0
M  V30 43 C -0.330346 -2.063104 -4.756203 0
M  V30 44 C 0.123115 -0.678032 -5.184640 0
M  V30 45 H 6.138653 3.665344 1.378018 0
M  V30 46 H 4.357020 4.040687 1.213756 0
M  V30 47 H 5.638341 4.761579 0.086899 0
M  V30 48 H 5.185132 -1.732795 -3.583126 0
M  V30 49 H 2.999845 -0.663176 -4.336194 0
M  V30 50 H 1.072100 1.569804 -5.288787 0
M  V30 51 H 0.560631 -0.202950 -3.143022 0
M  V30 52 H -1.448451 0.961438 -2.727277 0
M  V30 53 H -1.815561 1.127339 -4.462503 0
M  V30 54 H -2.766721 -0.885377 -2.795963 0
M  V30 55 H -2.902073 -0.849443 -4.569994 0
M  V30 56 H -2.764129 -3.619981 -3.602791 0
M  V30 57 H -1.038297 -3.983992 -3.387238 0
M  V30 58 H -4.138428 -2.592486 -1.853009 0
M  V30 59 H -4.475572 -2.378969 0.528285 0
M  V30 60 H -2.049961 -0.658958 1.347090 0
M  V30 61 H -0.414056 1.060033 0.840336 0
M  V30 62 H 1.212364 1.672207 2.508715 0
M  V30 63 H 0.865790 -1.043190 6.065282 0
M  V30 64 H -0.050470 -0.761011 8.042110 0
M  V30 65 H -1.805608 -1.391607 9.704075 0
M  V30 66 H -3.912569 -2.527435 8.967960 0
M  V30 67 H -4.233862 -3.026703 6.511764 0
M  V30 68 H -0.416543 -3.305998 1.184901 0
M  V30 69 H 0.038190 -3.547033 -1.201997 0
M  V30 70 H -0.692584 -2.568808 -5.680769 0
M  V30 71 H 0.550541 -2.638489 -4.409170 0
M  V30 72 H 1.118598 -0.759316 -5.614194 0
M  V30 73 H -0.549477 -0.274981 -5.985052 0
M  V30 END ATOM
M  V30 BEGIN BOND
M  V30 1 1 1 2
M  V30 2 1 2 3
M  V30 3 2 3 4
M  V30 4 1 3 5
M  V30 5 1 5 6
M  V30 6 1 6 7
M  V30 7 2 7 8
M  V30 8 1 8 9
M  V30 9 1 9 10
M  V30 10 2 10 11
M  V30 11 2 10 12
M  V30 12 1 10 13
M  V30 13 1 13 14
M  V30 14 1 14 15
M  V30 15 1 15 16
M  V30 16 1 16 17
M  V30 17 1 17 18
M  V30 18 1 18 19
M  V30 19 2 19 20
M  V30 20 1 20 21
M  V30 21 2 21 22
M  V30 22 1 22 23
M  V30 23 2 23 24
M  V30 24 1 24 25
M  V30 25 2 25 26
M  V30 26 1 26 27
M  V30 27 1 27 28
M  V30 28 2 28 29
M  V30 29 1 29 30
M  V30 30 2 30 31
M  V30 31 1 31 32
M  V30 32 2 32 33
M  V30 33 1 33 34
M  V30 34 1 34 35
M  V30 35 2 35 36
M  V30 36 1 36 37
M  V30 37 2 37 38
M  V30 38 1 38 39
M  V30 39 2 39 40
M  V30 40 1 22 41
M  V30 41 2 41 42
M  V30 42 1 17 43
M  V30 43 1 43 44
M  V30 44 2 9 5
M  V30 45 1 44 14
M  V30 46 1 42 19
M  V30 47 1 27 23
M  V30 48 1 33 28
M  V30 49 1 40 35
M  V30 50 1 40 26
M  V30 51 1 1 45
M  V30 52 1 1 46
M  V30 53 1 1 47
M  V30 54 1 7 48
M  V30 55 1 8 49
M  V30 56 1 13 50
M  V30 57 1 14 51
M  V30 58 1 15 52
M  V30 59 1 15 53
M  V30 60 1 16 54
M  V30 61 1 16 55
M  V30 62 1 18 56
M  V30 63 1 18 57
M  V30 64 1 20 58
M  V30 65 1 21 59
M  V30 66 1 29 60
M  V30 67 1 30 61
M  V30 68 1 31 62
M  V30 69 1 34 63
M  V30 70 1 36 64
M  V30 71 1 37 65
M  V30 72 1 38 66
M  V30 73 1 39 67
M  V30 74 1 41 68
M  V30 75 1 42 69
M  V30 76 1 43 70
M  V30 77 1 43 71
M  V30 78 1 44 72
M  V30 79 1 44 73
M  V30 END BOND
M  V30 END CTAB
M  END
>  <Dataset>  (48) 
ChEMBL_Kinases

>  <Ligand_Instance>  (48) 
nan

>  <PDB_ID>  (48) 
nan

>  <Standardized_SMILES>  (48) 
COC(=O)c1sccc1S(=O)(=O)NC1CCN(Cc2ccc(-c3nnc4n3-c3cccnc3Nc3ccccc3-4)cc2)CC1

>  <Name>  (48) 
nan

>  <Pocket>  (48) 
nan

>  <ATP_Site>  (48) 
nan

>  <Peripheral>  (48) 
nan

>  <Num_H_Atoms_ProtBoundConf>  (48) 
nan

>  <Num_Resolved_Atoms>  (48) 
nan

>  <Num_Not_Resolved_Atoms>  (48) 
nan

$$$$
CHEMBL3684456
     RDKit          3D

  0  0  0  0  0  0  0  0  0  0999 V3000
M  V30 BEGIN CTAB
M  V30 COUNTS 72 78 0 0 0
M  V30 BEGIN ATOM
M  V30 1 C 4.559934 1.734852 -3.942755 0
M  V30 2 C 4.980621 1.125119 -2.670878 0
M  V30 3 N 5.298628 1.844166 -1.582263 0
M  V30 4 O 5.640973 1.038060 -0.621187 0
M  V30 5 C 5.547301 -0.208602 -1.079406 0
M  V30 6 C 5.876455 -1.373669 -0.206314 0
M  V30 7 C 5.126202 -0.213524 -2.393673 0
M  V30 8 S 4.856531 -1.612457 -3.376431 0
M  V30 9 O 5.183360 -1.357739 -4.821863 0
M  V30 10 O 5.841423 -2.675254 -2.907917 0
M  V30 11 N 3.295473 -2.249789 -3.158387 0
M  V30 12 C 2.224938 -1.353428 -3.518313 0
M  V30 13 C 1.416134 -1.921232 -4.644555 0
M  V30 14 C 0.282295 -2.790633 -4.229824 0
M  V30 15 N -0.352966 -2.502848 -3.003156 0
M  V30 16 C -0.591048 -3.560137 -2.098457 0
M  V30 17 C -1.270813 -3.035711 -0.886635 0
M  V30 18 C -0.630969 -2.584332 0.246841 0
M  V30 19 C -1.350785 -2.113654 1.323519 0
M  V30 20 C -2.758735 -2.075096 1.309364 0
M  V30 21 C -3.438453 -1.598394 2.492732 0
M  V30 22 N -4.217455 -2.546180 3.088542 0
M  V30 23 N -4.769866 -2.038655 4.204432 0
M  V30 24 C -4.350533 -0.778302 4.324750 0
M  V30 25 N -3.549065 -0.528217 3.278996 0
M  V30 26 C -2.861512 0.658092 2.948320 0
M  V30 27 C -2.637693 0.709408 1.600830 0
M  V30 28 C -1.920093 1.795036 1.135964 0
M  V30 29 C -1.483383 2.749400 2.061323 0
M  V30 30 N -1.720722 2.680085 3.394402 0
M  V30 31 C -2.422308 1.615820 3.835014 0
M  V30 32 N -2.663330 1.715231 5.258238 0
M  V30 33 C -3.877273 1.172187 5.836130 0
M  V30 34 C -4.238064 1.933338 6.955079 0
M  V30 35 C -5.385107 1.563794 7.615985 0
M  V30 36 C -6.156397 0.490544 7.203817 0
M  V30 37 C -5.825546 -0.276057 6.107588 0
M  V30 38 C -4.679647 0.091375 5.446713 0
M  V30 39 C -3.377587 -2.544652 0.134902 0
M  V30 40 C -2.641492 -3.011791 -0.932167 0
M  V30 41 C -0.060522 -1.222155 -2.491307 0
M  V30 42 C 1.408204 -0.981784 -2.313685 0
M  V30 43 H 3.645105 2.354994 -3.765258 0
M  V30 44 H 4.428128 0.993691 -4.733088 0
M  V30 45 H 5.320254 2.488714 -4.298913 0
M  V30 46 H 6.983120 -1.385708 -0.100836 0
M  V30 47 H 5.489640 -2.319898 -0.624891 0
M  V30 48 H 5.467139 -1.192903 0.827984 0
M  V30 49 H 3.172088 -3.186523 -3.592508 0
M  V30 50 H 2.695075 -0.418539 -3.874440 0
M  V30 51 H 1.043983 -1.099159 -5.301247 0
M  V30 52 H 2.102515 -2.525200 -5.275675 0
M  V30 53 H -0.500020 -2.788088 -5.019058 0
M  V30 54 H 0.597495 -3.876606 -4.182910 0
M  V30 55 H -1.194611 -4.350245 -2.595446 0
M  V30 56 H 0.317161 -4.074804 -1.727928 0
M  V30 57 H 0.447612 -2.611642 0.265770 0
M  V30 58 H -0.826004 -1.755238 2.223003 0
M  V30 59 H -2.947940 0.090032 0.803719 0
M  V30 60 H -1.656064 1.981807 0.087847 0
M  V30 61 H -0.918099 3.611833 1.737825 0
M  V30 62 H -1.977150 2.187725 5.858490 0
M  V30 63 H -3.602653 2.747940 7.227715 0
M  V30 64 H -5.678108 2.139863 8.481044 0
M  V30 65 H -7.073852 0.187526 7.722587 0
M  V30 66 H -6.344440 -1.127578 5.695767 0
M  V30 67 H -4.454650 -2.477019 0.214959 0
M  V30 68 H -3.252439 -3.346084 -1.780498 0
M  V30 69 H -0.393879 -0.474832 -3.271494 0
M  V30 70 H -0.593219 -0.942277 -1.583537 0
M  V30 71 H 1.522613 0.081439 -2.014601 0
M  V30 72 H 1.756362 -1.593568 -1.458055 0
M  V30 END ATOM
M  V30 BEGIN BOND
M  V30 1 1 1 2
M  V30 2 2 2 3
M  V30 3 1 3 4
M  V30 4 1 4 5
M  V30 5 1 5 6
M  V30 6 2 5 7
M  V30 7 1 7 8
M  V30 8 2 8 9
M  V30 9 2 8 10
M  V30 10 1 8 11
M  V30 11 1 11 12
M  V30 12 1 12 13
M  V30 13 1 13 14
M  V30 14 1 14 15
M  V30 15 1 15 16
M  V30 16 1 16 17
M  V30 17 2 17 18
M  V30 18 1 18 19
M  V30 19 2 19 20
M  V30 20 1 20 21
M  V30 21 2 21 22
M  V30 22 1 22 23
M  V30 23 2 23 24
M  V30 24 1 24 25
M  V30 25 1 25 26
M  V30 26 2 26 27
M  V30 27 1 27 28
M  V30 28 2 28 29
M  V30 29 1 29 30
M  V30 30 2 30 31
M  V30 31 1 31 32
M  V30 32 1 32 33
M  V30 33 2 33 34
M  V30 34 1 34 35
M  V30 35 2 35 36
M  V30 36 1 36 37
M  V30 37 2 37 38
M  V30 38 1 20 39
M  V30 39 2 39 40
M  V30 40 1 15 41
M  V30 41 1 41 42
M  V30 42 1 7 2
M  V30 43 1 42 12
M  V30 44 1 40 17
M  V30 45 1 25 21
M  V30 46 1 31 26
M  V30 47 1 38 33
M  V30 48 1 38 24
M  V30 49 1 1 43
M  V30 50 1 1 44
M  V30 51 1 1 45
M  V30 52 1 6 46
M  V30 53 1 6 47
M  V30 54 1 6 48
M  V30 55 1 11 49
M  V30 56 1 12 50
M  V30 57 1 13 51
M  V30 58 1 13 52
M  V30 59 1 14 53
M  V30 60 1 14 54
M  V30 61 1 16 55
M  V30 62 1 16 56
M  V30 63 1 18 57
M  V30 64 1 19 58
M  V30 65 1 27 59
M  V30 66 1 28 60
M  V30 67 1 29 61
M  V30 68 1 32 62
M  V30 69 1 34 63
M  V30 70 1 35 64
M  V30 71 1 36 65
M  V30 72 1 37 66
M  V30 73 1 39 67
M  V30 74 1 40 68
M  V30 75 1 41 69
M  V30 76 1 41 70
M  V30 77 1 42 71
M  V30 78 1 42 72
M  V30 END BOND
M  V30 END CTAB
M  END
>  <Dataset>  (49) 
ChEMBL_Kinases

>  <Ligand_Instance>  (49) 
nan

>  <PDB_ID>  (49) 
nan

>  <Standardized_SMILES>  (49) 
Cc1noc(C)c1S(=O)(=O)NC1CCN(Cc2ccc(-c3nnc4n3-c3cccnc3Nc3ccccc3-4)cc2)CC1

>  <Name>  (49) 
nan

>  <Pocket>  (49) 
nan

>  <ATP_Site>  (49) 
nan

>  <Peripheral>  (49) 
nan

>  <Num_H_Atoms_ProtBoundConf>  (49) 
nan

>  <Num_Resolved_Atoms>  (49) 
nan

>  <Num_Not_Resolved_Atoms>  (49) 
nan

$$$$
CHEMBL3684448
     RDKit          3D

  0  0  0  0  0  0  0  0  0  0999 V3000
M  V30 BEGIN CTAB
M  V30 COUNTS 70 76 0 0 0
M  V30 BEGIN ATOM
M  V30 1 C 5.353124 -5.603088 2.154528 0
M  V30 2 O 4.768056 -4.499475 2.552935 0
M  V30 3 C 4.233338 -3.409004 2.909125 0
M  V30 4 C 3.175748 -3.383824 3.818328 0
M  V30 5 C 2.588385 -2.196601 4.210772 0
M  V30 6 C 3.086011 -1.024255 3.669394 0
M  V30 7 C 4.125184 -0.976147 2.768539 0
M  V30 8 C 4.518878 0.326808 2.304871 0
M  V30 9 O 5.174426 1.079664 3.105252 0
M  V30 10 N 4.328246 1.002946 1.085201 0
M  V30 11 C 4.862127 2.339904 0.937793 0
M  V30 12 C 3.730900 3.297089 0.659124 0
M  V30 13 N 2.500608 2.524040 0.442569 0
M  V30 14 C 1.379369 3.401859 0.184911 0
M  V30 15 C 0.101769 2.681247 -0.043705 0
M  V30 16 C -0.450427 2.261202 -1.222669 0
M  V30 17 C -1.634421 1.598808 -1.225630 0
M  V30 18 C -2.355639 1.306218 -0.052327 0
M  V30 19 C -3.624574 0.621306 -0.173833 0
M  V30 20 N -4.679012 1.357964 0.261546 0
M  V30 21 N -5.820204 0.671951 0.064402 0
M  V30 22 C -5.496504 -0.499518 -0.494719 0
M  V30 23 N -4.163166 -0.511699 -0.627564 0
M  V30 24 C -3.330303 -1.518355 -1.155529 0
M  V30 25 C -2.073857 -1.426244 -0.628353 0
M  V30 26 C -1.089488 -2.315737 -1.081373 0
M  V30 27 C -1.507135 -3.237544 -2.054858 0
M  V30 28 N -2.768983 -3.329783 -2.578904 0
M  V30 29 C -3.697302 -2.442025 -2.107723 0
M  V30 30 N -4.993485 -2.706370 -2.688448 0
M  V30 31 C -6.193536 -2.442280 -1.923209 0
M  V30 32 C -7.193622 -3.343789 -2.311077 0
M  V30 33 C -8.401282 -3.240679 -1.665268 0
M  V30 34 C -8.644860 -2.298454 -0.673604 0
M  V30 35 C -7.672613 -1.401478 -0.278282 0
M  V30 36 C -6.466764 -1.504402 -0.923750 0
M  V30 37 C -1.769427 1.747747 1.146985 0
M  V30 38 C -0.566605 2.421693 1.159303 0
M  V30 39 C 2.759294 1.599209 -0.608343 0
M  V30 40 C 3.633977 0.489616 -0.075037 0
M  V30 41 C 4.694067 -2.200690 2.395910 0
M  V30 42 H 6.422948 -5.469617 1.775545 0
M  V30 43 H 4.842560 -6.035497 1.233950 0
M  V30 44 H 5.412203 -6.451081 2.907472 0
M  V30 45 H 2.821241 -4.325323 4.215906 0
M  V30 46 H 1.770043 -2.215437 4.917141 0
M  V30 47 H 2.598467 -0.142125 4.005581 0
M  V30 48 H 5.585315 2.345269 0.079766 0
M  V30 49 H 5.446417 2.637067 1.827042 0
M  V30 50 H 3.622908 3.969738 1.533156 0
M  V30 51 H 3.980430 3.908534 -0.226639 0
M  V30 52 H 1.599560 3.911741 -0.800716 0
M  V30 53 H 1.256682 4.188610 0.923836 0
M  V30 54 H 0.108705 2.496307 -2.091360 0
M  V30 55 H -2.070431 1.264318 -2.179370 0
M  V30 56 H -1.675664 -0.811654 0.131479 0
M  V30 57 H -0.053149 -2.377025 -0.773840 0
M  V30 58 H -0.806324 -3.959160 -2.456752 0
M  V30 59 H -5.053599 -3.096903 -3.641923 0
M  V30 60 H -6.954208 -4.054055 -3.090001 0
M  V30 61 H -9.172489 -3.931523 -1.961035 0
M  V30 62 H -9.597492 -2.219750 -0.166517 0
M  V30 63 H -7.737849 -0.632422 0.469999 0
M  V30 64 H -2.359436 1.499286 2.015704 0
M  V30 65 H -0.232035 2.700931 2.140849 0
M  V30 66 H 1.852196 1.213470 -1.109459 0
M  V30 67 H 3.346245 2.105982 -1.424088 0
M  V30 68 H 3.059016 -0.388622 0.280159 0
M  V30 69 H 4.343428 0.108892 -0.841400 0
M  V30 70 H 5.505784 -2.092104 1.686737 0
M  V30 END ATOM
M  V30 BEGIN BOND
M  V30 1 1 1 2
M  V30 2 1 2 3
M  V30 3 2 3 4
M  V30 4 1 4 5
M  V30 5 2 5 6
M  V30 6 1 6 7
M  V30 7 1 7 8
M  V30 8 2 8 9
M  V30 9 1 8 10
M  V30 10 1 10 11
M  V30 11 1 11 12
M  V30 12 1 12 13
M  V30 13 1 13 14
M  V30 14 1 14 15
M  V30 15 2 15 16
M  V30 16 1 16 17
M  V30 17 2 17 18
M  V30 18 1 18 19
M  V30 19 2 19 20
M  V30 20 1 20 21
M  V30 21 2 21 22
M  V30 22 1 22 23
M  V30 23 1 23 24
M  V30 24 2 24 25
M  V30 25 1 25 26
M  V30 26 2 26 27
M  V30 27 1 27 28
M  V30 28 2 28 29
M  V30 29 1 29 30
M  V30 30 1 30 31
M  V30 31 2 31 32
M  V30 32 1 32 33
M  V30 33 2 33 34
M  V30 34 1 34 35
M  V30 35 2 35 36
M  V30 36 1 18 37
M  V30 37 2 37 38
M  V30 38 1 13 39
M  V30 39 1 39 40
M  V30 40 2 7 41
M  V30 41 1 41 3
M  V30 42 1 40 10
M  V30 43 1 38 15
M  V30 44 1 23 19
M  V30 45 1 29 24
M  V30 46 1 36 31
M  V30 47 1 36 22
M  V30 48 1 1 42
M  V30 49 1 1 43
M  V30 50 1 1 44
M  V30 51 1 4 45
M  V30 52 1 5 46
M  V30 53 1 6 47
M  V30 54 1 11 48
M  V30 55 1 11 49
M  V30 56 1 12 50
M  V30 57 1 12 51
M  V30 58 1 14 52
M  V30 59 1 14 53
M  V30 60 1 16 54
M  V30 61 1 17 55
M  V30 62 1 25 56
M  V30 63 1 26 57
M  V30 64 1 27 58
M  V30 65 1 30 59
M  V30 66 1 32 60
M  V30 67 1 33 61
M  V30 68 1 34 62
M  V30 69 1 35 63
M  V30 70 1 37 64
M  V30 71 1 38 65
M  V30 72 1 39 66
M  V30 73 1 39 67
M  V30 74 1 40 68
M  V30 75 1 40 69
M  V30 76 1 41 70
M  V30 END BOND
M  V30 END CTAB
M  END
>  <Dataset>  (50) 
ChEMBL_Kinases

>  <Ligand_Instance>  (50) 
nan

>  <PDB_ID>  (50) 
nan

>  <Standardized_SMILES>  (50) 
COc1cccc(C(=O)N2CCN(Cc3ccc(-c4nnc5n4-c4cccnc4Nc4ccccc4-5)cc3)CC2)c1

>  <Name>  (50) 
nan

>  <Pocket>  (50) 
nan

>  <ATP_Site>  (50) 
nan

>  <Peripheral>  (50) 
nan

>  <Num_H_Atoms_ProtBoundConf>  (50) 
nan

>  <Num_Resolved_Atoms>  (50) 
nan

>  <Num_Not_Resolved_Atoms>  (50) 
nan

$$$$
CHEMBL3684505
     RDKit          3D

  0  0  0  0  0  0  0  0  0  0999 V3000
M  V30 BEGIN CTAB
M  V30 COUNTS 49 54 0 0 0
M  V30 BEGIN ATOM
M  V30 1 C 6.234878 -4.236035 1.374541 0
M  V30 2 C 5.521492 -4.319164 2.552677 0
M  V30 3 C 4.248530 -3.807820 2.688588 0
M  V30 4 C 3.730926 -3.206172 1.570302 0
M  V30 5 C 4.424292 -3.101252 0.357511 0
M  V30 6 C 5.711864 -3.629693 0.251250 0
M  V30 7 N 4.043797 -2.490858 -0.900921 0
M  V30 8 C 3.147221 -1.356882 -0.927539 0
M  V30 9 N 3.449819 -0.538597 -1.965376 0
M  V30 10 C 2.726122 0.603692 -2.066423 0
M  V30 11 C 1.709104 0.976208 -1.178438 0
M  V30 12 C 1.418264 0.128299 -0.130097 0
M  V30 13 C 2.150967 -1.022746 -0.039558 0
M  V30 14 N 1.701100 -1.808795 1.040580 0
M  V30 15 C 0.444108 -1.678527 1.467591 0
M  V30 16 C -0.795166 -0.992787 1.182196 0
M  V30 17 C -1.466193 -0.158301 2.094708 0
M  V30 18 C -2.664315 0.457107 1.804964 0
M  V30 19 C -3.232814 0.248542 0.569165 0
M  V30 20 C -4.524291 0.927611 0.290934 0
M  V30 21 C -4.359531 2.379052 -0.019363 0
M  V30 22 C -4.706277 3.062071 1.269215 0
M  V30 23 C -5.772207 2.154933 1.829614 0
M  V30 24 N -5.449208 0.816620 1.388982 0
M  V30 25 C -2.659611 -0.549636 -0.397480 0
M  V30 26 C -1.465157 -1.133651 -0.043891 0
M  V30 27 N 0.342126 -2.559358 2.505235 0
M  V30 28 N 1.515927 -3.186625 2.670324 0
M  V30 29 C 2.368463 -2.723795 1.757023 0
M  V30 30 H 7.231490 -4.652941 1.315976 0
M  V30 31 H 5.931800 -4.799003 3.447873 0
M  V30 32 H 3.606530 -3.818484 3.555796 0
M  V30 33 H 6.214734 -3.533124 -0.700415 0
M  V30 34 H 4.431419 -2.861767 -1.787392 0
M  V30 35 H 2.995188 1.219756 -2.899741 0
M  V30 36 H 1.244288 1.908492 -1.406816 0
M  V30 37 H 0.669819 0.541276 0.491887 0
M  V30 38 H -0.995325 -0.012554 3.059113 0
M  V30 39 H -3.086126 1.075736 2.585023 0
M  V30 40 H -4.998643 0.440401 -0.586532 0
M  V30 41 H -3.341781 2.632615 -0.382967 0
M  V30 42 H -5.140315 2.683163 -0.753730 0
M  V30 43 H -3.861602 3.250866 1.932447 0
M  V30 44 H -5.153810 4.071544 1.038006 0
M  V30 45 H -6.754933 2.502114 1.421112 0
M  V30 46 H -5.814346 2.148014 2.929140 0
M  V30 47 H -6.341067 0.347216 1.115090 0
M  V30 48 H -3.084440 -0.726054 -1.366034 0
M  V30 49 H -0.954209 -1.778159 -0.758550 0
M  V30 END ATOM
M  V30 BEGIN BOND
M  V30 1 2 1 2
M  V30 2 1 2 3
M  V30 3 2 3 4
M  V30 4 1 4 5
M  V30 5 2 5 6
M  V30 6 1 5 7
M  V30 7 1 7 8
M  V30 8 2 8 9
M  V30 9 1 9 10
M  V30 10 2 10 11
M  V30 11 1 11 12
M  V30 12 2 12 13
M  V30 13 1 13 14
M  V30 14 1 14 15
M  V30 15 1 15 16
M  V30 16 2 16 17
M  V30 17 1 17 18
M  V30 18 2 18 19
M  V30 19 1 19 20
M  V30 20 1 20 21
M  V30 21 1 21 22
M  V30 22 1 22 23
M  V30 23 1 23 24
M  V30 24 1 19 25
M  V30 25 2 25 26
M  V30 26 2 15 27
M  V30 27 1 27 28
M  V30 28 2 28 29
M  V30 29 1 6 1
M  V30 30 1 13 8
M  V30 31 1 29 14
M  V30 32 1 29 4
M  V30 33 1 26 16
M  V30 34 1 24 20
M  V30 35 1 1 30
M  V30 36 1 2 31
M  V30 37 1 3 32
M  V30 38 1 6 33
M  V30 39 1 7 34
M  V30 40 1 10 35
M  V30 41 1 11 36
M  V30 42 1 12 37
M  V30 43 1 17 38
M  V30 44 1 18 39
M  V30 45 1 20 40
M  V30 46 1 21 41
M  V30 47 1 21 42
M  V30 48 1 22 43
M  V30 49 1 22 44
M  V30 50 1 23 45
M  V30 51 1 23 46
M  V30 52 1 24 47
M  V30 53 1 25 48
M  V30 54 1 26 49
M  V30 END BOND
M  V30 END CTAB
M  END
>  <Dataset>  (51) 
ChEMBL_Kinases

>  <Ligand_Instance>  (51) 
nan

>  <PDB_ID>  (51) 
nan

>  <Standardized_SMILES>  (51) 
c1ccc2c(c1)Nc1ncccc1-n1c(-c3ccc(C4CCCN4)cc3)nnc1-2

>  <Name>  (51) 
nan

>  <Pocket>  (51) 
nan

>  <ATP_Site>  (51) 
nan

>  <Peripheral>  (51) 
nan

>  <Num_H_Atoms_ProtBoundConf>  (51) 
nan

>  <Num_Resolved_Atoms>  (51) 
nan

>  <Num_Not_Resolved_Atoms>  (51) 
nan

$$$$
CHEMBL3684504
     RDKit          3D

  0  0  0  0  0  0  0  0  0  0999 V3000
M  V30 BEGIN CTAB
M  V30 COUNTS 62 68 0 0 0
M  V30 BEGIN ATOM
M  V30 1 O 4.035167 -4.477607 3.567159 0
M  V30 2 S 2.928369 -3.771268 2.751222 0
M  V30 3 O 1.943951 -4.878632 2.452693 0
M  V30 4 N 3.588215 -3.042075 1.398042 0
M  V30 5 C 3.106115 -3.265650 0.100461 0
M  V30 6 C 1.905801 -2.532669 -0.272891 0
M  V30 7 C 0.723914 -2.361695 0.387442 0
M  V30 8 C -0.369642 -1.637423 -0.018581 0
M  V30 9 C -0.291150 -0.981795 -1.261193 0
M  V30 10 C -1.473194 -0.258837 -1.665795 0
M  V30 11 N -2.038280 -0.767433 -2.794999 0
M  V30 12 N -3.158854 -0.072411 -3.069769 0
M  V30 13 C -3.305065 0.870268 -2.122900 0
M  V30 14 N -2.266934 0.739090 -1.283448 0
M  V30 15 C -1.957256 1.490559 -0.131676 0
M  V30 16 C -0.611670 1.444915 0.106017 0
M  V30 17 C -0.157766 2.090886 1.237981 0
M  V30 18 C -1.101861 2.738794 2.045865 0
M  V30 19 N -2.442001 2.779253 1.793500 0
M  V30 20 C -2.854553 2.139705 0.681098 0
M  V30 21 N -4.277592 2.326835 0.494074 0
M  V30 22 C -4.844845 2.386884 -0.839580 0
M  V30 23 C -5.968080 3.215802 -0.837856 0
M  V30 24 C -6.618085 3.394476 -2.039975 0
M  V30 25 C -6.182522 2.780642 -3.209017 0
M  V30 26 C -5.080252 1.960236 -3.235145 0
M  V30 27 C -4.437087 1.784804 -2.037332 0
M  V30 28 C 0.902294 -1.116889 -1.995976 0
M  V30 29 C 1.947813 -1.874902 -1.489522 0
M  V30 30 C 2.875638 -4.761640 -0.245736 0
M  V30 31 C 3.389003 -4.423020 -1.629884 0
M  V30 32 C 4.190541 -3.332988 -0.969612 0
M  V30 33 C 2.139354 -2.655004 3.840517 0
M  V30 34 C 3.080558 -1.892754 4.551528 0
M  V30 35 C 2.733276 -0.941542 5.496254 0
M  V30 36 C 1.405537 -0.702896 5.780165 0
M  V30 37 C 0.479474 -1.450312 5.083635 0
M  V30 38 C 0.821743 -2.394911 4.145974 0
M  V30 39 H 4.587968 -2.779524 1.480630 0
M  V30 40 H 0.643184 -2.849250 1.318291 0
M  V30 41 H -1.255666 -1.576982 0.598493 0
M  V30 42 H 0.196370 1.038074 -0.441152 0
M  V30 43 H 0.877673 2.168867 1.604123 0
M  V30 44 H -0.807484 3.257489 2.942171 0
M  V30 45 H -4.893900 2.435019 1.312049 0
M  V30 46 H -6.254527 3.659962 0.104635 0
M  V30 47 H -7.491016 4.033398 -2.059986 0
M  V30 48 H -6.698112 2.924540 -4.156295 0
M  V30 49 H -4.657698 1.436889 -4.078518 0
M  V30 50 H 0.798521 -0.564124 -2.904885 0
M  V30 51 H 2.718164 -1.797824 -2.247940 0
M  V30 52 H 3.593420 -5.433612 0.253655 0
M  V30 53 H 1.819491 -5.052606 -0.219296 0
M  V30 54 H 2.557926 -4.143077 -2.274609 0
M  V30 55 H 4.007276 -5.253498 -2.056615 0
M  V30 56 H 5.116466 -3.751646 -0.508190 0
M  V30 57 H 4.426751 -2.435555 -1.515269 0
M  V30 58 H 4.173501 -1.953321 4.450918 0
M  V30 59 H 3.434401 -0.343820 6.055143 0
M  V30 60 H 0.972009 -0.003668 6.481043 0
M  V30 61 H -0.591999 -1.367564 5.205280 0
M  V30 62 H 0.166024 -3.019205 3.577292 0
M  V30 END ATOM
M  V30 BEGIN BOND
M  V30 1 2 1 2
M  V30 2 2 2 3
M  V30 3 1 2 4
M  V30 4 1 4 5
M  V30 5 1 5 6
M  V30 6 2 6 7
M  V30 7 1 7 8
M  V30 8 2 8 9
M  V30 9 1 9 10
M  V30 10 2 10 11
M  V30 11 1 11 12
M  V30 12 2 12 13
M  V30 13 1 13 14
M  V30 14 1 14 15
M  V30 15 2 15 16
M  V30 16 1 16 17
M  V30 17 2 17 18
M  V30 18 1 18 19
M  V30 19 2 19 20
M  V30 20 1 20 21
M  V30 21 1 21 22
M  V30 22 2 22 23
M  V30 23 1 23 24
M  V30 24 2 24 25
M  V30 25 1 25 26
M  V30 26 2 26 27
M  V30 27 1 9 28
M  V30 28 2 28 29
M  V30 29 1 5 30
M  V30 30 1 30 31
M  V30 31 1 31 32
M  V30 32 1 2 33
M  V30 33 2 33 34
M  V30 34 1 34 35
M  V30 35 2 35 36
M  V30 36 1 36 37
M  V30 37 2 37 38
M  V30 38 1 32 5
M  V30 39 1 38 33
M  V30 40 1 29 6
M  V30 41 1 14 10
M  V30 42 1 20 15
M  V30 43 1 27 22
M  V30 44 1 27 13
M  V30 45 1 4 39
M  V30 46 1 7 40
M  V30 47 1 8 41
M  V30 48 1 16 42
M  V30 49 1 17 43
M  V30 50 1 18 44
M  V30 51 1 21 45
M  V30 52 1 23 46
M  V30 53 1 24 47
M  V30 54 1 25 48
M  V30 55 1 26 49
M  V30 56 1 28 50
M  V30 57 1 29 51
M  V30 58 1 30 52
M  V30 59 1 30 53
M  V30 60 1 31 54
M  V30 61 1 31 55
M  V30 62 1 32 56
M  V30 63 1 32 57
M  V30 64 1 34 58
M  V30 65 1 35 59
M  V30 66 1 36 60
M  V30 67 1 37 61
M  V30 68 1 38 62
M  V30 END BOND
M  V30 END CTAB
M  END
>  <Dataset>  (52) 
ChEMBL_Kinases

>  <Ligand_Instance>  (52) 
nan

>  <PDB_ID>  (52) 
nan

>  <Standardized_SMILES>  (52) 
O=S(=O)(NC1(c2ccc(-c3nnc4n3-c3cccnc3Nc3ccccc3-4)cc2)CCC1)c1ccccc1

>  <Name>  (52) 
nan

>  <Pocket>  (52) 
nan

>  <ATP_Site>  (52) 
nan

>  <Peripheral>  (52) 
nan

>  <Num_H_Atoms_ProtBoundConf>  (52) 
nan

>  <Num_Resolved_Atoms>  (52) 
nan

>  <Num_Not_Resolved_Atoms>  (52) 
nan

$$$$
CHEMBL3684503
     RDKit          3D

  0  0  0  0  0  0  0  0  0  0999 V3000
M  V30 BEGIN CTAB
M  V30 COUNTS 63 69 0 0 0
M  V30 BEGIN ATOM
M  V30 1 O 3.456924 1.260335 2.777260 0
M  V30 2 C 3.465556 0.040094 2.992306 0
M  V30 3 N 4.744640 -0.546412 2.785448 0
M  V30 4 C 5.834754 0.282595 2.372668 0
M  V30 5 C 6.708771 0.939705 3.212880 0
M  V30 6 C 7.731702 1.718473 2.692862 0
M  V30 7 C 7.849576 1.816679 1.320917 0
M  V30 8 C 7.010667 1.186501 0.431179 0
M  V30 9 C 5.996510 0.414135 0.989872 0
M  V30 10 N 2.317609 -0.655935 3.395475 0
M  V30 11 C 0.982238 -0.154409 3.612568 0
M  V30 12 C 0.185213 -0.127472 2.389743 0
M  V30 13 C -1.116858 -0.578130 2.437398 0
M  V30 14 C -1.948542 -0.603934 1.339332 0
M  V30 15 C -1.490715 -0.157656 0.083880 0
M  V30 16 C -2.337950 -0.137750 -1.080482 0
M  V30 17 N -2.534240 1.108623 -1.592083 0
M  V30 18 N -3.375602 1.039240 -2.637951 0
M  V30 19 C -3.713547 -0.234003 -2.793886 0
M  V30 20 N -3.076488 -0.937638 -1.847454 0
M  V30 21 C -3.102205 -2.323326 -1.598924 0
M  V30 22 C -1.953094 -2.713577 -0.970331 0
M  V30 23 C -1.854847 -4.041290 -0.609966 0
M  V30 24 C -2.916206 -4.901977 -0.904075 0
M  V30 25 N -4.059025 -4.494579 -1.538425 0
M  V30 26 C -4.143094 -3.175573 -1.890309 0
M  V30 27 N -5.366214 -2.917771 -2.614602 0
M  V30 28 C -5.396917 -1.898325 -3.644710 0
M  V30 29 C -6.331685 -2.272617 -4.615643 0
M  V30 30 C -6.488579 -1.426016 -5.693200 0
M  V30 31 C -5.743009 -0.251860 -5.799259 0
M  V30 32 C -4.822614 0.123376 -4.848550 0
M  V30 33 C -4.668143 -0.707289 -3.789258 0
M  V30 34 C -0.165870 0.309948 -0.002298 0
M  V30 35 C 0.588789 0.296824 1.150540 0
M  V30 36 C 0.857303 0.985300 4.581845 0
M  V30 37 C -0.162418 0.183821 5.409744 0
M  V30 38 C 0.373117 -1.031420 4.724819 0
M  V30 39 H 4.853120 -1.593099 2.945317 0
M  V30 40 H 6.512878 0.784421 4.265012 0
M  V30 41 H 8.382271 2.207070 3.398537 0
M  V30 42 H 8.645792 2.422779 0.927037 0
M  V30 43 H 7.104827 1.264753 -0.634504 0
M  V30 44 H 5.318143 -0.095604 0.295025 0
M  V30 45 H 2.541347 -1.689275 3.539336 0
M  V30 46 H -1.660385 -0.954554 3.289870 0
M  V30 47 H -2.978497 -0.943748 1.304539 0
M  V30 48 H -1.064888 -2.193690 -0.731392 0
M  V30 49 H -1.008090 -4.521700 -0.099069 0
M  V30 50 H -2.891149 -5.940499 -0.644146 0
M  V30 51 H -6.205302 -3.479683 -2.397805 0
M  V30 52 H -6.879105 -3.194414 -4.472153 0
M  V30 53 H -7.202352 -1.682981 -6.463681 0
M  V30 54 H -5.863348 0.424104 -6.653576 0
M  V30 55 H -4.203027 1.006439 -4.842457 0
M  V30 56 H 0.199026 0.654961 -0.955919 0
M  V30 57 H 1.573335 0.660341 1.002744 0
M  V30 58 H 1.743130 1.296182 5.128388 0
M  V30 59 H 0.324953 1.830818 4.093357 0
M  V30 60 H 0.104257 0.306556 6.482758 0
M  V30 61 H -1.208104 0.395238 5.201940 0
M  V30 62 H 1.154752 -1.490739 5.403142 0
M  V30 63 H -0.284558 -1.822929 4.408662 0
M  V30 END ATOM
M  V30 BEGIN BOND
M  V30 1 2 1 2
M  V30 2 1 2 3
M  V30 3 1 3 4
M  V30 4 2 4 5
M  V30 5 1 5 6
M  V30 6 2 6 7
M  V30 7 1 7 8
M  V30 8 2 8 9
M  V30 9 1 2 10
M  V30 10 1 10 11
M  V30 11 1 11 12
M  V30 12 2 12 13
M  V30 13 1 13 14
M  V30 14 2 14 15
M  V30 15 1 15 16
M  V30 16 2 16 17
M  V30 17 1 17 18
M  V30 18 2 18 19
M  V30 19 1 19 20
M  V30 20 1 20 21
M  V30 21 2 21 22
M  V30 22 1 22 23
M  V30 23 2 23 24
M  V30 24 1 24 25
M  V30 25 2 25 26
M  V30 26 1 26 27
M  V30 27 1 27 28
M  V30 28 2 28 29
M  V30 29 1 29 30
M  V30 30 2 30 31
M  V30 31 1 31 32
M  V30 32 2 32 33
M  V30 33 1 15 34
M  V30 34 2 34 35
M  V30 35 1 11 36
M  V30 36 1 36 37
M  V30 37 1 37 38
M  V30 38 1 9 4
M  V30 39 1 38 11
M  V30 40 1 35 12
M  V30 41 1 20 16
M  V30 42 1 26 21
M  V30 43 1 33 28
M  V30 44 1 33 19
M  V30 45 1 3 39
M  V30 46 1 5 40
M  V30 47 1 6 41
M  V30 48 1 7 42
M  V30 49 1 8 43
M  V30 50 1 9 44
M  V30 51 1 10 45
M  V30 52 1 13 46
M  V30 53 1 14 47
M  V30 54 1 22 48
M  V30 55 1 23 49
M  V30 56 1 24 50
M  V30 57 1 27 51
M  V30 58 1 29 52
M  V30 59 1 30 53
M  V30 60 1 31 54
M  V30 61 1 32 55
M  V30 62 1 34 56
M  V30 63 1 35 57
M  V30 64 1 36 58
M  V30 65 1 36 59
M  V30 66 1 37 60
M  V30 67 1 37 61
M  V30 68 1 38 62
M  V30 69 1 38 63
M  V30 END BOND
M  V30 END CTAB
M  END
>  <Dataset>  (53) 
ChEMBL_Kinases

>  <Ligand_Instance>  (53) 
nan

>  <PDB_ID>  (53) 
nan

>  <Standardized_SMILES>  (53) 
O=C(Nc1ccccc1)NC1(c2ccc(-c3nnc4n3-c3cccnc3Nc3ccccc3-4)cc2)CCC1

>  <Name>  (53) 
nan

>  <Pocket>  (53) 
nan

>  <ATP_Site>  (53) 
nan

>  <Peripheral>  (53) 
nan

>  <Num_H_Atoms_ProtBoundConf>  (53) 
nan

>  <Num_Resolved_Atoms>  (53) 
nan

>  <Num_Not_Resolved_Atoms>  (53) 
nan

$$$$
CHEMBL3684502
     RDKit          3D

  0  0  0  0  0  0  0  0  0  0999 V3000
M  V30 BEGIN CTAB
M  V30 COUNTS 61 67 0 0 0
M  V30 BEGIN ATOM
M  V30 1 O 0.853729 -4.713014 2.095731 0
M  V30 2 C 2.114174 -4.552623 2.172030 0
M  V30 3 N 2.513280 -3.318763 2.709447 0
M  V30 4 C 1.433121 -2.420959 3.093195 0
M  V30 5 C 0.816580 -1.672479 1.980450 0
M  V30 6 C 1.660351 -1.135710 1.029366 0
M  V30 7 C 1.120929 -0.430028 -0.024645 0
M  V30 8 C -0.263690 -0.232090 -0.173356 0
M  V30 9 C -0.881299 0.468594 -1.273206 0
M  V30 10 N -0.639509 -0.119341 -2.477211 0
M  V30 11 N -1.286298 0.558983 -3.441336 0
M  V30 12 C -1.939456 1.574808 -2.865609 0
M  V30 13 N -1.676692 1.501803 -1.553410 0
M  V30 14 C -2.118805 2.339956 -0.509718 0
M  V30 15 C -1.239167 2.302150 0.536878 0
M  V30 16 C -1.566375 3.032471 1.660354 0
M  V30 17 C -2.764777 3.755610 1.646299 0
M  V30 18 N -3.638050 3.791963 0.593893 0
M  V30 19 C -3.289233 3.066901 -0.491076 0
M  V30 20 N -4.255032 3.254237 -1.551419 0
M  V30 21 C -3.844806 3.208529 -2.940989 0
M  V30 22 C -4.666015 4.050190 -3.699393 0
M  V30 23 C -4.398495 4.136075 -5.046987 0
M  V30 24 C -3.360703 3.420941 -5.632451 0
M  V30 25 C -2.542403 2.588966 -4.910295 0
M  V30 26 C -2.810615 2.504899 -3.571448 0
M  V30 27 C -1.019534 -0.822054 0.851511 0
M  V30 28 C -0.554713 -1.538792 1.931911 0
M  V30 29 C 0.544036 -3.008183 4.129019 0
M  V30 30 C 0.589147 -1.707046 4.871890 0
M  V30 31 C 1.908644 -1.419531 4.150032 0
M  V30 32 C 3.045126 -5.584531 1.729317 0
M  V30 33 C 4.418477 -5.464751 1.788430 0
M  V30 34 C 5.293478 -6.440785 1.369688 0
M  V30 35 C 4.753667 -7.608913 0.860251 0
M  V30 36 C 3.368497 -7.767663 0.784174 0
M  V30 37 C 2.521176 -6.756398 1.218343 0
M  V30 38 H 3.539058 -3.105345 2.807490 0
M  V30 39 H 2.737087 -1.237162 1.061895 0
M  V30 40 H 1.738325 0.013128 -0.800432 0
M  V30 41 H -0.294704 1.841358 0.651231 0
M  V30 42 H -1.001532 3.123494 2.580614 0
M  V30 43 H -3.068369 4.342177 2.501932 0
M  V30 44 H -5.246087 3.438786 -1.315924 0
M  V30 45 H -5.455406 4.574509 -3.180903 0
M  V30 46 H -5.015195 4.776313 -5.652454 0
M  V30 47 H -3.150434 3.491745 -6.703543 0
M  V30 48 H -1.715668 1.992622 -5.262240 0
M  V30 49 H -2.093311 -0.680426 0.754950 0
M  V30 50 H -1.234001 -1.936755 2.643449 0
M  V30 51 H 1.065366 -3.812566 4.690176 0
M  V30 52 H -0.444336 -3.395903 3.829713 0
M  V30 53 H 0.715281 -1.845364 5.965250 0
M  V30 54 H -0.221657 -1.002599 4.616402 0
M  V30 55 H 2.764792 -1.821589 4.758304 0
M  V30 56 H 2.008301 -0.389052 3.786089 0
M  V30 57 H 4.841792 -4.549665 2.187510 0
M  V30 58 H 6.363606 -6.297483 1.437426 0
M  V30 59 H 5.480647 -8.348626 0.543224 0
M  V30 60 H 3.012927 -8.707094 0.374885 0
M  V30 61 H 1.446961 -6.968540 1.120725 0
M  V30 END ATOM
M  V30 BEGIN BOND
M  V30 1 2 1 2
M  V30 2 1 2 3
M  V30 3 1 3 4
M  V30 4 1 4 5
M  V30 5 2 5 6
M  V30 6 1 6 7
M  V30 7 2 7 8
M  V30 8 1 8 9
M  V30 9 2 9 10
M  V30 10 1 10 11
M  V30 11 2 11 12
M  V30 12 1 12 13
M  V30 13 1 13 14
M  V30 14 2 14 15
M  V30 15 1 15 16
M  V30 16 2 16 17
M  V30 17 1 17 18
M  V30 18 2 18 19
M  V30 19 1 19 20
M  V30 20 1 20 21
M  V30 21 2 21 22
M  V30 22 1 22 23
M  V30 23 2 23 24
M  V30 24 1 24 25
M  V30 25 2 25 26
M  V30 26 1 8 27
M  V30 27 2 27 28
M  V30 28 1 4 29
M  V30 29 1 29 30
M  V30 30 1 30 31
M  V30 31 1 2 32
M  V30 32 2 32 33
M  V30 33 1 33 34
M  V30 34 2 34 35
M  V30 35 1 35 36
M  V30 36 2 36 37
M  V30 37 1 31 4
M  V30 38 1 37 32
M  V30 39 1 28 5
M  V30 40 1 13 9
M  V30 41 1 19 14
M  V30 42 1 26 21
M  V30 43 1 26 12
M  V30 44 1 3 38
M  V30 45 1 6 39
M  V30 46 1 7 40
M  V30 47 1 15 41
M  V30 48 1 16 42
M  V30 49 1 17 43
M  V30 50 1 20 44
M  V30 51 1 22 45
M  V30 52 1 23 46
M  V30 53 1 24 47
M  V30 54 1 25 48
M  V30 55 1 27 49
M  V30 56 1 28 50
M  V30 57 1 29 51
M  V30 58 1 29 52
M  V30 59 1 30 53
M  V30 60 1 30 54
M  V30 61 1 31 55
M  V30 62 1 31 56
M  V30 63 1 33 57
M  V30 64 1 34 58
M  V30 65 1 35 59
M  V30 66 1 36 60
M  V30 67 1 37 61
M  V30 END BOND
M  V30 END CTAB
M  END
>  <Dataset>  (54) 
ChEMBL_Kinases

>  <Ligand_Instance>  (54) 
nan

>  <PDB_ID>  (54) 
nan

>  <Standardized_SMILES>  (54) 
O=C(NC1(c2ccc(-c3nnc4n3-c3cccnc3Nc3ccccc3-4)cc2)CCC1)c1ccccc1

>  <Name>  (54) 
nan

>  <Pocket>  (54) 
nan

>  <ATP_Site>  (54) 
nan

>  <Peripheral>  (54) 
nan

>  <Num_H_Atoms_ProtBoundConf>  (54) 
nan

>  <Num_Resolved_Atoms>  (54) 
nan

>  <Num_Not_Resolved_Atoms>  (54) 
nan

$$$$
CHEMBL3684501
     RDKit          3D

  0  0  0  0  0  0  0  0  0  0999 V3000
M  V30 BEGIN CTAB
M  V30 COUNTS 48 52 0 0 0
M  V30 BEGIN ATOM
M  V30 1 C 4.629372 -3.263351 1.574038 0
M  V30 2 C 3.774343 -3.812149 0.449505 0
M  V30 3 C 3.243555 -5.166122 0.890707 0
M  V30 4 N 4.620068 -4.013103 -0.690063 0
M  V30 5 C 2.663398 -2.856901 0.210338 0
M  V30 6 C 2.830173 -1.834303 -0.698163 0
M  V30 7 C 1.796723 -0.949201 -0.917790 0
M  V30 8 C 0.564677 -1.048894 -0.244194 0
M  V30 9 C -0.563414 -0.169350 -0.460495 0
M  V30 10 N -1.025619 -0.224155 -1.737841 0
M  V30 11 N -2.100182 0.578931 -1.841780 0
M  V30 12 C -2.327220 1.144364 -0.644163 0
M  V30 13 N -1.376049 0.674062 0.174921 0
M  V30 14 C -1.162708 0.958179 1.535551 0
M  V30 15 C 0.152013 0.760210 1.862205 0
M  V30 16 C 0.515231 0.945602 3.180693 0
M  V30 17 C -0.483554 1.324314 4.087172 0
M  V30 18 N -1.793071 1.522442 3.745032 0
M  V30 19 C -2.115450 1.333533 2.449703 0
M  V30 20 N -3.509676 1.653410 2.233431 0
M  V30 21 C -3.947473 2.202094 0.964817 0
M  V30 22 C -5.045724 3.037932 1.158360 0
M  V30 23 C -5.576778 3.656415 0.047186 0
M  V30 24 C -5.041463 3.458095 -1.223046 0
M  V30 25 C -3.956246 2.637181 -1.447167 0
M  V30 26 C -3.441970 2.030244 -0.330035 0
M  V30 27 C 0.501827 -2.126238 0.658610 0
M  V30 28 C 1.496905 -3.042202 0.921684 0
M  V30 29 H 3.973286 -2.632250 2.223870 0
M  V30 30 H 5.047948 -4.132577 2.132324 0
M  V30 31 H 5.487358 -2.681400 1.174932 0
M  V30 32 H 3.946213 -5.987502 0.651710 0
M  V30 33 H 2.271946 -5.395882 0.366585 0
M  V30 34 H 3.033702 -5.187777 1.979803 0
M  V30 35 H 5.628575 -4.081169 -0.460401 0
M  V30 36 H 4.290733 -4.769879 -1.328477 0
M  V30 37 H 3.770233 -1.720209 -1.242901 0
M  V30 38 H 1.881420 -0.131729 -1.620685 0
M  V30 39 H 1.000561 0.524414 1.275737 0
M  V30 40 H 1.490619 0.835842 3.622084 0
M  V30 41 H -0.277666 1.483913 5.123622 0
M  V30 42 H -4.191853 1.509558 2.979245 0
M  V30 43 H -5.409546 3.143332 2.170141 0
M  V30 44 H -6.429449 4.308260 0.181545 0
M  V30 45 H -5.464623 3.949994 -2.099918 0
M  V30 46 H -3.474640 2.420191 -2.378442 0
M  V30 47 H -0.453360 -2.215139 1.190198 0
M  V30 48 H 1.300880 -3.818240 1.644539 0
M  V30 END ATOM
M  V30 BEGIN BOND
M  V30 1 1 1 2
M  V30 2 1 2 3
M  V30 3 1 2 4
M  V30 4 1 2 5
M  V30 5 2 5 6
M  V30 6 1 6 7
M  V30 7 2 7 8
M  V30 8 1 8 9
M  V30 9 2 9 10
M  V30 10 1 10 11
M  V30 11 2 11 12
M  V30 12 1 12 13
M  V30 13 1 13 14
M  V30 14 2 14 15
M  V30 15 1 15 16
M  V30 16 2 16 17
M  V30 17 1 17 18
M  V30 18 2 18 19
M  V30 19 1 19 20
M  V30 20 1 20 21
M  V30 21 2 21 22
M  V30 22 1 22 23
M  V30 23 2 23 24
M  V30 24 1 24 25
M  V30 25 2 25 26
M  V30 26 1 8 27
M  V30 27 2 27 28
M  V30 28 1 28 5
M  V30 29 1 13 9
M  V30 30 1 19 14
M  V30 31 1 26 21
M  V30 32 1 26 12
M  V30 33 1 1 29
M  V30 34 1 1 30
M  V30 35 1 1 31
M  V30 36 1 3 32
M  V30 37 1 3 33
M  V30 38 1 3 34
M  V30 39 1 4 35
M  V30 40 1 4 36
M  V30 41 1 6 37
M  V30 42 1 7 38
M  V30 43 1 15 39
M  V30 44 1 16 40
M  V30 45 1 17 41
M  V30 46 1 20 42
M  V30 47 1 22 43
M  V30 48 1 23 44
M  V30 49 1 24 45
M  V30 50 1 25 46
M  V30 51 1 27 47
M  V30 52 1 28 48
M  V30 END BOND
M  V30 END CTAB
M  END
>  <Dataset>  (55) 
ChEMBL_Kinases

>  <Ligand_Instance>  (55) 
nan

>  <PDB_ID>  (55) 
nan

>  <Standardized_SMILES>  (55) 
CC(C)(N)c1ccc(-c2nnc3n2-c2cccnc2Nc2ccccc2-3)cc1

>  <Name>  (55) 
nan

>  <Pocket>  (55) 
nan

>  <ATP_Site>  (55) 
nan

>  <Peripheral>  (55) 
nan

>  <Num_H_Atoms_ProtBoundConf>  (55) 
nan

>  <Num_Resolved_Atoms>  (55) 
nan

>  <Num_Not_Resolved_Atoms>  (55) 
nan

$$$$
CHEMBL3684500
     RDKit          3D

  0  0  0  0  0  0  0  0  0  0999 V3000
M  V30 BEGIN CTAB
M  V30 COUNTS 73 80 0 0 0
M  V30 BEGIN ATOM
M  V30 1 O 4.010628 1.272203 -3.518548 0
M  V30 2 C 3.723869 0.032145 -3.398111 0
M  V30 3 N 4.613801 -0.728986 -2.723967 0
M  V30 4 C 4.127174 -1.982925 -2.712922 0
M  V30 5 C 4.725830 -3.165196 -2.105376 0
M  V30 6 C 5.930405 -3.099101 -1.442884 0
M  V30 7 C 6.498761 -4.235487 -0.861204 0
M  V30 8 C 5.839414 -5.466032 -0.948434 0
M  V30 9 C 4.630356 -5.516004 -1.617298 0
M  V30 10 C 4.088842 -4.383606 -2.183059 0
M  V30 11 C 2.929817 -1.948150 -3.395274 0
M  V30 12 N 2.663197 -0.720408 -3.824438 0
M  V30 13 C 1.636723 -0.004602 -4.561362 0
M  V30 14 C 1.058772 1.082553 -3.713218 0
M  V30 15 C -0.277573 0.835363 -3.136004 0
M  V30 16 N -0.963039 -0.322201 -3.593572 0
M  V30 17 C -0.921485 -1.487723 -2.779171 0
M  V30 18 C -1.460103 -1.368742 -1.424878 0
M  V30 19 C -0.592760 -1.018519 -0.408611 0
M  V30 20 C -1.145100 -0.918851 0.851587 0
M  V30 21 C -2.500519 -1.141034 1.185671 0
M  V30 22 C -2.961485 -1.040993 2.551284 0
M  V30 23 N -3.442535 -2.215430 3.039993 0
M  V30 24 N -3.804452 -2.060923 4.326061 0
M  V30 25 C -3.554094 -0.784854 4.660396 0
M  V30 26 N -3.048844 -0.190340 3.570251 0
M  V30 27 C -2.631290 1.145834 3.403887 0
M  V30 28 C -2.715596 1.506685 2.086769 0
M  V30 29 C -2.287742 2.775774 1.753497 0
M  V30 30 C -1.803669 3.598812 2.778655 0
M  V30 31 N -1.729997 3.224493 4.088585 0
M  V30 32 C -2.153285 1.982472 4.389074 0
M  V30 33 N -2.088664 1.752764 5.816251 0
M  V30 34 C -3.050232 0.884566 6.467368 0
M  V30 35 C -3.262231 1.327343 7.779483 0
M  V30 36 C -4.168501 0.616528 8.536991 0
M  V30 37 C -4.853353 -0.495342 8.038504 0
M  V30 38 C -4.650898 -0.939072 6.748338 0
M  V30 39 C -3.751806 -0.234489 5.997586 0
M  V30 40 C -3.315694 -1.494162 0.088850 0
M  V30 41 C -2.802278 -1.604937 -1.190177 0
M  V30 42 C -0.769337 -0.566340 -4.995870 0
M  V30 43 C 0.678859 -0.978884 -5.135783 0
M  V30 44 H 5.514070 -0.503356 -2.268416 0
M  V30 45 H 6.471327 -2.170330 -1.352653 0
M  V30 46 H 7.446809 -4.235455 -0.326954 0
M  V30 47 H 6.195583 -6.395937 -0.533527 0
M  V30 48 H 4.018260 -6.419914 -1.753369 0
M  V30 49 H 3.134413 -4.397753 -2.717135 0
M  V30 50 H 2.238137 -2.727117 -3.607621 0
M  V30 51 H 2.186982 0.456389 -5.438946 0
M  V30 52 H 1.084187 2.029475 -4.292549 0
M  V30 53 H 1.766532 1.273304 -2.867525 0
M  V30 54 H -0.293196 0.841722 -2.029814 0
M  V30 55 H -0.958871 1.698392 -3.401780 0
M  V30 56 H 0.098999 -1.892360 -2.790512 0
M  V30 57 H -1.546336 -2.261097 -3.305245 0
M  V30 58 H 0.448310 -0.819506 -0.486046 0
M  V30 59 H -0.512327 -0.643391 1.711763 0
M  V30 60 H -3.098969 1.006788 1.237007 0
M  V30 61 H -2.275637 3.238069 0.768118 0
M  V30 62 H -1.455858 4.597631 2.568507 0
M  V30 63 H -1.363000 2.223116 6.375452 0
M  V30 64 H -2.708001 2.183703 8.109970 0
M  V30 65 H -4.353442 0.934681 9.554712 0
M  V30 66 H -5.563405 -1.049821 8.635451 0
M  V30 67 H -5.116769 -1.777072 6.258661 0
M  V30 68 H -4.374189 -1.671844 0.324371 0
M  V30 69 H -3.450637 -1.877010 -2.012069 0
M  V30 70 H -0.884062 0.402121 -5.530431 0
M  V30 71 H -1.427165 -1.336596 -5.380090 0
M  V30 72 H 0.836231 -1.125718 -6.244527 0
M  V30 73 H 0.732869 -2.010939 -4.730597 0
M  V30 END ATOM
M  V30 BEGIN BOND
M  V30 1 2 1 2
M  V30 2 1 2 3
M  V30 3 1 3 4
M  V30 4 1 4 5
M  V30 5 2 5 6
M  V30 6 1 6 7
M  V30 7 2 7 8
M  V30 8 1 8 9
M  V30 9 2 9 10
M  V30 10 2 4 11
M  V30 11 1 11 12
M  V30 12 1 12 13
M  V30 13 1 13 14
M  V30 14 1 14 15
M  V30 15 1 15 16
M  V30 16 1 16 17
M  V30 17 1 17 18
M  V30 18 2 18 19
M  V30 19 1 19 20
M  V30 20 2 20 21
M  V30 21 1 21 22
M  V30 22 2 22 23
M  V30 23 1 23 24
M  V30 24 2 24 25
M  V30 25 1 25 26
M  V30 26 1 26 27
M  V30 27 2 27 28
M  V30 28 1 28 29
M  V30 29 2 29 30
M  V30 30 1 30 31
M  V30 31 2 31 32
M  V30 32 1 32 33
M  V30 33 1 33 34
M  V30 34 2 34 35
M  V30 35 1 35 36
M  V30 36 2 36 37
M  V30 37 1 37 38
M  V30 38 2 38 39
M  V30 39 1 21 40
M  V30 40 2 40 41
M  V30 41 1 16 42
M  V30 42 1 42 43
M  V30 43 1 12 2
M  V30 44 1 43 13
M  V30 45 1 10 5
M  V30 46 1 41 18
M  V30 47 1 26 22
M  V30 48 1 32 27
M  V30 49 1 39 34
M  V30 50 1 39 25
M  V30 51 1 3 44
M  V30 52 1 6 45
M  V30 53 1 7 46
M  V30 54 1 8 47
M  V30 55 1 9 48
M  V30 56 1 10 49
M  V30 57 1 11 50
M  V30 58 1 13 51
M  V30 59 1 14 52
M  V30 60 1 14 53
M  V30 61 1 15 54
M  V30 62 1 15 55
M  V30 63 1 17 56
M  V30 64 1 17 57
M  V30 65 1 19 58
M  V30 66 1 20 59
M  V30 67 1 28 60
M  V30 68 1 29 61
M  V30 69 1 30 62
M  V30 70 1 33 63
M  V30 71 1 35 64
M  V30 72 1 36 65
M  V30 73 1 37 66
M  V30 74 1 38 67
M  V30 75 1 40 68
M  V30 76 1 41 69
M  V30 77 1 42 70
M  V30 78 1 42 71
M  V30 79 1 43 72
M  V30 80 1 43 73
M  V30 END BOND
M  V30 END CTAB
M  END
>  <Dataset>  (56) 
ChEMBL_Kinases

>  <Ligand_Instance>  (56) 
nan

>  <PDB_ID>  (56) 
nan

>  <Standardized_SMILES>  (56) 
O=c1[nH]c(-c2ccccc2)cn1C1CCN(Cc2ccc(-c3nnc4n3-c3cccnc3Nc3ccccc3-4)cc2)CC1

>  <Name>  (56) 
nan

>  <Pocket>  (56) 
nan

>  <ATP_Site>  (56) 
nan

>  <Peripheral>  (56) 
nan

>  <Num_H_Atoms_ProtBoundConf>  (56) 
nan

>  <Num_Resolved_Atoms>  (56) 
nan

>  <Num_Not_Resolved_Atoms>  (56) 
nan

$$$$
CHEMBL3684499
     RDKit          3D

  0  0  0  0  0  0  0  0  0  0999 V3000
M  V30 BEGIN CTAB
M  V30 COUNTS 63 69 0 0 0
M  V30 BEGIN ATOM
M  V30 1 C 5.856042 -0.096878 1.555979 0
M  V30 2 C 5.643355 1.358888 1.388086 0
M  V30 3 N 6.545511 2.278196 0.980397 0
M  V30 4 O 5.915313 3.414855 0.984218 0
M  V30 5 C 4.682305 3.309171 1.359613 0
M  V30 6 C 3.587919 4.277052 1.525018 0
M  V30 7 C 3.074980 4.376963 2.934950 0
M  V30 8 C 2.231570 3.169264 3.299476 0
M  V30 9 C 1.116465 2.979126 2.308247 0
M  V30 10 N 1.613806 2.928024 0.971301 0
M  V30 11 C 0.616955 2.693621 -0.023221 0
M  V30 12 C -0.113487 1.406343 0.143206 0
M  V30 13 C -1.261923 1.394055 0.907891 0
M  V30 14 C -1.947868 0.208057 1.070487 0
M  V30 15 C -1.517477 -0.997026 0.482050 0
M  V30 16 C -2.184283 -2.269286 0.651969 0
M  V30 17 N -2.230660 -2.696594 1.950705 0
M  V30 18 N -2.812219 -3.891918 2.017253 0
M  V30 19 C -3.145254 -4.249626 0.781167 0
M  V30 20 N -2.762323 -3.256228 -0.035887 0
M  V30 21 C -2.892828 -3.148814 -1.427766 0
M  V30 22 C -2.912757 -1.832892 -1.806039 0
M  V30 23 C -2.983119 -1.558706 -3.155968 0
M  V30 24 C -3.031607 -2.642629 -4.041515 0
M  V30 25 N -3.015428 -3.955136 -3.656697 0
M  V30 26 C -2.946402 -4.189761 -2.330895 0
M  V30 27 N -3.014653 -5.611810 -2.065965 0
M  V30 28 C -3.638331 -6.103418 -0.851122 0
M  V30 29 C -4.209628 -7.357101 -1.101107 0
M  V30 30 C -4.865359 -7.967443 -0.049572 0
M  V30 31 C -4.948598 -7.362464 1.186769 0
M  V30 32 C -4.400252 -6.136869 1.465278 0
M  V30 33 C -3.748132 -5.528683 0.423363 0
M  V30 34 C -0.338049 -0.872732 -0.275402 0
M  V30 35 C 0.389773 0.280576 -0.474240 0
M  V30 36 C 2.423218 4.040651 0.596985 0
M  V30 37 N 4.480907 1.990765 1.626491 0
M  V30 38 H 5.792746 -0.619454 0.567137 0
M  V30 39 H 6.887519 -0.313523 1.937217 0
M  V30 40 H 5.101256 -0.534633 2.226710 0
M  V30 41 H 3.967719 5.305219 1.250262 0
M  V30 42 H 3.853399 4.582510 3.673101 0
M  V30 43 H 2.392943 5.272207 2.946397 0
M  V30 44 H 2.877844 2.284748 3.359117 0
M  V30 45 H 1.742539 3.332107 4.284419 0
M  V30 46 H 0.440656 3.868033 2.386785 0
M  V30 47 H 0.485535 2.115536 2.517766 0
M  V30 48 H 1.121884 2.658065 -1.009798 0
M  V30 49 H -0.129836 3.511583 -0.090741 0
M  V30 50 H -1.639565 2.305405 1.387840 0
M  V30 51 H -2.854777 0.121391 1.654961 0
M  V30 52 H -2.929851 -0.936544 -1.243694 0
M  V30 53 H -3.005877 -0.583778 -3.622352 0
M  V30 54 H -3.085132 -2.492821 -5.107462 0
M  V30 55 H -2.635534 -6.270810 -2.746630 0
M  V30 56 H -4.100864 -7.767651 -2.093365 0
M  V30 57 H -5.314300 -8.935695 -0.218828 0
M  V30 58 H -5.470820 -7.844319 2.029017 0
M  V30 59 H -4.408580 -5.582955 2.388209 0
M  V30 60 H -0.012778 -1.811918 -0.727121 0
M  V30 61 H 1.278413 0.244427 -1.077399 0
M  V30 62 H 1.879956 4.990599 0.449777 0
M  V30 63 H 2.852561 3.790112 -0.416535 0
M  V30 END ATOM
M  V30 BEGIN BOND
M  V30 1 1 1 2
M  V30 2 2 2 3
M  V30 3 1 3 4
M  V30 4 1 4 5
M  V30 5 1 5 6
M  V30 6 1 6 7
M  V30 7 1 7 8
M  V30 8 1 8 9
M  V30 9 1 9 10
M  V30 10 1 10 11
M  V30 11 1 11 12
M  V30 12 2 12 13
M  V30 13 1 13 14
M  V30 14 2 14 15
M  V30 15 1 15 16
M  V30 16 2 16 17
M  V30 17 1 17 18
M  V30 18 2 18 19
M  V30 19 1 19 20
M  V30 20 1 20 21
M  V30 21 2 21 22
M  V30 22 1 22 23
M  V30 23 2 23 24
M  V30 24 1 24 25
M  V30 25 2 25 26
M  V30 26 1 26 27
M  V30 27 1 27 28
M  V30 28 2 28 29
M  V30 29 1 29 30
M  V30 30 2 30 31
M  V30 31 1 31 32
M  V30 32 2 32 33
M  V30 33 1 15 34
M  V30 34 2 34 35
M  V30 35 1 10 36
M  V30 36 2 5 37
M  V30 37 1 37 2
M  V30 38 1 36 6
M  V30 39 1 35 12
M  V30 40 1 20 16
M  V30 41 1 26 21
M  V30 42 1 33 28
M  V30 43 1 33 19
M  V30 44 1 1 38
M  V30 45 1 1 39
M  V30 46 1 1 40
M  V30 47 1 6 41
M  V30 48 1 7 42
M  V30 49 1 7 43
M  V30 50 1 8 44
M  V30 51 1 8 45
M  V30 52 1 9 46
M  V30 53 1 9 47
M  V30 54 1 11 48
M  V30 55 1 11 49
M  V30 56 1 13 50
M  V30 57 1 14 51
M  V30 58 1 22 52
M  V30 59 1 23 53
M  V30 60 1 24 54
M  V30 61 1 27 55
M  V30 62 1 29 56
M  V30 63 1 30 57
M  V30 64 1 31 58
M  V30 65 1 32 59
M  V30 66 1 34 60
M  V30 67 1 35 61
M  V30 68 1 36 62
M  V30 69 1 36 63
M  V30 END BOND
M  V30 END CTAB
M  END
>  <Dataset>  (57) 
ChEMBL_Kinases

>  <Ligand_Instance>  (57) 
nan

>  <PDB_ID>  (57) 
nan

>  <Standardized_SMILES>  (57) 
Cc1noc(C2CCCN(Cc3ccc(-c4nnc5n4-c4cccnc4Nc4ccccc4-5)cc3)C2)n1

>  <Name>  (57) 
nan

>  <Pocket>  (57) 
nan

>  <ATP_Site>  (57) 
nan

>  <Peripheral>  (57) 
nan

>  <Num_H_Atoms_ProtBoundConf>  (57) 
nan

>  <Num_Resolved_Atoms>  (57) 
nan

>  <Num_Not_Resolved_Atoms>  (57) 
nan

$$$$
CHEMBL3684498
     RDKit          3D

  0  0  0  0  0  0  0  0  0  0999 V3000
M  V30 BEGIN CTAB
M  V30 COUNTS 66 72 0 0 0
M  V30 BEGIN ATOM
M  V30 1 C 5.650004 1.492837 6.306115 0
M  V30 2 C 5.952896 2.353273 5.244787 0
M  V30 3 C 5.107987 2.431468 4.157673 0
M  V30 4 C 3.958449 1.676630 4.085225 0
M  V30 5 O 2.994884 1.598751 3.118194 0
M  V30 6 C 2.961587 2.311582 1.914719 0
M  V30 7 C 3.076359 1.370992 0.721580 0
M  V30 8 C 3.290516 2.284516 -0.472111 0
M  V30 9 C 2.194917 3.300614 -0.607524 0
M  V30 10 N 1.262421 3.338880 0.438808 0
M  V30 11 C -0.100673 3.105999 0.178987 0
M  V30 12 C -0.457889 1.795553 -0.391059 0
M  V30 13 C -0.541072 1.510751 -1.738748 0
M  V30 14 C -0.882539 0.246048 -2.168814 0
M  V30 15 C -1.158196 -0.798019 -1.267275 0
M  V30 16 C -1.489224 -2.152838 -1.645277 0
M  V30 17 N -0.502684 -2.783046 -2.350125 0
M  V30 18 N -0.861740 -4.038472 -2.615866 0
M  V30 19 C -2.067644 -4.231589 -2.092989 0
M  V30 20 N -2.438256 -3.080405 -1.510647 0
M  V30 21 C -3.627735 -2.768740 -0.826579 0
M  V30 22 C -3.866222 -1.422200 -0.883551 0
M  V30 23 C -4.976859 -0.967812 -0.203325 0
M  V30 24 C -5.762647 -1.883695 0.476037 0
M  V30 25 N -5.537561 -3.229197 0.536918 0
M  V30 26 C -4.430835 -3.651460 -0.145939 0
M  V30 27 N -4.333039 -5.094436 -0.079275 0
M  V30 28 C -3.765537 -5.848158 -1.176215 0
M  V30 29 C -4.374312 -7.107675 -1.238628 0
M  V30 30 C -3.960544 -7.952037 -2.244133 0
M  V30 31 C -2.984707 -7.577371 -3.157285 0
M  V30 32 C -2.372584 -6.345677 -3.114799 0
M  V30 33 C -2.782984 -5.501811 -2.112590 0
M  V30 34 C -1.055387 -0.440092 0.090019 0
M  V30 35 C -0.716593 0.813831 0.559747 0
M  V30 36 C 1.707713 3.104605 1.764330 0
M  V30 37 C 3.665663 0.821793 5.148980 0
M  V30 38 C 4.504041 0.723787 6.260975 0
M  V30 39 H 6.353408 1.482053 7.122364 0
M  V30 40 H 6.836003 2.978467 5.226598 0
M  V30 41 H 5.247095 3.057868 3.292699 0
M  V30 42 H 3.849990 2.992162 1.809684 0
M  V30 43 H 4.006926 0.759217 0.788781 0
M  V30 44 H 2.179238 0.757768 0.670487 0
M  V30 45 H 3.480805 1.718847 -1.402439 0
M  V30 46 H 4.258221 2.804089 -0.258524 0
M  V30 47 H 2.657057 4.330653 -0.677651 0
M  V30 48 H 1.719772 3.148318 -1.574797 0
M  V30 49 H -0.708210 3.322922 1.067802 0
M  V30 50 H -0.432799 3.864809 -0.589677 0
M  V30 51 H -0.334692 2.300807 -2.445281 0
M  V30 52 H -0.952977 0.002597 -3.215478 0
M  V30 53 H -3.379599 -0.636194 -1.397225 0
M  V30 54 H -5.311812 0.079386 -0.143839 0
M  V30 55 H -6.641200 -1.574736 1.024755 0
M  V30 56 H -4.688592 -5.593101 0.757592 0
M  V30 57 H -5.121272 -7.337644 -0.500755 0
M  V30 58 H -4.418783 -8.920419 -2.303708 0
M  V30 59 H -2.650876 -8.240722 -3.958341 0
M  V30 60 H -1.608788 -5.950481 -3.765902 0
M  V30 61 H -1.268059 -1.246113 0.808692 0
M  V30 62 H -0.674071 0.952742 1.632138 0
M  V30 63 H 1.872905 4.103631 2.253273 0
M  V30 64 H 0.905487 2.625551 2.399486 0
M  V30 65 H 2.795827 0.163413 5.236638 0
M  V30 66 H 4.305804 0.072632 7.099529 0
M  V30 END ATOM
M  V30 BEGIN BOND
M  V30 1 2 1 2
M  V30 2 1 2 3
M  V30 3 2 3 4
M  V30 4 1 4 5
M  V30 5 1 5 6
M  V30 6 1 6 7
M  V30 7 1 7 8
M  V30 8 1 8 9
M  V30 9 1 9 10
M  V30 10 1 10 11
M  V30 11 1 11 12
M  V30 12 2 12 13
M  V30 13 1 13 14
M  V30 14 2 14 15
M  V30 15 1 15 16
M  V30 16 2 16 17
M  V30 17 1 17 18
M  V30 18 2 18 19
M  V30 19 1 19 20
M  V30 20 1 20 21
M  V30 21 2 21 22
M  V30 22 1 22 23
M  V30 23 2 23 24
M  V30 24 1 24 25
M  V30 25 2 25 26
M  V30 26 1 26 27
M  V30 27 1 27 28
M  V30 28 2 28 29
M  V30 29 1 29 30
M  V30 30 2 30 31
M  V30 31 1 31 32
M  V30 32 2 32 33
M  V30 33 1 15 34
M  V30 34 2 34 35
M  V30 35 1 10 36
M  V30 36 1 4 37
M  V30 37 2 37 38
M  V30 38 1 38 1
M  V30 39 1 36 6
M  V30 40 1 35 12
M  V30 41 1 20 16
M  V30 42 1 26 21
M  V30 43 1 33 28
M  V30 44 1 33 19
M  V30 45 1 1 39
M  V30 46 1 2 40
M  V30 47 1 3 41
M  V30 48 1 6 42
M  V30 49 1 7 43
M  V30 50 1 7 44
M  V30 51 1 8 45
M  V30 52 1 8 46
M  V30 53 1 9 47
M  V30 54 1 9 48
M  V30 55 1 11 49
M  V30 56 1 11 50
M  V30 57 1 13 51
M  V30 58 1 14 52
M  V30 59 1 22 53
M  V30 60 1 23 54
M  V30 61 1 24 55
M  V30 62 1 27 56
M  V30 63 1 29 57
M  V30 64 1 30 58
M  V30 65 1 31 59
M  V30 66 1 32 60
M  V30 67 1 34 61
M  V30 68 1 35 62
M  V30 69 1 36 63
M  V30 70 1 36 64
M  V30 71 1 37 65
M  V30 72 1 38 66
M  V30 END BOND
M  V30 END CTAB
M  END
>  <Dataset>  (58) 
ChEMBL_Kinases

>  <Ligand_Instance>  (58) 
nan

>  <PDB_ID>  (58) 
nan

>  <Standardized_SMILES>  (58) 
c1ccc(OC2CCCN(Cc3ccc(-c4nnc5n4-c4cccnc4Nc4ccccc4-5)cc3)C2)cc1

>  <Name>  (58) 
nan

>  <Pocket>  (58) 
nan

>  <ATP_Site>  (58) 
nan

>  <Peripheral>  (58) 
nan

>  <Num_H_Atoms_ProtBoundConf>  (58) 
nan

>  <Num_Resolved_Atoms>  (58) 
nan

>  <Num_Not_Resolved_Atoms>  (58) 
nan

$$$$
CHEMBL3684497
     RDKit          3D

  0  0  0  0  0  0  0  0  0  0999 V3000
M  V30 BEGIN CTAB
M  V30 COUNTS 66 72 0 0 0
M  V30 BEGIN ATOM
M  V30 1 C 5.538389 -1.195599 3.217491 0
M  V30 2 C 6.367968 -0.200387 2.718489 0
M  V30 3 C 5.814204 0.886790 2.030756 0
M  V30 4 C 4.431359 1.008268 1.824962 0
M  V30 5 O 4.222101 2.175223 1.124319 0
M  V30 6 C 2.961487 2.590982 0.758667 0
M  V30 7 C 2.562822 3.920027 1.396704 0
M  V30 8 C 1.050731 3.987944 1.241305 0
M  V30 9 N 0.744375 4.065338 -0.129603 0
M  V30 10 C -0.576742 3.643947 -0.498004 0
M  V30 11 C -0.889008 2.236715 -0.156237 0
M  V30 12 C -1.451450 1.936247 1.066887 0
M  V30 13 C -1.737498 0.623121 1.378886 0
M  V30 14 C -1.474166 -0.433644 0.486072 0
M  V30 15 C -1.723647 -1.827476 0.780270 0
M  V30 16 N -1.012647 -2.297086 1.849416 0
M  V30 17 N -1.251083 -3.589848 2.031018 0
M  V30 18 C -2.118690 -3.976188 1.083405 0
M  V30 19 N -2.392980 -2.894691 0.341319 0
M  V30 20 C -3.248892 -2.769175 -0.770669 0
M  V30 21 C -3.684934 -1.478814 -0.890067 0
M  V30 22 C -4.490675 -1.199148 -1.974113 0
M  V30 23 C -4.804752 -2.222720 -2.856805 0
M  V30 24 N -4.368359 -3.512223 -2.729061 0
M  V30 25 C -3.578715 -3.767244 -1.658587 0
M  V30 26 N -3.252557 -5.174771 -1.599927 0
M  V30 27 C -3.056334 -5.835921 -0.325153 0
M  V30 28 C -3.443789 -7.175971 -0.430056 0
M  V30 29 C -3.336616 -7.951186 0.705596 0
M  V30 30 C -2.867965 -7.428683 1.892853 0
M  V30 31 C -2.477777 -6.114558 2.030155 0
M  V30 32 C -2.584349 -5.344812 0.899903 0
M  V30 33 C -0.901071 -0.021763 -0.732026 0
M  V30 34 C -0.594437 1.271392 -1.097053 0
M  V30 35 C 1.755109 3.806567 -1.081099 0
M  V30 36 C 2.746153 2.746548 -0.718735 0
M  V30 37 C 3.632162 0.006662 2.330684 0
M  V30 38 C 4.180927 -1.060165 3.005985 0
M  V30 39 H 5.843707 -2.077572 3.761353 0
M  V30 40 H 7.406720 -0.366206 2.916665 0
M  V30 41 H 6.623325 1.548393 1.724188 0
M  V30 42 H 2.204104 1.868818 1.110820 0
M  V30 43 H 2.990898 4.715552 0.732168 0
M  V30 44 H 2.895877 4.025402 2.428702 0
M  V30 45 H 0.708199 4.859389 1.833975 0
M  V30 46 H 0.675537 3.025247 1.658558 0
M  V30 47 H -0.770556 3.789237 -1.577855 0
M  V30 48 H -1.353871 4.273216 0.019878 0
M  V30 49 H -1.690334 2.671298 1.815512 0
M  V30 50 H -2.184698 0.350582 2.342602 0
M  V30 51 H -3.561490 -0.628401 -0.274338 0
M  V30 52 H -4.920514 -0.221358 -2.215746 0
M  V30 53 H -5.430884 -2.045955 -3.719751 0
M  V30 54 H -3.174159 -5.720124 -2.477684 0
M  V30 55 H -3.799505 -7.519952 -1.390770 0
M  V30 56 H -3.629835 -8.990663 0.650900 0
M  V30 57 H -2.779247 -8.037577 2.802913 0
M  V30 58 H -2.099417 -5.607198 2.903779 0
M  V30 59 H -0.703037 -0.844600 -1.411192 0
M  V30 60 H -0.157643 1.448264 -2.062327 0
M  V30 61 H 2.299288 4.761813 -1.292494 0
M  V30 62 H 1.277367 3.515622 -2.042287 0
M  V30 63 H 2.430077 1.777510 -1.158686 0
M  V30 64 H 3.725519 2.995732 -1.177351 0
M  V30 65 H 2.599541 0.197274 2.119088 0
M  V30 66 H 3.443156 -1.771745 3.348670 0
M  V30 END ATOM
M  V30 BEGIN BOND
M  V30 1 2 1 2
M  V30 2 1 2 3
M  V30 3 2 3 4
M  V30 4 1 4 5
M  V30 5 1 5 6
M  V30 6 1 6 7
M  V30 7 1 7 8
M  V30 8 1 8 9
M  V30 9 1 9 10
M  V30 10 1 10 11
M  V30 11 2 11 12
M  V30 12 1 12 13
M  V30 13 2 13 14
M  V30 14 1 14 15
M  V30 15 2 15 16
M  V30 16 1 16 17
M  V30 17 2 17 18
M  V30 18 1 18 19
M  V30 19 1 19 20
M  V30 20 2 20 21
M  V30 21 1 21 22
M  V30 22 2 22 23
M  V30 23 1 23 24
M  V30 24 2 24 25
M  V30 25 1 25 26
M  V30 26 1 26 27
M  V30 27 2 27 28
M  V30 28 1 28 29
M  V30 29 2 29 30
M  V30 30 1 30 31
M  V30 31 2 31 32
M  V30 32 1 14 33
M  V30 33 2 33 34
M  V30 34 1 9 35
M  V30 35 1 35 36
M  V30 36 1 4 37
M  V30 37 2 37 38
M  V30 38 1 38 1
M  V30 39 1 36 6
M  V30 40 1 34 11
M  V30 41 1 19 15
M  V30 42 1 25 20
M  V30 43 1 32 27
M  V30 44 1 32 18
M  V30 45 1 1 39
M  V30 46 1 2 40
M  V30 47 1 3 41
M  V30 48 1 6 42
M  V30 49 1 7 43
M  V30 50 1 7 44
M  V30 51 1 8 45
M  V30 52 1 8 46
M  V30 53 1 10 47
M  V30 54 1 10 48
M  V30 55 1 12 49
M  V30 56 1 13 50
M  V30 57 1 21 51
M  V30 58 1 22 52
M  V30 59 1 23 53
M  V30 60 1 26 54
M  V30 61 1 28 55
M  V30 62 1 29 56
M  V30 63 1 30 57
M  V30 64 1 31 58
M  V30 65 1 33 59
M  V30 66 1 34 60
M  V30 67 1 35 61
M  V30 68 1 35 62
M  V30 69 1 36 63
M  V30 70 1 36 64
M  V30 71 1 37 65
M  V30 72 1 38 66
M  V30 END BOND
M  V30 END CTAB
M  END
>  <Dataset>  (59) 
ChEMBL_Kinases

>  <Ligand_Instance>  (59) 
nan

>  <PDB_ID>  (59) 
nan

>  <Standardized_SMILES>  (59) 
c1ccc(OC2CCN(Cc3ccc(-c4nnc5n4-c4cccnc4Nc4ccccc4-5)cc3)CC2)cc1

>  <Name>  (59) 
nan

>  <Pocket>  (59) 
nan

>  <ATP_Site>  (59) 
nan

>  <Peripheral>  (59) 
nan

>  <Num_H_Atoms_ProtBoundConf>  (59) 
nan

>  <Num_Resolved_Atoms>  (59) 
nan

>  <Num_Not_Resolved_Atoms>  (59) 
nan

$$$$
CHEMBL3684496
     RDKit          3D

  0  0  0  0  0  0  0  0  0  0999 V3000
M  V30 BEGIN CTAB
M  V30 COUNTS 69 76 0 0 0
M  V30 BEGIN ATOM
M  V30 1 C 3.158294 4.818231 5.881878 0
M  V30 2 C 1.792079 4.620196 5.864630 0
M  V30 3 C 1.155503 3.906303 4.871207 0
M  V30 4 C 1.974017 3.400923 3.892297 0
M  V30 5 C 3.363361 3.580791 3.873323 0
M  V30 6 C 3.974985 4.308053 4.894653 0
M  V30 7 N 4.364204 3.139898 2.920225 0
M  V30 8 C 4.022946 2.977299 1.522984 0
M  V30 9 N 5.086675 3.259864 0.744620 0
M  V30 10 C 4.886073 3.214286 -0.606959 0
M  V30 11 C 3.662275 2.898343 -1.211649 0
M  V30 12 C 2.592466 2.613709 -0.388258 0
M  V30 13 C 2.806149 2.658507 0.962655 0
M  V30 14 N 1.637051 2.288500 1.655667 0
M  V30 15 C 0.740652 1.501642 1.060839 0
M  V30 16 C 0.503811 0.752936 -0.152721 0
M  V30 17 C 1.361471 -0.275530 -0.567771 0
M  V30 18 C 1.191844 -1.056503 -1.689657 0
M  V30 19 C 0.082460 -0.799380 -2.465361 0
M  V30 20 C -0.271971 -1.535983 -3.701176 0
M  V30 21 N -1.132723 -2.670980 -3.443041 0
M  V30 22 C -2.356940 -2.313459 -2.809909 0
M  V30 23 C -3.252176 -3.498434 -2.679863 0
M  V30 24 C -2.548283 -4.575048 -1.892483 0
M  V30 25 C -3.281093 -4.970199 -0.679561 0
M  V30 26 C -4.042505 -6.139997 -0.512602 0
M  V30 27 N -4.576490 -6.228019 0.712670 0
M  V30 28 C -4.206815 -5.144543 1.410570 0
M  V30 29 C -4.473834 -4.730233 2.702065 0
M  V30 30 C -3.964506 -3.541626 3.186369 0
M  V30 31 C -3.182229 -2.781255 2.343131 0
M  V30 32 C -2.934776 -3.222265 1.061810 0
M  V30 33 C -3.431110 -4.405124 0.555042 0
M  V30 34 C -1.093691 -4.349688 -1.680799 0
M  V30 35 C -0.479395 -3.839971 -2.974778 0
M  V30 36 C -0.813696 0.194234 -2.130989 0
M  V30 37 C -0.602627 0.950237 -0.998820 0
M  V30 38 N -0.250151 1.346707 1.985015 0
M  V30 39 N 0.066206 2.029438 3.100158 0
M  V30 40 C 1.251787 2.619666 2.896168 0
M  V30 41 H 3.612585 5.385372 6.683099 0
M  V30 42 H 1.137647 5.023352 6.645769 0
M  V30 43 H 0.103203 3.694664 4.765256 0
M  V30 44 H 5.048347 4.422660 4.847901 0
M  V30 45 H 5.316222 2.959429 3.233851 0
M  V30 46 H 5.758568 3.443630 -1.183120 0
M  V30 47 H 3.672252 2.907808 -2.294424 0
M  V30 48 H 1.720698 2.439373 -0.961685 0
M  V30 49 H 2.231430 -0.455751 0.067293 0
M  V30 50 H 1.863977 -1.829510 -1.977281 0
M  V30 51 H 0.652432 -1.928821 -4.190258 0
M  V30 52 H -0.766358 -0.889200 -4.429740 0
M  V30 53 H -2.857518 -1.556956 -3.456144 0
M  V30 54 H -2.194721 -1.840107 -1.806871 0
M  V30 55 H -4.215446 -3.193530 -2.178297 0
M  V30 56 H -3.569551 -3.824511 -3.689809 0
M  V30 57 H -2.590508 -5.481748 -2.596082 0
M  V30 58 H -4.217033 -6.928980 -1.262104 0
M  V30 59 H -5.177102 -6.995679 1.079794 0
M  V30 60 H -5.086256 -5.319382 3.370817 0
M  V30 61 H -4.124323 -3.139688 4.189805 0
M  V30 62 H -2.755209 -1.825744 2.687013 0
M  V30 63 H -2.334672 -2.598496 0.450163 0
M  V30 64 H -0.782089 -3.702200 -0.877062 0
M  V30 65 H -0.641793 -5.359943 -1.479566 0
M  V30 66 H 0.594470 -3.697959 -2.749435 0
M  V30 67 H -0.592765 -4.691497 -3.694280 0
M  V30 68 H -1.692846 0.431521 -2.705282 0
M  V30 69 H -1.284100 1.744589 -0.696575 0
M  V30 END ATOM
M  V30 BEGIN BOND
M  V30 1 2 1 2
M  V30 2 1 2 3
M  V30 3 2 3 4
M  V30 4 1 4 5
M  V30 5 2 5 6
M  V30 6 1 5 7
M  V30 7 1 7 8
M  V30 8 2 8 9
M  V30 9 1 9 10
M  V30 10 2 10 11
M  V30 11 1 11 12
M  V30 12 2 12 13
M  V30 13 1 13 14
M  V30 14 1 14 15
M  V30 15 1 15 16
M  V30 16 2 16 17
M  V30 17 1 17 18
M  V30 18 2 18 19
M  V30 19 1 19 20
M  V30 20 1 20 21
M  V30 21 1 21 22
M  V30 22 1 22 23
M  V30 23 1 23 24
M  V30 24 1 24 25
M  V30 25 2 25 26
M  V30 26 1 26 27
M  V30 27 1 27 28
M  V30 28 2 28 29
M  V30 29 1 29 30
M  V30 30 2 30 31
M  V30 31 1 31 32
M  V30 32 2 32 33
M  V30 33 1 24 34
M  V30 34 1 34 35
M  V30 35 1 19 36
M  V30 36 2 36 37
M  V30 37 2 15 38
M  V30 38 1 38 39
M  V30 39 2 39 40
M  V30 40 1 6 1
M  V30 41 1 13 8
M  V30 42 1 40 14
M  V30 43 1 40 4
M  V30 44 1 37 16
M  V30 45 1 35 21
M  V30 46 1 33 25
M  V30 47 1 33 28
M  V30 48 1 1 41
M  V30 49 1 2 42
M  V30 50 1 3 43
M  V30 51 1 6 44
M  V30 52 1 7 45
M  V30 53 1 10 46
M  V30 54 1 11 47
M  V30 55 1 12 48
M  V30 56 1 17 49
M  V30 57 1 18 50
M  V30 58 1 20 51
M  V30 59 1 20 52
M  V30 60 1 22 53
M  V30 61 1 22 54
M  V30 62 1 23 55
M  V30 63 1 23 56
M  V30 64 1 24 57
M  V30 65 1 26 58
M  V30 66 1 27 59
M  V30 67 1 29 60
M  V30 68 1 30 61
M  V30 69 1 31 62
M  V30 70 1 32 63
M  V30 71 1 34 64
M  V30 72 1 34 65
M  V30 73 1 35 66
M  V30 74 1 35 67
M  V30 75 1 36 68
M  V30 76 1 37 69
M  V30 END BOND
M  V30 END CTAB
M  END
>  <Dataset>  (60) 
ChEMBL_Kinases

>  <Ligand_Instance>  (60) 
nan

>  <PDB_ID>  (60) 
nan

>  <Standardized_SMILES>  (60) 
c1ccc2c(c1)Nc1ncccc1-n1c(-c3ccc(CN4CCC(c5c[nH]c6ccccc56)CC4)cc3)nnc1-2

>  <Name>  (60) 
nan

>  <Pocket>  (60) 
nan

>  <ATP_Site>  (60) 
nan

>  <Peripheral>  (60) 
nan

>  <Num_H_Atoms_ProtBoundConf>  (60) 
nan

>  <Num_Resolved_Atoms>  (60) 
nan

>  <Num_Not_Resolved_Atoms>  (60) 
nan

$$$$
CHEMBL3684495
     RDKit          3D

  0  0  0  0  0  0  0  0  0  0999 V3000
M  V30 BEGIN CTAB
M  V30 COUNTS 60 66 0 0 0
M  V30 BEGIN ATOM
M  V30 1 C 5.147264 -2.275431 2.811409 0
M  V30 2 C 5.821089 -1.066039 2.897576 0
M  V30 3 C 5.396648 0.044838 2.192688 0
M  V30 4 C 4.271430 -0.076627 1.389363 0
M  V30 5 N 3.895203 1.093060 0.700701 0
M  V30 6 C 3.319728 2.110839 1.334243 0
M  V30 7 C 3.015290 3.182215 0.505458 0
M  V30 8 C 2.405965 4.523285 0.555665 0
M  V30 9 O 1.134682 4.688542 0.220548 0
M  V30 10 C 0.053297 4.182199 0.810254 0
M  V30 11 C -0.103014 2.715099 0.846595 0
M  V30 12 C -0.643394 2.284394 -0.372420 0
M  V30 13 C -0.936211 0.960170 -0.619343 0
M  V30 14 C -0.689498 -0.002342 0.376790 0
M  V30 15 C -0.946021 -1.409420 0.158486 0
M  V30 16 N 0.165337 -2.203724 0.236906 0
M  V30 17 N -0.148248 -3.464419 -0.025709 0
M  V30 18 C -1.450370 -3.514468 -0.276533 0
M  V30 19 N -1.920869 -2.263573 -0.157933 0
M  V30 20 C -3.237120 -1.788862 -0.317142 0
M  V30 21 C -3.421870 -0.643269 0.406721 0
M  V30 22 C -4.650878 -0.023769 0.309797 0
M  V30 23 C -5.621074 -0.604895 -0.514268 0
M  V30 24 N -5.436574 -1.753665 -1.235190 0
M  V30 25 C -4.208717 -2.344316 -1.118361 0
M  V30 26 N -4.174273 -3.584012 -1.864665 0
M  V30 27 C -3.364253 -4.695048 -1.401484 0
M  V30 28 C -3.982589 -5.890608 -1.790445 0
M  V30 29 C -3.351751 -7.061558 -1.415471 0
M  V30 30 C -2.166310 -7.042532 -0.690632 0
M  V30 31 C -1.550766 -5.876458 -0.304467 0
M  V30 32 C -2.170816 -4.716627 -0.673603 0
M  V30 33 C -0.147014 0.434841 1.598381 0
M  V30 34 C 0.133195 1.762870 1.811617 0
M  V30 35 N 3.461473 2.719853 -0.699057 0
M  V30 36 N 3.956953 1.516510 -0.530451 0
M  V30 37 C 3.609804 -1.302984 1.318267 0
M  V30 38 C 4.032002 -2.412427 2.020995 0
M  V30 39 H 5.443368 -3.177610 3.347337 0
M  V30 40 H 6.667266 -1.120127 3.551904 0
M  V30 41 H 5.999721 0.931134 2.338120 0
M  V30 42 H 3.039749 2.263068 2.391192 0
M  V30 43 H 3.110570 5.201038 -0.034901 0
M  V30 44 H 2.632536 4.906726 1.621938 0
M  V30 45 H 0.062136 4.510454 1.898735 0
M  V30 46 H -0.909768 4.669226 0.452015 0
M  V30 47 H -0.900738 2.886453 -1.259062 0
M  V30 48 H -1.350504 0.548196 -1.523233 0
M  V30 49 H -2.799647 -0.134054 1.094213 0
M  V30 50 H -4.973609 0.887291 0.807300 0
M  V30 51 H -6.597904 -0.153978 -0.622777 0
M  V30 52 H -4.747346 -3.671363 -2.722464 0
M  V30 53 H -4.898881 -5.831273 -2.353105 0
M  V30 54 H -3.800769 -8.003975 -1.698530 0
M  V30 55 H -1.667975 -7.967344 -0.393845 0
M  V30 56 H -0.643822 -5.752914 0.250469 0
M  V30 57 H 0.071533 -0.240323 2.412910 0
M  V30 58 H 0.545919 2.222480 2.693300 0
M  V30 59 H 2.761430 -1.242502 0.659787 0
M  V30 60 H 3.415679 -3.277209 1.858281 0
M  V30 END ATOM
M  V30 BEGIN BOND
M  V30 1 2 1 2
M  V30 2 1 2 3
M  V30 3 2 3 4
M  V30 4 1 4 5
M  V30 5 1 5 6
M  V30 6 2 6 7
M  V30 7 1 7 8
M  V30 8 1 8 9
M  V30 9 1 9 10
M  V30 10 1 10 11
M  V30 11 2 11 12
M  V30 12 1 12 13
M  V30 13 2 13 14
M  V30 14 1 14 15
M  V30 15 2 15 16
M  V30 16 1 16 17
M  V30 17 2 17 18
M  V30 18 1 18 19
M  V30 19 1 19 20
M  V30 20 2 20 21
M  V30 21 1 21 22
M  V30 22 2 22 23
M  V30 23 1 23 24
M  V30 24 2 24 25
M  V30 25 1 25 26
M  V30 26 1 26 27
M  V30 27 2 27 28
M  V30 28 1 28 29
M  V30 29 2 29 30
M  V30 30 1 30 31
M  V30 31 2 31 32
M  V30 32 1 14 33
M  V30 33 2 33 34
M  V30 34 1 7 35
M  V30 35 2 35 36
M  V30 36 1 4 37
M  V30 37 2 37 38
M  V30 38 1 38 1
M  V30 39 1 36 5
M  V30 40 1 34 11
M  V30 41 1 19 15
M  V30 42 1 25 20
M  V30 43 1 32 27
M  V30 44 1 32 18
M  V30 45 1 1 39
M  V30 46 1 2 40
M  V30 47 1 3 41
M  V30 48 1 6 42
M  V30 49 1 8 43
M  V30 50 1 8 44
M  V30 51 1 10 45
M  V30 52 1 10 46
M  V30 53 1 12 47
M  V30 54 1 13 48
M  V30 55 1 21 49
M  V30 56 1 22 50
M  V30 57 1 23 51
M  V30 58 1 26 52
M  V30 59 1 28 53
M  V30 60 1 29 54
M  V30 61 1 30 55
M  V30 62 1 31 56
M  V30 63 1 33 57
M  V30 64 1 34 58
M  V30 65 1 37 59
M  V30 66 1 38 60
M  V30 END BOND
M  V30 END CTAB
M  END
>  <Dataset>  (61) 
ChEMBL_Kinases

>  <Ligand_Instance>  (61) 
nan

>  <PDB_ID>  (61) 
nan

>  <Standardized_SMILES>  (61) 
c1ccc(-n2cc(COCc3ccc(-c4nnc5n4-c4cccnc4Nc4ccccc4-5)cc3)nn2)cc1

>  <Name>  (61) 
nan

>  <Pocket>  (61) 
nan

>  <ATP_Site>  (61) 
nan

>  <Peripheral>  (61) 
nan

>  <Num_H_Atoms_ProtBoundConf>  (61) 
nan

>  <Num_Resolved_Atoms>  (61) 
nan

>  <Num_Not_Resolved_Atoms>  (61) 
nan

$$$$
CHEMBL3684494
     RDKit          3D

  0  0  0  0  0  0  0  0  0  0999 V3000
M  V30 BEGIN CTAB
M  V30 COUNTS 53 58 0 0 0
M  V30 BEGIN ATOM
M  V30 1 C 7.580866 -2.292383 -1.251920 0
M  V30 2 C 7.119700 -1.400665 -0.146542 0
M  V30 3 C 6.481004 -0.190650 -0.278542 0
M  V30 4 C 6.265263 0.238403 1.030347 0
M  V30 5 C 5.596485 1.513698 1.444511 0
M  V30 6 O 4.215168 1.332579 1.592802 0
M  V30 7 C 3.611399 0.912344 0.403252 0
M  V30 8 C 2.155213 0.747132 0.654124 0
M  V30 9 C 1.322428 1.825936 0.452003 0
M  V30 10 C -0.028159 1.677941 0.683227 0
M  V30 11 C -0.590686 0.464000 1.118969 0
M  V30 12 C -1.996317 0.275455 1.404814 0
M  V30 13 N -2.454873 1.080564 2.410369 0
M  V30 14 N -3.748187 0.809933 2.646294 0
M  V30 15 C -4.124337 -0.150742 1.812802 0
M  V30 16 N -3.055526 -0.461539 1.065926 0
M  V30 17 C -2.930550 -1.412709 0.033238 0
M  V30 18 C -1.925928 -1.058113 -0.825301 0
M  V30 19 C -1.647425 -1.925872 -1.862313 0
M  V30 20 C -2.415798 -3.094553 -1.952414 0
M  V30 21 N -3.426175 -3.466777 -1.108925 0
M  V30 22 C -3.661578 -2.573727 -0.100429 0
M  V30 23 N -4.793928 -3.019487 0.684535 0
M  V30 24 C -5.686691 -2.061339 1.309366 0
M  V30 25 C -6.976812 -2.595941 1.374854 0
M  V30 26 C -7.954895 -1.797862 1.930528 0
M  V30 27 C -7.682407 -0.530168 2.402359 0
M  V30 28 C -6.419799 0.022185 2.351255 0
M  V30 29 C -5.444822 -0.770041 1.799369 0
M  V30 30 C 0.349476 -0.568512 1.292564 0
M  V30 31 C 1.708302 -0.485483 1.079347 0
M  V30 32 N 6.768394 -0.704097 1.845535 0
M  V30 33 O 7.267317 -1.661616 1.129450 0
M  V30 34 H 8.420777 -2.939070 -0.944941 0
M  V30 35 H 7.981552 -1.697872 -2.116287 0
M  V30 36 H 6.710665 -2.890710 -1.614889 0
M  V30 37 H 6.206114 0.317166 -1.198081 0
M  V30 38 H 5.971175 1.757467 2.459002 0
M  V30 39 H 5.833626 2.305527 0.718373 0
M  V30 40 H 3.798192 1.663320 -0.395641 0
M  V30 41 H 4.040274 -0.073707 0.137556 0
M  V30 42 H 1.711940 2.771418 0.119356 0
M  V30 43 H -0.743698 2.485435 0.544770 0
M  V30 44 H -1.319995 -0.194015 -0.884488 0
M  V30 45 H -0.892333 -1.801892 -2.622394 0
M  V30 46 H -2.237210 -3.809806 -2.745399 0
M  V30 47 H -4.983269 -4.033040 0.791932 0
M  V30 48 H -7.121994 -3.592263 0.991115 0
M  V30 49 H -8.959762 -2.193014 1.990413 0
M  V30 50 H -8.454118 0.106251 2.843101 0
M  V30 51 H -6.095834 0.995061 2.688120 0
M  V30 52 H -0.073003 -1.510245 1.628696 0
M  V30 53 H 2.316845 -1.357886 1.251835 0
M  V30 END ATOM
M  V30 BEGIN BOND
M  V30 1 1 1 2
M  V30 2 2 2 3
M  V30 3 1 3 4
M  V30 4 1 4 5
M  V30 5 1 5 6
M  V30 6 1 6 7
M  V30 7 1 7 8
M  V30 8 2 8 9
M  V30 9 1 9 10
M  V30 10 2 10 11
M  V30 11 1 11 12
M  V30 12 2 12 13
M  V30 13 1 13 14
M  V30 14 2 14 15
M  V30 15 1 15 16
M  V30 16 1 16 17
M  V30 17 2 17 18
M  V30 18 1 18 19
M  V30 19 2 19 20
M  V30 20 1 20 21
M  V30 21 2 21 22
M  V30 22 1 22 23
M  V30 23 1 23 24
M  V30 24 2 24 25
M  V30 25 1 25 26
M  V30 26 2 26 27
M  V30 27 1 27 28
M  V30 28 2 28 29
M  V30 29 1 11 30
M  V30 30 2 30 31
M  V30 31 2 4 32
M  V30 32 1 32 33
M  V30 33 1 33 2
M  V30 34 1 31 8
M  V30 35 1 16 12
M  V30 36 1 22 17
M  V30 37 1 29 24
M  V30 38 1 29 15
M  V30 39 1 1 34
M  V30 40 1 1 35
M  V30 41 1 1 36
M  V30 42 1 3 37
M  V30 43 1 5 38
M  V30 44 1 5 39
M  V30 45 1 7 40
M  V30 46 1 7 41
M  V30 47 1 9 42
M  V30 48 1 10 43
M  V30 49 1 18 44
M  V30 50 1 19 45
M  V30 51 1 20 46
M  V30 52 1 23 47
M  V30 53 1 25 48
M  V30 54 1 26 49
M  V30 55 1 27 50
M  V30 56 1 28 51
M  V30 57 1 30 52
M  V30 58 1 31 53
M  V30 END BOND
M  V30 END CTAB
M  END
>  <Dataset>  (62) 
ChEMBL_Kinases

>  <Ligand_Instance>  (62) 
nan

>  <PDB_ID>  (62) 
nan

>  <Standardized_SMILES>  (62) 
Cc1cc(COCc2ccc(-c3nnc4n3-c3cccnc3Nc3ccccc3-4)cc2)no1

>  <Name>  (62) 
nan

>  <Pocket>  (62) 
nan

>  <ATP_Site>  (62) 
nan

>  <Peripheral>  (62) 
nan

>  <Num_H_Atoms_ProtBoundConf>  (62) 
nan

>  <Num_Resolved_Atoms>  (62) 
nan

>  <Num_Not_Resolved_Atoms>  (62) 
nan

$$$$
CHEMBL3684493
     RDKit          3D

  0  0  0  0  0  0  0  0  0  0999 V3000
M  V30 BEGIN CTAB
M  V30 COUNTS 78 84 0 0 0
M  V30 BEGIN ATOM
M  V30 1 C 5.783410 -6.938831 1.612705 0
M  V30 2 O 6.411373 -5.982641 0.801007 0
M  V30 3 C 5.658957 -4.908140 0.323978 0
M  V30 4 C 6.246581 -3.954468 -0.473823 0
M  V30 5 C 5.548529 -2.874501 -0.970783 0
M  V30 6 C 4.209026 -2.765902 -0.642271 0
M  V30 7 N 3.310923 -1.730822 -1.050992 0
M  V30 8 C 2.621291 -1.984476 -2.269398 0
M  V30 9 O 2.852500 -3.077800 -2.876521 0
M  V30 10 N 1.690983 -1.062250 -2.823073 0
M  V30 11 C 0.956598 -1.268912 -4.065213 0
M  V30 12 C -0.521394 -1.327250 -3.848067 0
M  V30 13 C -1.173551 -0.377337 -4.844211 0
M  V30 14 N -0.635398 0.916627 -4.638785 0
M  V30 15 C -1.394504 1.907268 -4.008643 0
M  V30 16 C -1.781378 1.487651 -2.637961 0
M  V30 17 C -2.986511 0.850713 -2.392324 0
M  V30 18 C -3.342696 0.455654 -1.120782 0
M  V30 19 C -2.493191 0.685868 -0.023658 0
M  V30 20 C -2.760039 0.282364 1.337138 0
M  V30 21 N -2.876312 -1.071228 1.478506 0
M  V30 22 N -3.071949 -1.371845 2.769926 0
M  V30 23 C -3.082474 -0.223607 3.460427 0
M  V30 24 N -2.895238 0.764580 2.572278 0
M  V30 25 C -2.831138 2.156614 2.793732 0
M  V30 26 C -3.190667 2.823761 1.654509 0
M  V30 27 C -3.126099 4.204425 1.690085 0
M  V30 28 C -2.702219 4.798430 2.885665 0
M  V30 29 N -2.347523 4.129232 4.023793 0
M  V30 30 C -2.426167 2.775907 3.943479 0
M  V30 31 N -2.101283 2.190717 5.227039 0
M  V30 32 C -2.727988 0.953095 5.652641 0
M  V30 33 C -2.845029 0.944455 7.047878 0
M  V30 34 C -3.439295 -0.161163 7.617193 0
M  V30 35 C -3.907326 -1.230652 6.844423 0
M  V30 36 C -3.797593 -1.234656 5.471567 0
M  V30 37 C -3.206530 -0.135732 4.910463 0
M  V30 38 C -1.296126 1.335531 -0.364790 0
M  V30 39 C -0.899767 1.747258 -1.618627 0
M  V30 40 C 0.735949 1.091227 -4.867819 0
M  V30 41 C 1.407191 -0.253035 -5.064456 0
M  V30 42 C 3.578617 -3.706330 0.159605 0
M  V30 43 C 2.154438 -3.673374 0.562956 0
M  V30 44 C 4.324295 -4.777320 0.636478 0
M  V30 45 H 4.897391 -7.387578 1.086874 0
M  V30 46 H 6.547532 -7.689886 1.876913 0
M  V30 47 H 5.370645 -6.518170 2.557040 0
M  V30 48 H 7.286793 -4.011435 -0.746806 0
M  V30 49 H 5.905518 -2.082610 -1.593970 0
M  V30 50 H 3.077923 -0.816691 -0.598890 0
M  V30 51 H 1.515118 -0.170506 -2.310334 0
M  V30 52 H 1.293118 -2.267802 -4.433932 0
M  V30 53 H -0.916693 -2.369626 -3.987309 0
M  V30 54 H -0.786982 -0.950090 -2.839866 0
M  V30 55 H -2.282290 -0.413622 -4.759311 0
M  V30 56 H -0.979338 -0.774608 -5.882153 0
M  V30 57 H -0.868693 2.880585 -3.891241 0
M  V30 58 H -2.363607 2.122468 -4.552467 0
M  V30 59 H -3.699183 0.637496 -3.166783 0
M  V30 60 H -4.270873 -0.048129 -0.856809 0
M  V30 61 H -3.565308 2.496255 0.721068 0
M  V30 62 H -3.369085 4.882285 0.888831 0
M  V30 63 H -2.628195 5.872814 2.978595 0
M  V30 64 H -1.432906 2.660875 5.853296 0
M  V30 65 H -2.466874 1.788608 7.580989 0
M  V30 66 H -3.545847 -0.199438 8.697712 0
M  V30 67 H -4.376722 -2.103357 7.293630 0
M  V30 68 H -4.118311 -1.994218 4.785041 0
M  V30 69 H -0.620713 1.522893 0.484857 0
M  V30 70 H 0.061382 2.236145 -1.702637 0
M  V30 71 H 0.958541 1.686251 -5.801587 0
M  V30 72 H 1.287264 1.589050 -4.017013 0
M  V30 73 H 2.506093 -0.101369 -4.889971 0
M  V30 74 H 1.325258 -0.602150 -6.108383 0
M  V30 75 H 2.015465 -4.165150 1.534452 0
M  V30 76 H 1.478794 -4.114981 -0.226165 0
M  V30 77 H 1.795415 -2.619230 0.707863 0
M  V30 78 H 3.872949 -5.534647 1.265108 0
M  V30 END ATOM
M  V30 BEGIN BOND
M  V30 1 1 1 2
M  V30 2 1 2 3
M  V30 3 2 3 4
M  V30 4 1 4 5
M  V30 5 2 5 6
M  V30 6 1 6 7
M  V30 7 1 7 8
M  V30 8 2 8 9
M  V30 9 1 8 10
M  V30 10 1 10 11
M  V30 11 1 11 12
M  V30 12 1 12 13
M  V30 13 1 13 14
M  V30 14 1 14 15
M  V30 15 1 15 16
M  V30 16 2 16 17
M  V30 17 1 17 18
M  V30 18 2 18 19
M  V30 19 1 19 20
M  V30 20 2 20 21
M  V30 21 1 21 22
M  V30 22 2 22 23
M  V30 23 1 23 24
M  V30 24 1 24 25
M  V30 25 2 25 26
M  V30 26 1 26 27
M  V30 27 2 27 28
M  V30 28 1 28 29
M  V30 29 2 29 30
M  V30 30 1 30 31
M  V30 31 1 31 32
M  V30 32 2 32 33
M  V30 33 1 33 34
M  V30 34 2 34 35
M  V30 35 1 35 36
M  V30 36 2 36 37
M  V30 37 1 19 38
M  V30 38 2 38 39
M  V30 39 1 14 40
M  V30 40 1 40 41
M  V30 41 1 6 42
M  V30 42 1 42 43
M  V30 43 2 42 44
M  V30 44 1 44 3
M  V30 45 1 41 11
M  V30 46 1 39 16
M  V30 47 1 24 20
M  V30 48 1 30 25
M  V30 49 1 37 32
M  V30 50 1 37 23
M  V30 51 1 1 45
M  V30 52 1 1 46
M  V30 53 1 1 47
M  V30 54 1 4 48
M  V30 55 1 5 49
M  V30 56 1 7 50
M  V30 57 1 10 51
M  V30 58 1 11 52
M  V30 59 1 12 53
M  V30 60 1 12 54
M  V30 61 1 13 55
M  V30 62 1 13 56
M  V30 63 1 15 57
M  V30 64 1 15 58
M  V30 65 1 17 59
M  V30 66 1 18 60
M  V30 67 1 26 61
M  V30 68 1 27 62
M  V30 69 1 28 63
M  V30 70 1 31 64
M  V30 71 1 33 65
M  V30 72 1 34 66
M  V30 73 1 35 67
M  V30 74 1 36 68
M  V30 75 1 38 69
M  V30 76 1 39 70
M  V30 77 1 40 71
M  V30 78 1 40 72
M  V30 79 1 41 73
M  V30 80 1 41 74
M  V30 81 1 43 75
M  V30 82 1 43 76
M  V30 83 1 43 77
M  V30 84 1 44 78
M  V30 END BOND
M  V30 END CTAB
M  END
>  <Dataset>  (63) 
ChEMBL_Kinases

>  <Ligand_Instance>  (63) 
nan

>  <PDB_ID>  (63) 
nan

>  <Standardized_SMILES>  (63) 
COc1ccc(NC(=O)NC2CCN(Cc3ccc(-c4nnc5n4-c4cccnc4Nc4ccccc4-5)cc3)CC2)c(C)c1

>  <Name>  (63) 
nan

>  <Pocket>  (63) 
nan

>  <ATP_Site>  (63) 
nan

>  <Peripheral>  (63) 
nan

>  <Num_H_Atoms_ProtBoundConf>  (63) 
nan

>  <Num_Resolved_Atoms>  (63) 
nan

>  <Num_Not_Resolved_Atoms>  (63) 
nan

$$$$
CHEMBL3684492
     RDKit          3D

  0  0  0  0  0  0  0  0  0  0999 V3000
M  V30 BEGIN CTAB
M  V30 COUNTS 75 81 0 0 0
M  V30 BEGIN ATOM
M  V30 1 C 2.376575 -2.945545 2.999380 0
M  V30 2 O 2.598960 -2.437150 1.698236 0
M  V30 3 C 3.819385 -1.890073 1.327113 0
M  V30 4 C 4.827219 -1.849183 2.260215 0
M  V30 5 C 6.080988 -1.317012 1.970216 0
M  V30 6 C 6.262073 -0.831873 0.697869 0
M  V30 7 C 5.226086 -0.892784 -0.204630 0
M  V30 8 C 3.980886 -1.410430 0.050244 0
M  V30 9 N 2.888922 -1.495220 -0.840855 0
M  V30 10 C 2.814410 -1.069273 -2.187711 0
M  V30 11 O 3.799860 -0.538666 -2.729361 0
M  V30 12 N 1.662658 -1.203945 -3.001888 0
M  V30 13 C 1.638377 -0.758014 -4.359885 0
M  V30 14 C 0.616992 0.334690 -4.567459 0
M  V30 15 C -0.807318 -0.209196 -4.557468 0
M  V30 16 N -0.737762 -1.610793 -4.369955 0
M  V30 17 C -1.913293 -2.275530 -3.919909 0
M  V30 18 C -2.331634 -1.721312 -2.612600 0
M  V30 19 C -3.231610 -0.700166 -2.486065 0
M  V30 20 C -3.583478 -0.222492 -1.242701 0
M  V30 21 C -3.043164 -0.752198 -0.054027 0
M  V30 22 C -3.393148 -0.328348 1.283799 0
M  V30 23 N -4.696618 -0.541690 1.583213 0
M  V30 24 N -4.941443 -0.173775 2.854246 0
M  V30 25 C -3.781237 0.277065 3.366049 0
M  V30 26 N -2.860834 0.176360 2.395738 0
M  V30 27 C -1.493367 0.520433 2.431211 0
M  V30 28 C -1.047501 0.793486 1.170274 0
M  V30 29 C 0.306986 1.099252 1.017467 0
M  V30 30 C 1.083238 1.098775 2.185257 0
M  V30 31 N 0.617860 0.826343 3.443401 0
M  V30 32 C -0.702650 0.533291 3.554684 0
M  V30 33 N -1.060392 0.341373 4.940072 0
M  V30 34 C -2.385907 0.691038 5.402432 0
M  V30 35 C -2.328092 1.082427 6.745936 0
M  V30 36 C -3.504637 1.467105 7.347279 0
M  V30 37 C -4.719763 1.477127 6.671790 0
M  V30 38 C -4.802822 1.093773 5.343576 0
M  V30 39 C -3.627194 0.710844 4.749773 0
M  V30 40 C -2.121149 -1.801807 -0.239794 0
M  V30 41 C -1.781062 -2.265863 -1.472434 0
M  V30 42 C -0.035812 -2.310474 -5.420544 0
M  V30 43 C 1.402946 -1.860937 -5.367981 0
M  V30 44 H 2.723096 -2.256347 3.799245 0
M  V30 45 H 1.278388 -3.121616 3.143039 0
M  V30 46 H 2.866769 -3.939609 3.167623 0
M  V30 47 H 4.682831 -2.231051 3.259789 0
M  V30 48 H 6.840369 -1.306567 2.737033 0
M  V30 49 H 7.221611 -0.409152 0.427481 0
M  V30 50 H 5.440589 -0.496223 -1.178122 0
M  V30 51 H 1.992387 -1.918539 -0.521190 0
M  V30 52 H 0.817932 -1.645327 -2.576824 0
M  V30 53 H 2.619529 -0.314613 -4.631920 0
M  V30 54 H 0.816360 0.926562 -5.483729 0
M  V30 55 H 0.680885 1.066224 -3.727909 0
M  V30 56 H -1.290681 0.066551 -5.540597 0
M  V30 57 H -1.407785 0.278353 -3.792899 0
M  V30 58 H -1.833603 -3.362078 -3.875443 0
M  V30 59 H -2.733388 -2.042596 -4.662320 0
M  V30 60 H -3.690140 -0.245890 -3.358915 0
M  V30 61 H -4.283879 0.579742 -1.045972 0
M  V30 62 H -1.540665 0.869147 0.239435 0
M  V30 63 H 0.814611 1.333860 0.101726 0
M  V30 64 H 2.137807 1.324605 2.143202 0
M  V30 65 H -0.365979 -0.030484 5.603654 0
M  V30 66 H -1.364869 1.055105 7.227613 0
M  V30 67 H -3.490676 1.774295 8.385041 0
M  V30 68 H -5.648762 1.777919 7.136553 0
M  V30 69 H -5.677592 1.058812 4.716015 0
M  V30 70 H -1.680695 -2.238902 0.653320 0
M  V30 71 H -1.060963 -3.081669 -1.559936 0
M  V30 72 H -0.441753 -2.120284 -6.416637 0
M  V30 73 H -0.103811 -3.400991 -5.141962 0
M  V30 74 H 1.661839 -1.432296 -6.355469 0
M  V30 75 H 2.103820 -2.707694 -5.224282 0
M  V30 END ATOM
M  V30 BEGIN BOND
M  V30 1 1 1 2
M  V30 2 1 2 3
M  V30 3 2 3 4
M  V30 4 1 4 5
M  V30 5 2 5 6
M  V30 6 1 6 7
M  V30 7 2 7 8
M  V30 8 1 8 9
M  V30 9 1 9 10
M  V30 10 2 10 11
M  V30 11 1 10 12
M  V30 12 1 12 13
M  V30 13 1 13 14
M  V30 14 1 14 15
M  V30 15 1 15 16
M  V30 16 1 16 17
M  V30 17 1 17 18
M  V30 18 2 18 19
M  V30 19 1 19 20
M  V30 20 2 20 21
M  V30 21 1 21 22
M  V30 22 2 22 23
M  V30 23 1 23 24
M  V30 24 2 24 25
M  V30 25 1 25 26
M  V30 26 1 26 27
M  V30 27 2 27 28
M  V30 28 1 28 29
M  V30 29 2 29 30
M  V30 30 1 30 31
M  V30 31 2 31 32
M  V30 32 1 32 33
M  V30 33 1 33 34
M  V30 34 2 34 35
M  V30 35 1 35 36
M  V30 36 2 36 37
M  V30 37 1 37 38
M  V30 38 2 38 39
M  V30 39 1 21 40
M  V30 40 2 40 41
M  V30 41 1 16 42
M  V30 42 1 42 43
M  V30 43 1 8 3
M  V30 44 1 43 13
M  V30 45 1 41 18
M  V30 46 1 26 22
M  V30 47 1 32 27
M  V30 48 1 39 34
M  V30 49 1 39 25
M  V30 50 1 1 44
M  V30 51 1 1 45
M  V30 52 1 1 46
M  V30 53 1 4 47
M  V30 54 1 5 48
M  V30 55 1 6 49
M  V30 56 1 7 50
M  V30 57 1 9 51
M  V30 58 1 12 52
M  V30 59 1 13 53
M  V30 60 1 14 54
M  V30 61 1 14 55
M  V30 62 1 15 56
M  V30 63 1 15 57
M  V30 64 1 17 58
M  V30 65 1 17 59
M  V30 66 1 19 60
M  V30 67 1 20 61
M  V30 68 1 28 62
M  V30 69 1 29 63
M  V30 70 1 30 64
M  V30 71 1 33 65
M  V30 72 1 35 66
M  V30 73 1 36 67
M  V30 74 1 37 68
M  V30 75 1 38 69
M  V30 76 1 40 70
M  V30 77 1 41 71
M  V30 78 1 42 72
M  V30 79 1 42 73
M  V30 80 1 43 74
M  V30 81 1 43 75
M  V30 END BOND
M  V30 END CTAB
M  END
>  <Dataset>  (64) 
ChEMBL_Kinases

>  <Ligand_Instance>  (64) 
nan

>  <PDB_ID>  (64) 
nan

>  <Standardized_SMILES>  (64) 
COc1ccccc1NC(=O)NC1CCN(Cc2ccc(-c3nnc4n3-c3cccnc3Nc3ccccc3-4)cc2)CC1

>  <Name>  (64) 
nan

>  <Pocket>  (64) 
nan

>  <ATP_Site>  (64) 
nan

>  <Peripheral>  (64) 
nan

>  <Num_H_Atoms_ProtBoundConf>  (64) 
nan

>  <Num_Resolved_Atoms>  (64) 
nan

>  <Num_Not_Resolved_Atoms>  (64) 
nan

$$$$
CHEMBL3684491
     RDKit          3D

  0  0  0  0  0  0  0  0  0  0999 V3000
M  V30 BEGIN CTAB
M  V30 COUNTS 74 80 0 0 0
M  V30 BEGIN ATOM
M  V30 1 O 4.429791 -3.059922 -2.517504 0
M  V30 2 C 3.653384 -2.238921 -1.951651 0
M  V30 3 N 3.798642 -1.848834 -0.586288 0
M  V30 4 C 4.860559 -2.377381 0.246500 0
M  V30 5 C 4.798906 -3.885917 0.382282 0
M  V30 6 C 3.539883 -4.316521 0.982527 0
M  V30 7 C 2.874599 -5.435199 1.363793 0
M  V30 8 C 1.644517 -5.383984 1.916922 0
M  V30 9 C 1.053143 -4.088353 2.091789 0
M  V30 10 S 2.420332 -2.972502 1.392942 0
M  V30 11 N 2.608568 -1.730452 -2.804479 0
M  V30 12 C 2.475230 -2.130863 -4.176446 0
M  V30 13 C 1.119438 -2.722536 -4.435906 0
M  V30 14 C 0.020264 -1.708470 -4.212704 0
M  V30 15 N 0.588864 -0.401183 -4.207886 0
M  V30 16 C -0.293640 0.673090 -3.892601 0
M  V30 17 C -0.866685 0.476932 -2.535534 0
M  V30 18 C -2.046590 -0.195191 -2.361299 0
M  V30 19 C -2.555646 -0.366161 -1.092152 0
M  V30 20 C -1.907461 0.126930 0.054852 0
M  V30 21 C -2.395365 -0.062461 1.403205 0
M  V30 22 N -2.491502 -1.376987 1.762357 0
M  V30 23 N -2.899868 -1.464070 3.039026 0
M  V30 24 C -3.066321 -0.214121 3.501469 0
M  V30 25 N -2.758699 0.615734 2.493636 0
M  V30 26 C -2.779757 2.025680 2.470000 0
M  V30 27 C -2.958521 2.468088 1.187894 0
M  V30 28 C -2.947149 3.834006 0.985741 0
M  V30 29 C -2.757540 4.663403 2.098641 0
M  V30 30 N -2.584260 4.203547 3.374838 0
M  V30 31 C -2.600568 2.848369 3.542358 0
M  V30 32 N -2.481814 2.525499 4.947479 0
M  V30 33 C -3.133242 1.343922 5.475588 0
M  V30 34 C -3.491474 1.561362 6.809184 0
M  V30 35 C -4.141246 0.534789 7.462136 0
M  V30 36 C -4.431244 -0.667119 6.829608 0
M  V30 37 C -4.088290 -0.907759 5.514907 0
M  V30 38 C -3.442177 0.117050 4.872432 0
M  V30 39 C -0.706797 0.799114 -0.240242 0
M  V30 40 C -0.162227 0.994412 -1.473972 0
M  V30 41 C 1.453497 -0.136647 -5.325627 0
M  V30 42 C 2.710408 -0.951452 -5.110763 0
M  V30 43 H 3.062993 -1.153665 -0.273547 0
M  V30 44 H 4.795040 -1.884868 1.235409 0
M  V30 45 H 5.846381 -2.084932 -0.162513 0
M  V30 46 H 5.662569 -4.165365 1.030532 0
M  V30 47 H 4.915857 -4.318294 -0.610984 0
M  V30 48 H 3.487750 -6.291914 1.147380 0
M  V30 49 H 1.155575 -6.304871 2.204275 0
M  V30 50 H 0.003703 -4.052548 2.564445 0
M  V30 51 H 1.948793 -1.054138 -2.378238 0
M  V30 52 H 3.267323 -2.875777 -4.468557 0
M  V30 53 H 0.939864 -3.549690 -3.702517 0
M  V30 54 H 1.054735 -3.181528 -5.444778 0
M  V30 55 H -0.503444 -1.878672 -3.251765 0
M  V30 56 H -0.741577 -1.850918 -5.015251 0
M  V30 57 H 0.282133 1.619903 -3.957004 0
M  V30 58 H -1.140466 0.779001 -4.601037 0
M  V30 59 H -2.587540 -0.595807 -3.210321 0
M  V30 60 H -3.492641 -0.896909 -0.922679 0
M  V30 61 H -3.156768 1.961433 0.280600 0
M  V30 62 H -3.069133 4.368580 0.052711 0
M  V30 63 H -2.737756 5.737105 1.997962 0
M  V30 64 H -1.950853 3.140278 5.574143 0
M  V30 65 H -3.234104 2.517466 7.241189 0
M  V30 66 H -4.426520 0.684113 8.494684 0
M  V30 67 H -4.943502 -1.476728 7.342908 0
M  V30 68 H -4.262050 -1.793559 4.931846 0
M  V30 69 H -0.210400 1.179086 0.659391 0
M  V30 70 H 0.773476 1.536016 -1.526408 0
M  V30 71 H 1.770403 0.930640 -5.250624 0
M  V30 72 H 1.014954 -0.366912 -6.306034 0
M  V30 73 H 3.539518 -0.344963 -4.675493 0
M  V30 74 H 3.109953 -1.315692 -6.085311 0
M  V30 END ATOM
M  V30 BEGIN BOND
M  V30 1 2 1 2
M  V30 2 1 2 3
M  V30 3 1 3 4
M  V30 4 1 4 5
M  V30 5 1 5 6
M  V30 6 2 6 7
M  V30 7 1 7 8
M  V30 8 2 8 9
M  V30 9 1 9 10
M  V30 10 1 2 11
M  V30 11 1 11 12
M  V30 12 1 12 13
M  V30 13 1 13 14
M  V30 14 1 14 15
M  V30 15 1 15 16
M  V30 16 1 16 17
M  V30 17 2 17 18
M  V30 18 1 18 19
M  V30 19 2 19 20
M  V30 20 1 20 21
M  V30 21 2 21 22
M  V30 22 1 22 23
M  V30 23 2 23 24
M  V30 24 1 24 25
M  V30 25 1 25 26
M  V30 26 2 26 27
M  V30 27 1 27 28
M  V30 28 2 28 29
M  V30 29 1 29 30
M  V30 30 2 30 31
M  V30 31 1 31 32
M  V30 32 1 32 33
M  V30 33 2 33 34
M  V30 34 1 34 35
M  V30 35 2 35 36
M  V30 36 1 36 37
M  V30 37 2 37 38
M  V30 38 1 20 39
M  V30 39 2 39 40
M  V30 40 1 15 41
M  V30 41 1 41 42
M  V30 42 1 10 6
M  V30 43 1 42 12
M  V30 44 1 40 17
M  V30 45 1 25 21
M  V30 46 1 31 26
M  V30 47 1 38 33
M  V30 48 1 38 24
M  V30 49 1 3 43
M  V30 50 1 4 44
M  V30 51 1 4 45
M  V30 52 1 5 46
M  V30 53 1 5 47
M  V30 54 1 7 48
M  V30 55 1 8 49
M  V30 56 1 9 50
M  V30 57 1 11 51
M  V30 58 1 12 52
M  V30 59 1 13 53
M  V30 60 1 13 54
M  V30 61 1 14 55
M  V30 62 1 14 56
M  V30 63 1 16 57
M  V30 64 1 16 58
M  V30 65 1 18 59
M  V30 66 1 19 60
M  V30 67 1 27 61
M  V30 68 1 28 62
M  V30 69 1 29 63
M  V30 70 1 32 64
M  V30 71 1 34 65
M  V30 72 1 35 66
M  V30 73 1 36 67
M  V30 74 1 37 68
M  V30 75 1 39 69
M  V30 76 1 40 70
M  V30 77 1 41 71
M  V30 78 1 41 72
M  V30 79 1 42 73
M  V30 80 1 42 74
M  V30 END BOND
M  V30 END CTAB
M  END
>  <Dataset>  (65) 
ChEMBL_Kinases

>  <Ligand_Instance>  (65) 
nan

>  <PDB_ID>  (65) 
nan

>  <Standardized_SMILES>  (65) 
O=C(NCCc1cccs1)NC1CCN(Cc2ccc(-c3nnc4n3-c3cccnc3Nc3ccccc3-4)cc2)CC1

>  <Name>  (65) 
nan

>  <Pocket>  (65) 
nan

>  <ATP_Site>  (65) 
nan

>  <Peripheral>  (65) 
nan

>  <Num_H_Atoms_ProtBoundConf>  (65) 
nan

>  <Num_Resolved_Atoms>  (65) 
nan

>  <Num_Not_Resolved_Atoms>  (65) 
nan

$$$$
CHEMBL3684473
     RDKit          3D

  0  0  0  0  0  0  0  0  0  0999 V3000
M  V30 BEGIN CTAB
M  V30 COUNTS 67 73 0 0 0
M  V30 BEGIN ATOM
M  V30 1 O 1.426547 3.415560 5.720270 0
M  V30 2 C 1.725869 2.273279 5.227603 0
M  V30 3 C 3.046615 1.779055 5.577805 0
M  V30 4 C 3.604828 0.610977 5.115750 0
M  V30 5 C 4.847607 0.114752 5.442344 0
M  V30 6 C 5.619753 0.849663 6.316418 0
M  V30 7 F 6.848436 0.434645 6.687983 0
M  V30 8 C 5.118314 2.030765 6.815706 0
M  V30 9 C 3.872465 2.459537 6.444447 0
M  V30 10 C 0.725344 1.604479 4.381871 0
M  V30 11 C 0.198948 0.395240 5.108613 0
M  V30 12 C -0.879307 -0.314023 4.313613 0
M  V30 13 N -1.911151 0.574376 3.876436 0
M  V30 14 C -2.829149 -0.080005 2.990071 0
M  V30 15 C -2.220444 -0.611318 1.750117 0
M  V30 16 C -2.169629 0.207751 0.641267 0
M  V30 17 C -1.594744 -0.330014 -0.489539 0
M  V30 18 C -1.065305 -1.629876 -0.594422 0
M  V30 19 C -0.442947 -2.131158 -1.797255 0
M  V30 20 N 0.871800 -2.447213 -1.627853 0
M  V30 21 N 1.388191 -2.854953 -2.797447 0
M  V30 22 C 0.418764 -2.804463 -3.718775 0
M  V30 23 N -0.679391 -2.366717 -3.086974 0
M  V30 24 C -1.969944 -2.145274 -3.607331 0
M  V30 25 C -2.909271 -2.246487 -2.618659 0
M  V30 26 C -4.222398 -1.999991 -2.962088 0
M  V30 27 C -4.503411 -1.666972 -4.293635 0
M  V30 28 N -3.555820 -1.573306 -5.272419 0
M  V30 29 C -2.273820 -1.819934 -4.911258 0
M  V30 30 N -1.399161 -1.759169 -6.062075 0
M  V30 31 C -0.219517 -2.600020 -6.128953 0
M  V30 32 C 0.044303 -2.903948 -7.469580 0
M  V30 33 C 1.130267 -3.715434 -7.721453 0
M  V30 34 C 1.917566 -4.202953 -6.698043 0
M  V30 35 C 1.677519 -3.916592 -5.370555 0
M  V30 36 C 0.593686 -3.107152 -5.132618 0
M  V30 37 C -1.168229 -2.379333 0.592420 0
M  V30 38 C -1.730904 -1.901111 1.755375 0
M  V30 39 C -1.435594 1.785288 3.289886 0
M  V30 40 C -0.460777 2.526836 4.182404 0
M  V30 41 H 3.060123 -0.007875 4.418980 0
M  V30 42 H 5.235132 -0.806430 5.051119 0
M  V30 43 H 5.736695 2.597828 7.501549 0
M  V30 44 H 3.559850 3.402766 6.888712 0
M  V30 45 H 1.170673 1.304894 3.401435 0
M  V30 46 H 0.961510 -0.340650 5.375114 0
M  V30 47 H -0.233943 0.796391 6.070071 0
M  V30 48 H -1.331638 -1.068059 4.990035 0
M  V30 49 H -0.347821 -0.767912 3.437273 0
M  V30 50 H -3.658286 0.604866 2.668696 0
M  V30 51 H -3.368527 -0.903628 3.546322 0
M  V30 52 H -2.538497 1.220197 0.584474 0
M  V30 53 H -1.534675 0.279588 -1.382784 0
M  V30 54 H -2.836974 -2.532187 -1.603445 0
M  V30 55 H -5.097776 -2.031199 -2.313699 0
M  V30 56 H -5.517343 -1.463106 -4.608976 0
M  V30 57 H -1.633537 -1.122797 -6.841298 0
M  V30 58 H -0.607771 -2.489050 -8.220306 0
M  V30 59 H 1.357454 -3.965021 -8.730436 0
M  V30 60 H 2.784936 -4.850678 -6.888120 0
M  V30 61 H 2.229069 -4.244942 -4.502745 0
M  V30 62 H -0.749857 -3.388362 0.488029 0
M  V30 63 H -1.773206 -2.533901 2.621053 0
M  V30 64 H -0.937050 1.645144 2.307128 0
M  V30 65 H -2.297633 2.460147 3.116625 0
M  V30 66 H -0.167220 3.445776 3.670311 0
M  V30 67 H -0.888834 2.703198 5.190192 0
M  V30 END ATOM
M  V30 BEGIN BOND
M  V30 1 2 1 2
M  V30 2 1 2 3
M  V30 3 2 3 4
M  V30 4 1 4 5
M  V30 5 2 5 6
M  V30 6 1 6 7
M  V30 7 1 6 8
M  V30 8 2 8 9
M  V30 9 1 2 10
M  V30 10 1 10 11
M  V30 11 1 11 12
M  V30 12 1 12 13
M  V30 13 1 13 14
M  V30 14 1 14 15
M  V30 15 2 15 16
M  V30 16 1 16 17
M  V30 17 2 17 18
M  V30 18 1 18 19
M  V30 19 2 19 20
M  V30 20 1 20 21
M  V30 21 2 21 22
M  V30 22 1 22 23
M  V30 23 1 23 24
M  V30 24 2 24 25
M  V30 25 1 25 26
M  V30 26 2 26 27
M  V30 27 1 27 28
M  V30 28 2 28 29
M  V30 29 1 29 30
M  V30 30 1 30 31
M  V30 31 2 31 32
M  V30 32 1 32 33
M  V30 33 2 33 34
M  V30 34 1 34 35
M  V30 35 2 35 36
M  V30 36 1 18 37
M  V30 37 2 37 38
M  V30 38 1 13 39
M  V30 39 1 39 40
M  V30 40 1 9 3
M  V30 41 1 40 10
M  V30 42 1 38 15
M  V30 43 1 23 19
M  V30 44 1 29 24
M  V30 45 1 36 31
M  V30 46 1 36 22
M  V30 47 1 4 41
M  V30 48 1 5 42
M  V30 49 1 8 43
M  V30 50 1 9 44
M  V30 51 1 10 45
M  V30 52 1 11 46
M  V30 53 1 11 47
M  V30 54 1 12 48
M  V30 55 1 12 49
M  V30 56 1 14 50
M  V30 57 1 14 51
M  V30 58 1 16 52
M  V30 59 1 17 53
M  V30 60 1 25 54
M  V30 61 1 26 55
M  V30 62 1 27 56
M  V30 63 1 30 57
M  V30 64 1 32 58
M  V30 65 1 33 59
M  V30 66 1 34 60
M  V30 67 1 35 61
M  V30 68 1 37 62
M  V30 69 1 38 63
M  V30 70 1 39 64
M  V30 71 1 39 65
M  V30 72 1 40 66
M  V30 73 1 40 67
M  V30 END BOND
M  V30 END CTAB
M  END
>  <Dataset>  (66) 
ChEMBL_Kinases

>  <Ligand_Instance>  (66) 
nan

>  <PDB_ID>  (66) 
nan

>  <Standardized_SMILES>  (66) 
O=C(c1ccc(F)cc1)C1CCN(Cc2ccc(-c3nnc4n3-c3cccnc3Nc3ccccc3-4)cc2)CC1

>  <Name>  (66) 
nan

>  <Pocket>  (66) 
nan

>  <ATP_Site>  (66) 
nan

>  <Peripheral>  (66) 
nan

>  <Num_H_Atoms_ProtBoundConf>  (66) 
nan

>  <Num_Resolved_Atoms>  (66) 
nan

>  <Num_Not_Resolved_Atoms>  (66) 
nan

$$$$
CHEMBL3684474
     RDKit          3D

  0  0  0  0  0  0  0  0  0  0999 V3000
M  V30 BEGIN CTAB
M  V30 COUNTS 71 77 0 0 0
M  V30 BEGIN ATOM
M  V30 1 O 2.278923 1.151296 -0.387774 0
M  V30 2 C 2.887022 1.898762 -1.158905 0
M  V30 3 N 3.477662 3.074193 -0.647824 0
M  V30 4 C 3.500920 3.584579 0.672660 0
M  V30 5 C 4.148326 4.768077 0.933137 0
M  V30 6 C 4.210233 5.317569 2.179828 0
M  V30 7 C 3.618719 4.708268 3.264310 0
M  V30 8 F 3.672160 5.242277 4.510010 0
M  V30 9 C 2.957209 3.520173 3.057805 0
M  V30 10 C 2.923580 3.007581 1.780681 0
M  V30 11 N 2.942645 1.507220 -2.519598 0
M  V30 12 C 2.321627 0.305533 -2.965757 0
M  V30 13 C 3.269282 -0.729945 -3.525341 0
M  V30 14 C 2.456497 -2.019606 -3.681170 0
M  V30 15 N 1.230481 -1.733622 -4.299922 0
M  V30 16 C 0.118599 -2.567463 -4.100819 0
M  V30 17 C -0.214624 -2.617521 -2.651824 0
M  V30 18 C -1.059854 -1.619243 -2.214420 0
M  V30 19 C -1.397718 -1.633427 -0.877147 0
M  V30 20 C -0.953312 -2.576288 0.068509 0
M  V30 21 C -1.344825 -2.474730 1.455958 0
M  V30 22 N -0.293316 -2.274031 2.306898 0
M  V30 23 N -0.737868 -2.140270 3.555976 0
M  V30 24 C -2.074941 -2.252041 3.528434 0
M  V30 25 N -2.415489 -2.456981 2.249065 0
M  V30 26 C -3.695202 -2.643612 1.693050 0
M  V30 27 C -3.608644 -3.357027 0.528312 0
M  V30 28 C -4.781798 -3.574806 -0.165049 0
M  V30 29 C -5.967884 -3.055942 0.370774 0
M  V30 30 N -6.065170 -2.345421 1.535616 0
M  V30 31 C -4.881891 -2.152256 2.190884 0
M  V30 32 N -5.120848 -1.461068 3.438656 0
M  V30 33 C -4.285539 -1.716751 4.594840 0
M  V30 34 C -5.036437 -1.546469 5.763026 0
M  V30 35 C -4.395108 -1.768794 6.962080 0
M  V30 36 C -3.062572 -2.145310 7.013183 0
M  V30 37 C -2.296051 -2.320602 5.881155 0
M  V30 38 C -2.940611 -2.097067 4.691567 0
M  V30 39 C -0.096131 -3.559933 -0.457448 0
M  V30 40 C 0.264998 -3.580094 -1.788027 0
M  V30 41 C 1.061142 -0.493978 -4.954335 0
M  V30 42 C 1.204920 0.620829 -3.939038 0
M  V30 43 H 3.966003 3.628521 -1.394713 0
M  V30 44 H 4.630793 5.290647 0.118912 0
M  V30 45 H 4.734063 6.247875 2.312437 0
M  V30 46 H 2.489293 3.026725 3.883863 0
M  V30 47 H 2.392632 2.076584 1.678967 0
M  V30 48 H 3.446225 2.107855 -3.207504 0
M  V30 49 H 1.846693 -0.186940 -2.084588 0
M  V30 50 H 3.644294 -0.441656 -4.514952 0
M  V30 51 H 4.030937 -0.937807 -2.760746 0
M  V30 52 H 3.026785 -2.734870 -4.342372 0
M  V30 53 H 2.298673 -2.506464 -2.706769 0
M  V30 54 H -0.782209 -2.228473 -4.672653 0
M  V30 55 H 0.313248 -3.622124 -4.422666 0
M  V30 56 H -1.494730 -0.818022 -2.798282 0
M  V30 57 H -2.066079 -0.866266 -0.467002 0
M  V30 58 H -2.795543 -3.834883 0.050051 0
M  V30 59 H -4.908320 -4.102220 -1.084123 0
M  V30 60 H -6.911435 -3.191622 -0.124225 0
M  V30 61 H -5.903603 -0.790474 3.513816 0
M  V30 62 H -6.069411 -1.249845 5.651722 0
M  V30 63 H -4.953986 -1.643873 7.878836 0
M  V30 64 H -2.547791 -2.323579 7.963081 0
M  V30 65 H -1.264091 -2.607632 5.805455 0
M  V30 66 H 0.271132 -4.312553 0.249267 0
M  V30 67 H 0.922029 -4.355912 -2.155858 0
M  V30 68 H 1.836240 -0.378597 -5.766615 0
M  V30 69 H 0.055801 -0.486615 -5.431811 0
M  V30 70 H 0.261204 0.713980 -3.367763 0
M  V30 71 H 1.349313 1.606752 -4.426185 0
M  V30 END ATOM
M  V30 BEGIN BOND
M  V30 1 2 1 2
M  V30 2 1 2 3
M  V30 3 1 3 4
M  V30 4 2 4 5
M  V30 5 1 5 6
M  V30 6 2 6 7
M  V30 7 1 7 8
M  V30 8 1 7 9
M  V30 9 2 9 10
M  V30 10 1 2 11
M  V30 11 1 11 12
M  V30 12 1 12 13
M  V30 13 1 13 14
M  V30 14 1 14 15
M  V30 15 1 15 16
M  V30 16 1 16 17
M  V30 17 2 17 18
M  V30 18 1 18 19
M  V30 19 2 19 20
M  V30 20 1 20 21
M  V30 21 2 21 22
M  V30 22 1 22 23
M  V30 23 2 23 24
M  V30 24 1 24 25
M  V30 25 1 25 26
M  V30 26 2 26 27
M  V30 27 1 27 28
M  V30 28 2 28 29
M  V30 29 1 29 30
M  V30 30 2 30 31
M  V30 31 1 31 32
M  V30 32 1 32 33
M  V30 33 2 33 34
M  V30 34 1 34 35
M  V30 35 2 35 36
M  V30 36 1 36 37
M  V30 37 2 37 38
M  V30 38 1 20 39
M  V30 39 2 39 40
M  V30 40 1 15 41
M  V30 41 1 41 42
M  V30 42 1 10 4
M  V30 43 1 42 12
M  V30 44 1 40 17
M  V30 45 1 25 21
M  V30 46 1 31 26
M  V30 47 1 38 33
M  V30 48 1 38 24
M  V30 49 1 3 43
M  V30 50 1 5 44
M  V30 51 1 6 45
M  V30 52 1 9 46
M  V30 53 1 10 47
M  V30 54 1 11 48
M  V30 55 1 12 49
M  V30 56 1 13 50
M  V30 57 1 13 51
M  V30 58 1 14 52
M  V30 59 1 14 53
M  V30 60 1 16 54
M  V30 61 1 16 55
M  V30 62 1 18 56
M  V30 63 1 19 57
M  V30 64 1 27 58
M  V30 65 1 28 59
M  V30 66 1 29 60
M  V30 67 1 32 61
M  V30 68 1 34 62
M  V30 69 1 35 63
M  V30 70 1 36 64
M  V30 71 1 37 65
M  V30 72 1 39 66
M  V30 73 1 40 67
M  V30 74 1 41 68
M  V30 75 1 41 69
M  V30 76 1 42 70
M  V30 77 1 42 71
M  V30 END BOND
M  V30 END CTAB
M  END
>  <Dataset>  (67) 
ChEMBL_Kinases

>  <Ligand_Instance>  (67) 
nan

>  <PDB_ID>  (67) 
nan

>  <Standardized_SMILES>  (67) 
O=C(Nc1ccc(F)cc1)NC1CCN(Cc2ccc(-c3nnc4n3-c3cccnc3Nc3ccccc3-4)cc2)CC1

>  <Name>  (67) 
nan

>  <Pocket>  (67) 
nan

>  <ATP_Site>  (67) 
nan

>  <Peripheral>  (67) 
nan

>  <Num_H_Atoms_ProtBoundConf>  (67) 
nan

>  <Num_Resolved_Atoms>  (67) 
nan

>  <Num_Not_Resolved_Atoms>  (67) 
nan

$$$$
CHEMBL3684475
     RDKit          3D

  0  0  0  0  0  0  0  0  0  0999 V3000
M  V30 BEGIN CTAB
M  V30 COUNTS 78 84 0 0 0
M  V30 BEGIN ATOM
M  V30 1 C 0.625317 -4.919537 -1.381249 0
M  V30 2 O 1.506238 -3.885758 -1.051879 0
M  V30 3 C 2.779549 -3.750821 -1.598944 0
M  V30 4 C 3.179523 -4.699198 -2.516660 0
M  V30 5 C 4.423191 -4.643711 -3.108353 0
M  V30 6 C 5.254735 -3.604907 -2.749962 0
M  V30 7 C 6.603589 -3.503928 -3.361882 0
M  V30 8 C 4.806830 -2.683373 -1.828150 0
M  V30 9 C 3.594141 -2.705992 -1.227443 0
M  V30 10 N 3.079708 -1.799940 -0.281124 0
M  V30 11 C 3.699113 -0.656309 0.281458 0
M  V30 12 O 4.863060 -0.352764 -0.064528 0
M  V30 13 N 3.113396 0.211584 1.231724 0
M  V30 14 C 3.820188 1.353859 1.753960 0
M  V30 15 C 3.998176 1.275927 3.254288 0
M  V30 16 C 2.633519 1.373462 3.905039 0
M  V30 17 N 2.087255 2.644758 3.619508 0
M  V30 18 C 0.728565 2.860567 3.930804 0
M  V30 19 C -0.099795 1.875041 3.143306 0
M  V30 20 C -0.484011 2.348036 1.904382 0
M  V30 21 C -1.244315 1.483374 1.144520 0
M  V30 22 C -1.651291 0.187964 1.519995 0
M  V30 23 C -2.423440 -0.647174 0.623039 0
M  V30 24 N -1.774111 -1.786831 0.259103 0
M  V30 25 N -2.519829 -2.470636 -0.598456 0
M  V30 26 C -3.658045 -1.787075 -0.801945 0
M  V30 27 N -3.576671 -0.683679 -0.045286 0
M  V30 28 C -4.506816 0.362817 0.109545 0
M  V30 29 C -4.337393 0.973934 1.320042 0
M  V30 30 C -5.145172 2.059447 1.590781 0
M  V30 31 C -6.071214 2.447222 0.613637 0
M  V30 32 N -6.248109 1.836711 -0.598282 0
M  V30 33 C -5.429841 0.766145 -0.828920 0
M  V30 34 N -5.760442 0.161433 -2.099540 0
M  V30 35 C -5.605553 -1.265351 -2.299712 0
M  V30 36 C -6.561212 -1.718363 -3.219223 0
M  V30 37 C -6.551530 -3.061910 -3.503351 0
M  V30 38 C -5.653340 -3.933168 -2.921538 0
M  V30 39 C -4.702277 -3.523949 -2.016218 0
M  V30 40 C -4.710336 -2.182290 -1.731849 0
M  V30 41 C -1.212715 -0.207117 2.798265 0
M  V30 42 C -0.450173 0.619436 3.598710 0
M  V30 43 C 2.659586 3.412790 2.582912 0
M  V30 44 C 3.046365 2.599346 1.381596 0
M  V30 45 H 0.541108 -5.074254 -2.459259 0
M  V30 46 H -0.382292 -4.654095 -1.001054 0
M  V30 47 H 0.910940 -5.865322 -0.843822 0
M  V30 48 H 2.512981 -5.493600 -2.775125 0
M  V30 49 H 4.709769 -5.402697 -3.825668 0
M  V30 50 H 7.037096 -4.499856 -3.573053 0
M  V30 51 H 7.270060 -2.845871 -2.768464 0
M  V30 52 H 6.493153 -3.012166 -4.367843 0
M  V30 53 H 5.499055 -1.905567 -1.595283 0
M  V30 54 H 2.119444 -1.914202 0.109871 0
M  V30 55 H 2.130579 -0.012237 1.545293 0
M  V30 56 H 4.828586 1.386681 1.295596 0
M  V30 57 H 4.560074 2.199682 3.540962 0
M  V30 58 H 4.445795 0.342367 3.586881 0
M  V30 59 H 2.681094 1.216312 4.997038 0
M  V30 60 H 2.022678 0.540206 3.503217 0
M  V30 61 H 0.539625 2.602405 4.993698 0
M  V30 62 H 0.445896 3.889695 3.714383 0
M  V30 63 H -0.244060 3.317119 1.490891 0
M  V30 64 H -1.580718 1.799275 0.152263 0
M  V30 65 H -3.717252 0.749746 2.145663 0
M  V30 66 H -5.143865 2.660429 2.496260 0
M  V30 67 H -6.725864 3.287890 0.769182 0
M  V30 68 H -6.127008 0.748475 -2.871271 0
M  V30 69 H -7.224078 -0.993332 -3.633550 0
M  V30 70 H -7.284735 -3.437437 -4.214531 0
M  V30 71 H -5.646758 -5.010991 -3.150058 0
M  V30 72 H -3.958868 -4.104033 -1.504612 0
M  V30 73 H -1.499799 -1.192362 3.130724 0
M  V30 74 H -0.115963 0.325316 4.566908 0
M  V30 75 H 3.545593 4.025310 2.888670 0
M  V30 76 H 1.889116 4.155050 2.243174 0
M  V30 77 H 3.704923 3.257181 0.751896 0
M  V30 78 H 2.174135 2.384346 0.750820 0
M  V30 END ATOM
M  V30 BEGIN BOND
M  V30 1 1 1 2
M  V30 2 1 2 3
M  V30 3 2 3 4
M  V30 4 1 4 5
M  V30 5 2 5 6
M  V30 6 1 6 7
M  V30 7 1 6 8
M  V30 8 2 8 9
M  V30 9 1 9 10
M  V30 10 1 10 11
M  V30 11 2 11 12
M  V30 12 1 11 13
M  V30 13 1 13 14
M  V30 14 1 14 15
M  V30 15 1 15 16
M  V30 16 1 16 17
M  V30 17 1 17 18
M  V30 18 1 18 19
M  V30 19 2 19 20
M  V30 20 1 20 21
M  V30 21 2 21 22
M  V30 22 1 22 23
M  V30 23 2 23 24
M  V30 24 1 24 25
M  V30 25 2 25 26
M  V30 26 1 26 27
M  V30 27 1 27 28
M  V30 28 2 28 29
M  V30 29 1 29 30
M  V30 30 2 30 31
M  V30 31 1 31 32
M  V30 32 2 32 33
M  V30 33 1 33 34
M  V30 34 1 34 35
M  V30 35 2 35 36
M  V30 36 1 36 37
M  V30 37 2 37 38
M  V30 38 1 38 39
M  V30 39 2 39 40
M  V30 40 1 22 41
M  V30 41 2 41 42
M  V30 42 1 17 43
M  V30 43 1 43 44
M  V30 44 1 9 3
M  V30 45 1 44 14
M  V30 46 1 42 19
M  V30 47 1 27 23
M  V30 48 1 33 28
M  V30 49 1 40 35
M  V30 50 1 40 26
M  V30 51 1 1 45
M  V30 52 1 1 46
M  V30 53 1 1 47
M  V30 54 1 4 48
M  V30 55 1 5 49
M  V30 56 1 7 50
M  V30 57 1 7 51
M  V30 58 1 7 52
M  V30 59 1 8 53
M  V30 60 1 10 54
M  V30 61 1 13 55
M  V30 62 1 14 56
M  V30 63 1 15 57
M  V30 64 1 15 58
M  V30 65 1 16 59
M  V30 66 1 16 60
M  V30 67 1 18 61
M  V30 68 1 18 62
M  V30 69 1 20 63
M  V30 70 1 21 64
M  V30 71 1 29 65
M  V30 72 1 30 66
M  V30 73 1 31 67
M  V30 74 1 34 68
M  V30 75 1 36 69
M  V30 76 1 37 70
M  V30 77 1 38 71
M  V30 78 1 39 72
M  V30 79 1 41 73
M  V30 80 1 42 74
M  V30 81 1 43 75
M  V30 82 1 43 76
M  V30 83 1 44 77
M  V30 84 1 44 78
M  V30 END BOND
M  V30 END CTAB
M  END
>  <Dataset>  (68) 
ChEMBL_Kinases

>  <Ligand_Instance>  (68) 
nan

>  <PDB_ID>  (68) 
nan

>  <Standardized_SMILES>  (68) 
COc1ccc(C)cc1NC(=O)NC1CCN(Cc2ccc(-c3nnc4n3-c3cccnc3Nc3ccccc3-4)cc2)CC1

>  <Name>  (68) 
nan

>  <Pocket>  (68) 
nan

>  <ATP_Site>  (68) 
nan

>  <Peripheral>  (68) 
nan

>  <Num_H_Atoms_ProtBoundConf>  (68) 
nan

>  <Num_Resolved_Atoms>  (68) 
nan

>  <Num_Not_Resolved_Atoms>  (68) 
nan

$$$$
CHEMBL3684476
     RDKit          3D

  0  0  0  0  0  0  0  0  0  0999 V3000
M  V30 BEGIN CTAB
M  V30 COUNTS 71 77 0 0 0
M  V30 BEGIN ATOM
M  V30 1 O 2.465245 0.989397 -0.370622 0
M  V30 2 C 3.187082 1.669737 -1.172719 0
M  V30 3 N 3.878180 2.812186 -0.683519 0
M  V30 4 C 3.674465 3.075435 0.709084 0
M  V30 5 C 2.702363 3.851194 1.313091 0
M  V30 6 C 2.705054 3.958517 2.686524 0
M  V30 7 C 3.631916 3.328500 3.487998 0
M  V30 8 C 4.603151 2.552996 2.879136 0
M  V30 9 C 4.626733 2.424906 1.491796 0
M  V30 10 F 5.630513 1.635870 1.018027 0
M  V30 11 N 3.226921 1.201430 -2.511989 0
M  V30 12 C 2.502159 0.030373 -2.956011 0
M  V30 13 C 3.427748 -1.074379 -3.409142 0
M  V30 14 C 2.576069 -2.352021 -3.423181 0
M  V30 15 N 1.425928 -2.080767 -4.178365 0
M  V30 16 C 0.246445 -2.817664 -3.959271 0
M  V30 17 C -0.203351 -2.631492 -2.554071 0
M  V30 18 C -1.040422 -1.576380 -2.256101 0
M  V30 19 C -1.429613 -1.456037 -0.939947 0
M  V30 20 C -1.057733 -2.300321 0.122074 0
M  V30 21 C -1.510801 -2.044573 1.471235 0
M  V30 22 N -0.495981 -1.775280 2.344363 0
M  V30 23 N -0.994835 -1.501361 3.549051 0
M  V30 24 C -2.332330 -1.590471 3.466636 0
M  V30 25 N -2.620789 -1.923765 2.200335 0
M  V30 26 C -3.879205 -2.143239 1.607796 0
M  V30 27 C -3.750190 -2.974941 0.529168 0
M  V30 28 C -4.893214 -3.244416 -0.195767 0
M  V30 29 C -6.094225 -2.655601 0.220474 0
M  V30 30 N -6.212005 -1.829737 1.301735 0
M  V30 31 C -5.062075 -1.582729 1.998739 0
M  V30 32 N -5.351914 -0.760446 3.151786 0
M  V30 33 C -4.576045 -0.906437 4.366740 0
M  V30 34 C -5.379624 -0.598660 5.471421 0
M  V30 35 C -4.797767 -0.703194 6.716096 0
M  V30 36 C -3.471712 -1.096353 6.875053 0
M  V30 37 C -2.665499 -1.402535 5.800421 0
M  V30 38 C -3.245301 -1.297473 4.565006 0
M  V30 39 C -0.204355 -3.351685 -0.258887 0
M  V30 40 C 0.207549 -3.506297 -1.565387 0
M  V30 41 C 1.364480 -0.884672 -4.923636 0
M  V30 42 C 1.511254 0.327575 -4.031819 0
M  V30 43 H 4.451019 3.330829 -1.375171 0
M  V30 44 H 2.030903 4.298603 0.619893 0
M  V30 45 H 1.915375 4.583416 3.110086 0
M  V30 46 H 3.588297 3.447985 4.578804 0
M  V30 47 H 5.337147 2.054697 3.521467 0
M  V30 48 H 3.803269 1.730637 -3.187827 0
M  V30 49 H 1.934826 -0.408395 -2.084256 0
M  V30 50 H 3.813097 -0.949298 -4.436037 0
M  V30 51 H 4.275992 -1.197338 -2.680486 0
M  V30 52 H 2.303969 -2.527589 -2.358954 0
M  V30 53 H 3.181162 -3.214961 -3.770952 0
M  V30 54 H -0.585322 -2.412502 -4.607703 0
M  V30 55 H 0.351598 -3.906055 -4.165796 0
M  V30 56 H -1.402894 -0.853485 -2.973358 0
M  V30 57 H -2.095677 -0.634032 -0.646856 0
M  V30 58 H -2.928345 -3.515158 0.140471 0
M  V30 59 H -4.976757 -3.871461 -1.069254 0
M  V30 60 H -7.014356 -2.836007 -0.317611 0
M  V30 61 H -6.127939 -0.075480 3.114229 0
M  V30 62 H -6.399594 -0.297874 5.279195 0
M  V30 63 H -5.398067 -0.470652 7.585678 0
M  V30 64 H -3.012145 -1.179502 7.856637 0
M  V30 65 H -1.637227 -1.713727 5.805661 0
M  V30 66 H 0.102462 -4.021880 0.533567 0
M  V30 67 H 0.864732 -4.347437 -1.762411 0
M  V30 68 H 2.197393 -0.825969 -5.656078 0
M  V30 69 H 0.436897 -0.837381 -5.533671 0
M  V30 70 H 0.505687 0.500043 -3.561838 0
M  V30 71 H 1.797502 1.225356 -4.641181 0
M  V30 END ATOM
M  V30 BEGIN BOND
M  V30 1 2 1 2
M  V30 2 1 2 3
M  V30 3 1 3 4
M  V30 4 2 4 5
M  V30 5 1 5 6
M  V30 6 2 6 7
M  V30 7 1 7 8
M  V30 8 2 8 9
M  V30 9 1 9 10
M  V30 10 1 2 11
M  V30 11 1 11 12
M  V30 12 1 12 13
M  V30 13 1 13 14
M  V30 14 1 14 15
M  V30 15 1 15 16
M  V30 16 1 16 17
M  V30 17 2 17 18
M  V30 18 1 18 19
M  V30 19 2 19 20
M  V30 20 1 20 21
M  V30 21 2 21 22
M  V30 22 1 22 23
M  V30 23 2 23 24
M  V30 24 1 24 25
M  V30 25 1 25 26
M  V30 26 2 26 27
M  V30 27 1 27 28
M  V30 28 2 28 29
M  V30 29 1 29 30
M  V30 30 2 30 31
M  V30 31 1 31 32
M  V30 32 1 32 33
M  V30 33 2 33 34
M  V30 34 1 34 35
M  V30 35 2 35 36
M  V30 36 1 36 37
M  V30 37 2 37 38
M  V30 38 1 20 39
M  V30 39 2 39 40
M  V30 40 1 15 41
M  V30 41 1 41 42
M  V30 42 1 9 4
M  V30 43 1 42 12
M  V30 44 1 40 17
M  V30 45 1 25 21
M  V30 46 1 31 26
M  V30 47 1 38 33
M  V30 48 1 38 24
M  V30 49 1 3 43
M  V30 50 1 5 44
M  V30 51 1 6 45
M  V30 52 1 7 46
M  V30 53 1 8 47
M  V30 54 1 11 48
M  V30 55 1 12 49
M  V30 56 1 13 50
M  V30 57 1 13 51
M  V30 58 1 14 52
M  V30 59 1 14 53
M  V30 60 1 16 54
M  V30 61 1 16 55
M  V30 62 1 18 56
M  V30 63 1 19 57
M  V30 64 1 27 58
M  V30 65 1 28 59
M  V30 66 1 29 60
M  V30 67 1 32 61
M  V30 68 1 34 62
M  V30 69 1 35 63
M  V30 70 1 36 64
M  V30 71 1 37 65
M  V30 72 1 39 66
M  V30 73 1 40 67
M  V30 74 1 41 68
M  V30 75 1 41 69
M  V30 76 1 42 70
M  V30 77 1 42 71
M  V30 END BOND
M  V30 END CTAB
M  END
>  <Dataset>  (69) 
ChEMBL_Kinases

>  <Ligand_Instance>  (69) 
nan

>  <PDB_ID>  (69) 
nan

>  <Standardized_SMILES>  (69) 
O=C(Nc1ccccc1F)NC1CCN(Cc2ccc(-c3nnc4n3-c3cccnc3Nc3ccccc3-4)cc2)CC1

>  <Name>  (69) 
nan

>  <Pocket>  (69) 
nan

>  <ATP_Site>  (69) 
nan

>  <Peripheral>  (69) 
nan

>  <Num_H_Atoms_ProtBoundConf>  (69) 
nan

>  <Num_Resolved_Atoms>  (69) 
nan

>  <Num_Not_Resolved_Atoms>  (69) 
nan

$$$$
CHEMBL3684477
     RDKit          3D

  0  0  0  0  0  0  0  0  0  0999 V3000
M  V30 BEGIN CTAB
M  V30 COUNTS 74 80 0 0 0
M  V30 BEGIN ATOM
M  V30 1 C 6.431219 -5.784912 -1.879142 0
M  V30 2 C 4.950561 -5.893205 -2.055407 0
M  V30 3 C 4.103010 -6.004487 -0.958373 0
M  V30 4 C 2.736790 -6.102176 -1.171447 0
M  V30 5 C 2.236983 -6.088229 -2.454616 0
M  V30 6 N 0.806129 -6.193667 -2.601972 0
M  V30 7 C 0.129384 -4.920819 -2.605690 0
M  V30 8 O 0.921988 -3.927861 -2.477425 0
M  V30 9 N -1.271665 -4.689341 -2.733295 0
M  V30 10 C -1.770119 -3.334353 -2.714789 0
M  V30 11 C -2.477193 -2.952978 -3.969322 0
M  V30 12 C -3.372483 -1.774167 -3.810344 0
M  V30 13 N -3.049762 -1.011606 -2.627479 0
M  V30 14 C -3.659921 0.273652 -2.550221 0
M  V30 15 C -3.242756 0.946362 -1.283017 0
M  V30 16 C -2.091105 1.701113 -1.373223 0
M  V30 17 C -1.680461 2.337094 -0.220323 0
M  V30 18 C -2.356103 2.261563 1.019077 0
M  V30 19 C -1.931755 2.960967 2.208336 0
M  V30 20 N -2.843206 3.866717 2.663408 0
M  V30 21 N -2.355119 4.508600 3.738873 0
M  V30 22 C -1.148978 4.024799 3.973144 0
M  V30 23 N -0.901245 3.088897 3.047853 0
M  V30 24 C 0.239283 2.280325 2.870364 0
M  V30 25 C -0.089259 1.122556 2.220773 0
M  V30 26 C 0.935145 0.246923 1.922986 0
M  V30 27 C 2.237696 0.595012 2.304159 0
M  V30 28 N 2.555304 1.754969 2.957922 0
M  V30 29 C 1.523858 2.606876 3.242486 0
M  V30 30 N 1.998109 3.744481 3.996186 0
M  V30 31 C 1.137418 4.382701 4.971597 0
M  V30 32 C 1.934696 4.912560 5.995592 0
M  V30 33 C 1.278782 5.548981 7.029620 0
M  V30 34 C -0.109195 5.656259 7.048812 0
M  V30 35 C -0.906908 5.140761 6.048684 0
M  V30 36 C -0.259558 4.509312 5.021029 0
M  V30 37 C -3.519928 1.464670 0.999731 0
M  V30 38 C -3.979257 0.804293 -0.125187 0
M  V30 39 C -3.235467 -1.778245 -1.414827 0
M  V30 40 C -2.712530 -3.170560 -1.543367 0
M  V30 41 C 3.059683 -5.978530 -3.560694 0
M  V30 42 C 4.409222 -5.883294 -3.319708 0
M  V30 43 H 6.917772 -6.560712 -2.493561 0
M  V30 44 H 6.702269 -5.917720 -0.818606 0
M  V30 45 H 6.727905 -4.753220 -2.175620 0
M  V30 46 H 4.615751 -6.004521 0.008248 0
M  V30 47 H 2.125785 -6.186588 -0.277878 0
M  V30 48 H 0.157585 -7.020763 -2.707424 0
M  V30 49 H -1.837282 -5.538950 -2.832051 0
M  V30 50 H -0.892184 -2.671511 -2.595077 0
M  V30 51 H -3.029709 -3.857739 -4.317007 0
M  V30 52 H -1.691516 -2.657036 -4.721834 0
M  V30 53 H -4.418445 -2.162057 -3.631042 0
M  V30 54 H -3.436665 -1.153938 -4.715576 0
M  V30 55 H -3.511869 0.905915 -3.426084 0
M  V30 56 H -4.771364 0.100286 -2.443433 0
M  V30 57 H -1.507132 1.822034 -2.264560 0
M  V30 58 H -0.767191 2.952497 -0.237033 0
M  V30 59 H -1.022487 0.720528 1.923411 0
M  V30 60 H 0.841585 -0.707173 1.412654 0
M  V30 61 H 3.067417 -0.060030 2.088645 0
M  V30 62 H 2.962783 4.084938 3.841032 0
M  V30 63 H 3.003687 4.797597 5.918936 0
M  V30 64 H 1.864646 5.969388 7.836273 0
M  V30 65 H -0.633900 6.157097 7.862293 0
M  V30 66 H -1.972178 5.168392 5.966881 0
M  V30 67 H -4.035143 1.409749 1.953761 0
M  V30 68 H -4.875049 0.209576 -0.082958 0
M  V30 69 H -2.660180 -1.212291 -0.625899 0
M  V30 70 H -4.313523 -1.844639 -1.176438 0
M  V30 71 H -3.540036 -3.878964 -1.567096 0
M  V30 72 H -2.133065 -3.404991 -0.612605 0
M  V30 73 H 2.580072 -5.975742 -4.531977 0
M  V30 74 H 5.056583 -5.796637 -4.197672 0
M  V30 END ATOM
M  V30 BEGIN BOND
M  V30 1 1 1 2
M  V30 2 2 2 3
M  V30 3 1 3 4
M  V30 4 2 4 5
M  V30 5 1 5 6
M  V30 6 1 6 7
M  V30 7 2 7 8
M  V30 8 1 7 9
M  V30 9 1 9 10
M  V30 10 1 10 11
M  V30 11 1 11 12
M  V30 12 1 12 13
M  V30 13 1 13 14
M  V30 14 1 14 15
M  V30 15 2 15 16
M  V30 16 1 16 17
M  V30 17 2 17 18
M  V30 18 1 18 19
M  V30 19 2 19 20
M  V30 20 1 20 21
M  V30 21 2 21 22
M  V30 22 1 22 23
M  V30 23 1 23 24
M  V30 24 2 24 25
M  V30 25 1 25 26
M  V30 26 2 26 27
M  V30 27 1 27 28
M  V30 28 2 28 29
M  V30 29 1 29 30
M  V30 30 1 30 31
M  V30 31 2 31 32
M  V30 32 1 32 33
M  V30 33 2 33 34
M  V30 34 1 34 35
M  V30 35 2 35 36
M  V30 36 1 18 37
M  V30 37 2 37 38
M  V30 38 1 13 39
M  V30 39 1 39 40
M  V30 40 1 5 41
M  V30 41 2 41 42
M  V30 42 1 42 2
M  V30 43 1 40 10
M  V30 44 1 38 15
M  V30 45 1 23 19
M  V30 46 1 29 24
M  V30 47 1 36 31
M  V30 48 1 36 22
M  V30 49 1 1 43
M  V30 50 1 1 44
M  V30 51 1 1 45
M  V30 52 1 3 46
M  V30 53 1 4 47
M  V30 54 1 6 48
M  V30 55 1 9 49
M  V30 56 1 10 50
M  V30 57 1 11 51
M  V30 58 1 11 52
M  V30 59 1 12 53
M  V30 60 1 12 54
M  V30 61 1 14 55
M  V30 62 1 14 56
M  V30 63 1 16 57
M  V30 64 1 17 58
M  V30 65 1 25 59
M  V30 66 1 26 60
M  V30 67 1 27 61
M  V30 68 1 30 62
M  V30 69 1 32 63
M  V30 70 1 33 64
M  V30 71 1 34 65
M  V30 72 1 35 66
M  V30 73 1 37 67
M  V30 74 1 38 68
M  V30 75 1 39 69
M  V30 76 1 39 70
M  V30 77 1 40 71
M  V30 78 1 40 72
M  V30 79 1 41 73
M  V30 80 1 42 74
M  V30 END BOND
M  V30 END CTAB
M  END
>  <Dataset>  (70) 
ChEMBL_Kinases

>  <Ligand_Instance>  (70) 
nan

>  <PDB_ID>  (70) 
nan

>  <Standardized_SMILES>  (70) 
Cc1ccc(NC(=O)NC2CCN(Cc3ccc(-c4nnc5n4-c4cccnc4Nc4ccccc4-5)cc3)CC2)cc1

>  <Name>  (70) 
nan

>  <Pocket>  (70) 
nan

>  <ATP_Site>  (70) 
nan

>  <Peripheral>  (70) 
nan

>  <Num_H_Atoms_ProtBoundConf>  (70) 
nan

>  <Num_Resolved_Atoms>  (70) 
nan

>  <Num_Not_Resolved_Atoms>  (70) 
nan

$$$$
CHEMBL3684478
     RDKit          3D

  0  0  0  0  0  0  0  0  0  0999 V3000
M  V30 BEGIN CTAB
M  V30 COUNTS 85 91 0 0 0
M  V30 BEGIN ATOM
M  V30 1 C -0.764723 -8.109701 -4.058865 0
M  V30 2 O -1.358816 -7.136582 -3.262356 0
M  V30 3 C -1.765172 -5.881809 -3.647539 0
M  V30 4 C -1.582057 -5.501798 -4.976058 0
M  V30 5 C -1.951938 -4.270632 -5.472619 0
M  V30 6 C -2.534349 -3.337403 -4.649846 0
M  V30 7 C -3.021195 -1.918346 -4.771750 0
M  V30 8 C -1.880412 -0.971772 -4.476051 0
M  V30 9 N -2.272433 0.407319 -4.364898 0
M  V30 10 C -1.143426 1.187944 -4.118499 0
M  V30 11 O -0.026827 0.578899 -4.152621 0
M  V30 12 N -0.967306 2.548289 -3.822747 0
M  V30 13 C 0.077110 3.518343 -3.580705 0
M  V30 14 C -0.423531 4.852971 -3.192538 0
M  V30 15 C 0.302174 5.322406 -1.950712 0
M  V30 16 N 0.008117 4.436610 -0.872339 0
M  V30 17 C 0.467564 4.966286 0.388927 0
M  V30 18 C 0.382275 4.053102 1.521339 0
M  V30 19 C 1.498335 3.304248 1.878296 0
M  V30 20 C 1.555293 2.367052 2.903241 0
M  V30 21 C 0.381530 2.138784 3.665909 0
M  V30 22 C 0.641397 1.148588 4.690428 0
M  V30 23 N 0.518696 1.480246 6.005991 0
M  V30 24 N 0.887533 0.434967 6.773067 0
M  V30 25 C 1.236996 -0.539104 5.924483 0
M  V30 26 N 1.084393 -0.109917 4.664190 0
M  V30 27 C 1.326264 -0.856185 3.498394 0
M  V30 28 C 0.529796 -0.407318 2.473967 0
M  V30 29 C 0.633928 -0.971234 1.192252 0
M  V30 30 C 1.594704 -1.991701 1.096133 0
M  V30 31 N 2.384310 -2.449283 2.094313 0
M  V30 32 C 2.247869 -1.882974 3.293609 0
M  V30 33 N 3.079736 -2.508866 4.306561 0
M  V30 34 C 2.630065 -2.621934 5.684861 0
M  V30 35 C 3.195500 -3.798297 6.209542 0
M  V30 36 C 2.856187 -4.072467 7.508299 0
M  V30 37 C 2.027634 -3.282092 8.270580 0
M  V30 38 C 1.477869 -2.131889 7.749501 0
M  V30 39 C 1.777553 -1.791173 6.446308 0
M  V30 40 C -0.752891 2.877144 3.330082 0
M  V30 41 C -0.725527 3.788295 2.298396 0
M  V30 42 C 0.392048 3.077857 -1.142163 0
M  V30 43 C 1.030282 2.948579 -2.506555 0
M  V30 44 C -2.689363 -3.788016 -3.326372 0
M  V30 45 C -2.345263 -5.010986 -2.741955 0
M  V30 46 O -2.551425 -5.340632 -1.423314 0
M  V30 47 C -3.166047 -4.582606 -0.435841 0
M  V30 48 H -1.111645 -9.102202 -3.632408 0
M  V30 49 H -1.031075 -8.051842 -5.130574 0
M  V30 50 H 0.350541 -8.023693 -3.922129 0
M  V30 51 H -1.133284 -6.128342 -5.741706 0
M  V30 52 H -1.867559 -3.851323 -6.465266 0
M  V30 53 H -3.878111 -1.780754 -4.117761 0
M  V30 54 H -3.286649 -1.790635 -5.869886 0
M  V30 55 H -1.402994 -1.274873 -3.509509 0
M  V30 56 H -1.066130 -1.069922 -5.234163 0
M  V30 57 H -3.165202 0.990964 -4.416962 0
M  V30 58 H -1.947486 2.989821 -3.762332 0
M  V30 59 H 0.735707 3.565027 -4.457632 0
M  V30 60 H -1.517481 4.876462 -2.961369 0
M  V30 61 H -0.310350 5.613934 -4.007364 0
M  V30 62 H -0.008324 6.353495 -1.667378 0
M  V30 63 H 1.414490 5.379400 -2.157677 0
M  V30 64 H -0.026129 5.941539 0.549921 0
M  V30 65 H 1.561691 5.230557 0.276649 0
M  V30 66 H 2.422099 3.482186 1.293420 0
M  V30 67 H 2.529248 1.864712 3.043169 0
M  V30 68 H -0.246197 0.319944 2.524699 0
M  V30 69 H 0.089868 -0.733150 0.290438 0
M  V30 70 H 1.760797 -2.498044 0.143228 0
M  V30 71 H 3.990166 -2.883108 4.001504 0
M  V30 72 H 3.845195 -4.409389 5.606812 0
M  V30 73 H 3.229396 -4.941625 8.014857 0
M  V30 74 H 1.719977 -3.444481 9.288754 0
M  V30 75 H 0.823086 -1.387071 8.147694 0
M  V30 76 H -1.582198 2.630924 3.968332 0
M  V30 77 H -1.635779 4.330227 2.089835 0
M  V30 78 H -0.540327 2.467567 -1.144001 0
M  V30 79 H 1.089252 2.614879 -0.435832 0
M  V30 80 H 2.006326 3.460573 -2.528392 0
M  V30 81 H 1.176660 1.897561 -2.735130 0
M  V30 82 H -3.147554 -3.127518 -2.557951 0
M  V30 83 H -3.743417 -5.227974 0.292875 0
M  V30 84 H -3.905371 -3.892321 -0.917617 0
M  V30 85 H -2.437296 -4.018068 0.181267 0
M  V30 END ATOM
M  V30 BEGIN BOND
M  V30 1 1 1 2
M  V30 2 1 2 3
M  V30 3 2 3 4
M  V30 4 1 4 5
M  V30 5 2 5 6
M  V30 6 1 6 7
M  V30 7 1 7 8
M  V30 8 1 8 9
M  V30 9 1 9 10
M  V30 10 2 10 11
M  V30 11 1 10 12
M  V30 12 1 12 13
M  V30 13 1 13 14
M  V30 14 1 14 15
M  V30 15 1 15 16
M  V30 16 1 16 17
M  V30 17 1 17 18
M  V30 18 2 18 19
M  V30 19 1 19 20
M  V30 20 2 20 21
M  V30 21 1 21 22
M  V30 22 2 22 23
M  V30 23 1 23 24
M  V30 24 2 24 25
M  V30 25 1 25 26
M  V30 26 1 26 27
M  V30 27 2 27 28
M  V30 28 1 28 29
M  V30 29 2 29 30
M  V30 30 1 30 31
M  V30 31 2 31 32
M  V30 32 1 32 33
M  V30 33 1 33 34
M  V30 34 2 34 35
M  V30 35 1 35 36
M  V30 36 2 36 37
M  V30 37 1 37 38
M  V30 38 2 38 39
M  V30 39 1 21 40
M  V30 40 2 40 41
M  V30 41 1 16 42
M  V30 42 1 42 43
M  V30 43 1 6 44
M  V30 44 2 44 45
M  V30 45 1 45 46
M  V30 46 1 46 47
M  V30 47 1 45 3
M  V30 48 1 43 13
M  V30 49 1 41 18
M  V30 50 1 26 22
M  V30 51 1 32 27
M  V30 52 1 39 34
M  V30 53 1 39 25
M  V30 54 1 1 48
M  V30 55 1 1 49
M  V30 56 1 1 50
M  V30 57 1 4 51
M  V30 58 1 5 52
M  V30 59 1 7 53
M  V30 60 1 7 54
M  V30 61 1 8 55
M  V30 62 1 8 56
M  V30 63 1 9 57
M  V30 64 1 12 58
M  V30 65 1 13 59
M  V30 66 1 14 60
M  V30 67 1 14 61
M  V30 68 1 15 62
M  V30 69 1 15 63
M  V30 70 1 17 64
M  V30 71 1 17 65
M  V30 72 1 19 66
M  V30 73 1 20 67
M  V30 74 1 28 68
M  V30 75 1 29 69
M  V30 76 1 30 70
M  V30 77 1 33 71
M  V30 78 1 35 72
M  V30 79 1 36 73
M  V30 80 1 37 74
M  V30 81 1 38 75
M  V30 82 1 40 76
M  V30 83 1 41 77
M  V30 84 1 42 78
M  V30 85 1 42 79
M  V30 86 1 43 80
M  V30 87 1 43 81
M  V30 88 1 44 82
M  V30 89 1 47 83
M  V30 90 1 47 84
M  V30 91 1 47 85
M  V30 END BOND
M  V30 END CTAB
M  END
>  <Dataset>  (71) 
ChEMBL_Kinases

>  <Ligand_Instance>  (71) 
nan

>  <PDB_ID>  (71) 
nan

>  <Standardized_SMILES>  (71) 
COc1ccc(CCNC(=O)NC2CCN(Cc3ccc(-c4nnc5n4-c4cccnc4Nc4ccccc4-5)cc3)CC2)cc1OC

>  <Name>  (71) 
nan

>  <Pocket>  (71) 
nan

>  <ATP_Site>  (71) 
nan

>  <Peripheral>  (71) 
nan

>  <Num_H_Atoms_ProtBoundConf>  (71) 
nan

>  <Num_Resolved_Atoms>  (71) 
nan

>  <Num_Not_Resolved_Atoms>  (71) 
nan

$$$$
CHEMBL3684479
     RDKit          3D

  0  0  0  0  0  0  0  0  0  0999 V3000
M  V30 BEGIN CTAB
M  V30 COUNTS 74 80 0 0 0
M  V30 BEGIN ATOM
M  V30 1 C 6.557383 -0.590504 4.581249 0
M  V30 2 C 5.178674 -0.906373 4.125854 0
M  V30 3 C 4.304642 -1.527020 4.991147 0
M  V30 4 C 3.036420 -1.803794 4.539014 0
M  V30 5 C 2.651022 -1.474021 3.268733 0
M  V30 6 C 3.482863 -0.855687 2.369328 0
M  V30 7 N 3.003995 -0.554010 1.085982 0
M  V30 8 C 3.653804 0.057371 -0.007029 0
M  V30 9 O 4.849974 0.410948 0.120151 0
M  V30 10 N 3.062298 0.316218 -1.271819 0
M  V30 11 C 3.838999 0.951273 -2.319518 0
M  V30 12 C 3.808496 -0.007708 -3.501951 0
M  V30 13 C 2.377578 -0.268175 -3.948377 0
M  V30 14 N 1.689945 0.950784 -3.943199 0
M  V30 15 C 0.328709 1.026266 -4.244922 0
M  V30 16 C -0.404144 0.189326 -3.222050 0
M  V30 17 C -0.770049 0.896513 -2.095258 0
M  V30 18 C -1.443237 0.195835 -1.115040 0
M  V30 19 C -1.777018 -1.172114 -1.186962 0
M  V30 20 C -2.455444 -1.842895 -0.097744 0
M  V30 21 N -1.726426 -2.854821 0.467665 0
M  V30 22 N -2.390770 -3.382937 1.485800 0
M  V30 23 C -3.550795 -2.730159 1.597905 0
M  V30 24 N -3.575343 -1.802525 0.628386 0
M  V30 25 C -4.571814 -0.869768 0.319732 0
M  V30 26 C -4.498132 -0.513872 -0.999478 0
M  V30 27 C -5.384387 0.445421 -1.458348 0
M  V30 28 C -6.293236 0.977969 -0.535267 0
M  V30 29 N -6.360815 0.612547 0.779543 0
M  V30 30 C -5.483989 -0.324522 1.195710 0
M  V30 31 N -5.722553 -0.665065 2.582357 0
M  V30 32 C -5.463610 -2.009183 3.063520 0
M  V30 33 C -6.351525 -2.296699 4.108092 0
M  V30 34 C -6.254605 -3.555341 4.677631 0
M  V30 35 C -5.317758 -4.490067 4.231216 0
M  V30 36 C -4.438503 -4.220000 3.205931 0
M  V30 37 C -4.536308 -2.975048 2.645399 0
M  V30 38 C -1.368037 -1.819981 -2.369055 0
M  V30 39 C -0.692938 -1.151397 -3.370230 0
M  V30 40 C 2.525661 2.072471 -4.071767 0
M  V30 41 C 3.198412 2.254912 -2.700167 0
M  V30 42 C 4.741471 -0.595412 2.857524 0
M  V30 43 H 7.236036 -0.380791 3.743265 0
M  V30 44 H 6.556452 0.339537 5.222242 0
M  V30 45 H 6.984673 -1.379965 5.253583 0
M  V30 46 H 4.540398 -1.811629 5.994885 0
M  V30 47 H 2.317907 -2.290135 5.182999 0
M  V30 48 H 1.640488 -1.713512 2.959455 0
M  V30 49 H 2.019301 -0.794735 0.837532 0
M  V30 50 H 2.068927 0.040400 -1.421352 0
M  V30 51 H 4.862714 1.152173 -1.984340 0
M  V30 52 H 4.466373 0.335317 -4.305113 0
M  V30 53 H 4.188927 -0.983266 -3.099443 0
M  V30 54 H 2.442783 -0.751593 -4.952275 0
M  V30 55 H 1.948118 -0.979917 -3.193133 0
M  V30 56 H 0.110578 0.489753 -5.215140 0
M  V30 57 H -0.062935 2.040330 -4.282922 0
M  V30 58 H -0.562652 1.940110 -1.944148 0
M  V30 59 H -1.736982 0.756717 -0.213437 0
M  V30 60 H -3.900821 -0.868626 -1.798451 0
M  V30 61 H -5.474018 0.846700 -2.444820 0
M  V30 62 H -7.010274 1.727154 -0.817767 0
M  V30 63 H -6.090935 0.046833 3.219694 0
M  V30 64 H -7.038670 -1.541767 4.401679 0
M  V30 65 H -6.927465 -3.801377 5.485380 0
M  V30 66 H -5.240187 -5.484457 4.680477 0
M  V30 67 H -3.689436 -4.853490 2.790979 0
M  V30 68 H -1.600664 -2.872442 -2.471370 0
M  V30 69 H -0.373102 -1.633128 -4.281326 0
M  V30 70 H 3.330046 1.965416 -4.821794 0
M  V30 71 H 2.010345 3.034199 -4.265235 0
M  V30 72 H 2.392496 2.551043 -1.982602 0
M  V30 73 H 3.901007 3.077749 -2.794688 0
M  V30 74 H 5.467870 -0.116564 2.238965 0
M  V30 END ATOM
M  V30 BEGIN BOND
M  V30 1 1 1 2
M  V30 2 2 2 3
M  V30 3 1 3 4
M  V30 4 2 4 5
M  V30 5 1 5 6
M  V30 6 1 6 7
M  V30 7 1 7 8
M  V30 8 2 8 9
M  V30 9 1 8 10
M  V30 10 1 10 11
M  V30 11 1 11 12
M  V30 12 1 12 13
M  V30 13 1 13 14
M  V30 14 1 14 15
M  V30 15 1 15 16
M  V30 16 2 16 17
M  V30 17 1 17 18
M  V30 18 2 18 19
M  V30 19 1 19 20
M  V30 20 2 20 21
M  V30 21 1 21 22
M  V30 22 2 22 23
M  V30 23 1 23 24
M  V30 24 1 24 25
M  V30 25 2 25 26
M  V30 26 1 26 27
M  V30 27 2 27 28
M  V30 28 1 28 29
M  V30 29 2 29 30
M  V30 30 1 30 31
M  V30 31 1 31 32
M  V30 32 2 32 33
M  V30 33 1 33 34
M  V30 34 2 34 35
M  V30 35 1 35 36
M  V30 36 2 36 37
M  V30 37 1 19 38
M  V30 38 2 38 39
M  V30 39 1 14 40
M  V30 40 1 40 41
M  V30 41 2 6 42
M  V30 42 1 42 2
M  V30 43 1 41 11
M  V30 44 1 39 16
M  V30 45 1 24 20
M  V30 46 1 30 25
M  V30 47 1 37 32
M  V30 48 1 37 23
M  V30 49 1 1 43
M  V30 50 1 1 44
M  V30 51 1 1 45
M  V30 52 1 3 46
M  V30 53 1 4 47
M  V30 54 1 5 48
M  V30 55 1 7 49
M  V30 56 1 10 50
M  V30 57 1 11 51
M  V30 58 1 12 52
M  V30 59 1 12 53
M  V30 60 1 13 54
M  V30 61 1 13 55
M  V30 62 1 15 56
M  V30 63 1 15 57
M  V30 64 1 17 58
M  V30 65 1 18 59
M  V30 66 1 26 60
M  V30 67 1 27 61
M  V30 68 1 28 62
M  V30 69 1 31 63
M  V30 70 1 33 64
M  V30 71 1 34 65
M  V30 72 1 35 66
M  V30 73 1 36 67
M  V30 74 1 38 68
M  V30 75 1 39 69
M  V30 76 1 40 70
M  V30 77 1 40 71
M  V30 78 1 41 72
M  V30 79 1 41 73
M  V30 80 1 42 74
M  V30 END BOND
M  V30 END CTAB
M  END
>  <Dataset>  (72) 
ChEMBL_Kinases

>  <Ligand_Instance>  (72) 
nan

>  <PDB_ID>  (72) 
nan

>  <Standardized_SMILES>  (72) 
Cc1cccc(NC(=O)NC2CCN(Cc3ccc(-c4nnc5n4-c4cccnc4Nc4ccccc4-5)cc3)CC2)c1

>  <Name>  (72) 
nan

>  <Pocket>  (72) 
nan

>  <ATP_Site>  (72) 
nan

>  <Peripheral>  (72) 
nan

>  <Num_H_Atoms_ProtBoundConf>  (72) 
nan

>  <Num_Resolved_Atoms>  (72) 
nan

>  <Num_Not_Resolved_Atoms>  (72) 
nan

$$$$
CHEMBL3684480
     RDKit          3D

  0  0  0  0  0  0  0  0  0  0999 V3000
M  V30 BEGIN CTAB
M  V30 COUNTS 78 84 0 0 0
M  V30 BEGIN ATOM
M  V30 1 C 0.888606 -6.425363 -3.887544 0
M  V30 2 O 1.226109 -5.054631 -3.873283 0
M  V30 3 C 2.474176 -4.577885 -3.504182 0
M  V30 4 C 3.563587 -5.321876 -3.101966 0
M  V30 5 C 4.746713 -4.719290 -2.762461 0
M  V30 6 C 4.821907 -3.337531 -2.833543 0
M  V30 7 C 3.780912 -2.525760 -3.224743 0
M  V30 8 C 3.859938 -1.051124 -3.298608 0
M  V30 9 N 3.469551 -0.400495 -2.071297 0
M  V30 10 C 4.260199 -0.311198 -0.897415 0
M  V30 11 O 5.393450 -0.805433 -0.837368 0
M  V30 12 N 3.737402 0.359165 0.228404 0
M  V30 13 C 4.480568 0.495045 1.471944 0
M  V30 14 C 4.773008 1.930158 1.829649 0
M  V30 15 C 4.033273 2.328775 3.116283 0
M  V30 16 N 2.682840 1.849804 2.903779 0
M  V30 17 C 1.703293 2.596420 3.645196 0
M  V30 18 C 0.357713 2.058116 3.318921 0
M  V30 19 C -0.226614 1.042599 4.030216 0
M  V30 20 C -1.476349 0.554328 3.714526 0
M  V30 21 C -2.209732 1.084861 2.638184 0
M  V30 22 C -3.536980 0.664306 2.249362 0
M  V30 23 N -4.462760 0.863235 3.230305 0
M  V30 24 N -5.671956 0.496108 2.770586 0
M  V30 25 C -5.530036 0.064633 1.506429 0
M  V30 26 N -4.225414 0.175546 1.220499 0
M  V30 27 C -3.551814 -0.149772 0.026725 0
M  V30 28 C -2.237523 -0.432510 0.279701 0
M  V30 29 C -1.439134 -0.714616 -0.809548 0
M  V30 30 C -2.012497 -0.697100 -2.082042 0
M  V30 31 N -3.328317 -0.418127 -2.333285 0
M  V30 32 C -4.097810 -0.142194 -1.237254 0
M  V30 33 N -5.470985 0.056254 -1.637986 0
M  V30 34 C -6.552474 -0.315934 -0.752621 0
M  V30 35 C -7.669441 -0.698908 -1.504929 0
M  V30 36 C -8.786267 -1.100349 -0.808225 0
M  V30 37 C -8.806431 -1.125140 0.577220 0
M  V30 38 C -7.734138 -0.757476 1.344658 0
M  V30 39 C -6.626496 -0.358549 0.645450 0
M  V30 40 C -1.541256 2.119932 1.963185 0
M  V30 41 C -0.314470 2.634487 2.234246 0
M  V30 42 C 2.583336 0.424581 3.118702 0
M  V30 43 C 3.817755 -0.257461 2.599401 0
M  V30 44 C 2.614963 -3.201481 -3.553752 0
M  V30 45 H 1.747322 -7.091096 -3.996737 0
M  V30 46 H 0.143115 -6.629878 -4.709513 0
M  V30 47 H 0.325505 -6.639801 -2.944078 0
M  V30 48 H 3.421870 -6.392579 -3.073878 0
M  V30 49 H 5.604143 -5.300960 -2.446009 0
M  V30 50 H 5.757005 -2.904812 -2.563655 0
M  V30 51 H 4.911424 -0.765653 -3.587914 0
M  V30 52 H 3.236441 -0.719552 -4.147843 0
M  V30 53 H 2.509121 0.045204 -2.055384 0
M  V30 54 H 2.789209 0.795075 0.233131 0
M  V30 55 H 5.458471 -0.005100 1.308136 0
M  V30 56 H 4.310142 2.560171 1.040308 0
M  V30 57 H 5.832571 2.181526 1.895482 0
M  V30 58 H 4.017650 3.421399 3.139064 0
M  V30 59 H 4.533678 1.919708 3.994020 0
M  V30 60 H 1.728605 3.652958 3.337567 0
M  V30 61 H 1.869613 2.556434 4.741064 0
M  V30 62 H 0.273993 0.584803 4.872202 0
M  V30 63 H -1.967016 -0.251191 4.260232 0
M  V30 64 H -1.697619 -0.525755 1.182486 0
M  V30 65 H -0.367193 -0.960978 -0.806432 0
M  V30 66 H -1.421335 -0.910189 -2.959912 0
M  V30 67 H -5.685626 0.451785 -2.570283 0
M  V30 68 H -7.580963 -0.651493 -2.577864 0
M  V30 69 H -9.658160 -1.399458 -1.375269 0
M  V30 70 H -9.703774 -1.447979 1.128363 0
M  V30 71 H -7.647735 -0.740044 2.414323 0
M  V30 72 H -2.098334 2.550169 1.116314 0
M  V30 73 H 0.072557 3.437033 1.620973 0
M  V30 74 H 2.552901 0.288890 4.226386 0
M  V30 75 H 1.637788 0.070071 2.710192 0
M  V30 76 H 3.546138 -1.259393 2.209268 0
M  V30 77 H 4.539937 -0.415688 3.421976 0
M  V30 78 H 1.782998 -2.552242 -3.866321 0
M  V30 END ATOM
M  V30 BEGIN BOND
M  V30 1 1 1 2
M  V30 2 1 2 3
M  V30 3 2 3 4
M  V30 4 1 4 5
M  V30 5 2 5 6
M  V30 6 1 6 7
M  V30 7 1 7 8
M  V30 8 1 8 9
M  V30 9 1 9 10
M  V30 10 2 10 11
M  V30 11 1 10 12
M  V30 12 1 12 13
M  V30 13 1 13 14
M  V30 14 1 14 15
M  V30 15 1 15 16
M  V30 16 1 16 17
M  V30 17 1 17 18
M  V30 18 2 18 19
M  V30 19 1 19 20
M  V30 20 2 20 21
M  V30 21 1 21 22
M  V30 22 2 22 23
M  V30 23 1 23 24
M  V30 24 2 24 25
M  V30 25 1 25 26
M  V30 26 1 26 27
M  V30 27 2 27 28
M  V30 28 1 28 29
M  V30 29 2 29 30
M  V30 30 1 30 31
M  V30 31 2 31 32
M  V30 32 1 32 33
M  V30 33 1 33 34
M  V30 34 2 34 35
M  V30 35 1 35 36
M  V30 36 2 36 37
M  V30 37 1 37 38
M  V30 38 2 38 39
M  V30 39 1 21 40
M  V30 40 2 40 41
M  V30 41 1 16 42
M  V30 42 1 42 43
M  V30 43 2 7 44
M  V30 44 1 44 3
M  V30 45 1 43 13
M  V30 46 1 41 18
M  V30 47 1 26 22
M  V30 48 1 32 27
M  V30 49 1 39 34
M  V30 50 1 39 25
M  V30 51 1 1 45
M  V30 52 1 1 46
M  V30 53 1 1 47
M  V30 54 1 4 48
M  V30 55 1 5 49
M  V30 56 1 6 50
M  V30 57 1 8 51
M  V30 58 1 8 52
M  V30 59 1 9 53
M  V30 60 1 12 54
M  V30 61 1 13 55
M  V30 62 1 14 56
M  V30 63 1 14 57
M  V30 64 1 15 58
M  V30 65 1 15 59
M  V30 66 1 17 60
M  V30 67 1 17 61
M  V30 68 1 19 62
M  V30 69 1 20 63
M  V30 70 1 28 64
M  V30 71 1 29 65
M  V30 72 1 30 66
M  V30 73 1 33 67
M  V30 74 1 35 68
M  V30 75 1 36 69
M  V30 76 1 37 70
M  V30 77 1 38 71
M  V30 78 1 40 72
M  V30 79 1 41 73
M  V30 80 1 42 74
M  V30 81 1 42 75
M  V30 82 1 43 76
M  V30 83 1 43 77
M  V30 84 1 44 78
M  V30 END BOND
M  V30 END CTAB
M  END
>  <Dataset>  (73) 
ChEMBL_Kinases

>  <Ligand_Instance>  (73) 
nan

>  <PDB_ID>  (73) 
nan

>  <Standardized_SMILES>  (73) 
COc1cccc(CNC(=O)NC2CCN(Cc3ccc(-c4nnc5n4-c4cccnc4Nc4ccccc4-5)cc3)CC2)c1

>  <Name>  (73) 
nan

>  <Pocket>  (73) 
nan

>  <ATP_Site>  (73) 
nan

>  <Peripheral>  (73) 
nan

>  <Num_H_Atoms_ProtBoundConf>  (73) 
nan

>  <Num_Resolved_Atoms>  (73) 
nan

>  <Num_Not_Resolved_Atoms>  (73) 
nan

$$$$
CHEMBL3684490
     RDKit          3D

  0  0  0  0  0  0  0  0  0  0999 V3000
M  V30 BEGIN CTAB
M  V30 COUNTS 77 83 0 0 0
M  V30 BEGIN ATOM
M  V30 1 C 5.678869 -2.813477 3.008608 0
M  V30 2 C 5.117366 -3.483676 1.817246 0
M  V30 3 C 4.819192 -4.846587 1.828111 0
M  V30 4 C 4.299868 -5.508761 0.749063 0
M  V30 5 C 4.050419 -4.801681 -0.426844 0
M  V30 6 C 4.346430 -3.456080 -0.432864 0
M  V30 7 C 4.876284 -2.770423 0.661670 0
M  V30 8 C 5.162365 -1.293618 0.561722 0
M  V30 9 N 4.116279 -0.569487 1.259600 0
M  V30 10 C 4.210490 0.836906 1.275542 0
M  V30 11 O 5.095744 1.541348 0.758492 0
M  V30 12 N 3.194657 1.535300 1.948320 0
M  V30 13 C 2.759166 2.850332 2.290147 0
M  V30 14 C 2.664817 3.160257 3.743482 0
M  V30 15 C 1.429502 2.664123 4.434352 0
M  V30 16 N 0.481016 2.297999 3.463785 0
M  V30 17 C -0.214232 1.087119 3.572103 0
M  V30 18 C -1.145284 0.932587 2.423043 0
M  V30 19 C -2.465162 1.318970 2.349175 0
M  V30 20 C -3.180486 1.097965 1.190998 0
M  V30 21 C -2.595707 0.482426 0.069562 0
M  V30 22 C -3.396009 0.311715 -1.124283 0
M  V30 23 N -3.885700 1.479100 -1.638556 0
M  V30 24 N -4.561742 1.245561 -2.755426 0
M  V30 25 C -4.522082 -0.075870 -2.984700 0
M  V30 26 N -3.814370 -0.620939 -1.982819 0
M  V30 27 C -3.489470 -1.974270 -1.755183 0
M  V30 28 C -3.284353 -2.189683 -0.419689 0
M  V30 29 C -2.898564 -3.468369 -0.059409 0
M  V30 30 C -2.752725 -4.424846 -1.064978 0
M  V30 31 N -2.962557 -4.201697 -2.384223 0
M  V30 32 C -3.338584 -2.949173 -2.717804 0
M  V30 33 N -3.608457 -2.859232 -4.137176 0
M  V30 34 C -4.627476 -1.958838 -4.641230 0
M  V30 35 C -5.197588 -2.503192 -5.800128 0
M  V30 36 C -6.204882 -1.778484 -6.401829 0
M  V30 37 C -6.633001 -0.562924 -5.879404 0
M  V30 38 C -6.091834 -0.004910 -4.744886 0
M  V30 39 C -5.093626 -0.730862 -4.156392 0
M  V30 40 C -1.243210 0.103922 0.190704 0
M  V30 41 C -0.528245 0.325020 1.348900 0
M  V30 42 C 0.250554 3.161275 2.375866 0
M  V30 43 C 1.501913 3.207781 1.527756 0
M  V30 44 H 6.743787 -2.542216 2.805508 0
M  V30 45 H 5.140621 -1.915256 3.317497 0
M  V30 46 H 5.695238 -3.514749 3.869496 0
M  V30 47 H 5.014483 -5.408394 2.754653 0
M  V30 48 H 4.094750 -6.566820 0.834535 0
M  V30 49 H 3.647409 -5.285123 -1.283070 0
M  V30 50 H 4.156522 -2.891836 -1.343967 0
M  V30 51 H 6.113337 -1.074360 1.045514 0
M  V30 52 H 5.158433 -1.040200 -0.497492 0
M  V30 53 H 3.334027 -1.098510 1.724049 0
M  V30 54 H 2.414407 1.021643 2.411970 0
M  V30 55 H 3.548230 3.549450 1.876317 0
M  V30 56 H 2.749272 4.257886 3.860778 0
M  V30 57 H 3.540272 2.735972 4.265679 0
M  V30 58 H 1.018660 3.486732 5.057682 0
M  V30 59 H 1.611373 1.817273 5.114902 0
M  V30 60 H 0.421493 0.190040 3.716859 0
M  V30 61 H -0.859584 1.134619 4.493339 0
M  V30 62 H -2.853490 1.785103 3.242835 0
M  V30 63 H -4.226722 1.436181 1.215674 0
M  V30 64 H -3.408324 -1.568710 0.426887 0
M  V30 65 H -2.695830 -3.800635 0.945563 0
M  V30 66 H -2.449063 -5.437370 -0.817265 0
M  V30 67 H -3.080812 -3.455617 -4.799841 0
M  V30 68 H -4.812282 -3.449732 -6.148848 0
M  V30 69 H -6.657918 -2.181194 -7.297038 0
M  V30 70 H -7.434333 0.010876 -6.359645 0
M  V30 71 H -6.345740 0.914890 -4.265646 0
M  V30 72 H -0.904556 -0.362509 -0.744112 0
M  V30 73 H 0.477981 -0.039972 1.222948 0
M  V30 74 H -0.583028 2.775662 1.759886 0
M  V30 75 H 0.023061 4.213062 2.661554 0
M  V30 76 H 1.362025 2.430669 0.724414 0
M  V30 77 H 1.588460 4.167531 0.973635 0
M  V30 END ATOM
M  V30 BEGIN BOND
M  V30 1 1 1 2
M  V30 2 2 2 3
M  V30 3 1 3 4
M  V30 4 2 4 5
M  V30 5 1 5 6
M  V30 6 2 6 7
M  V30 7 1 7 8
M  V30 8 1 8 9
M  V30 9 1 9 10
M  V30 10 2 10 11
M  V30 11 1 10 12
M  V30 12 1 12 13
M  V30 13 1 13 14
M  V30 14 1 14 15
M  V30 15 1 15 16
M  V30 16 1 16 17
M  V30 17 1 17 18
M  V30 18 2 18 19
M  V30 19 1 19 20
M  V30 20 2 20 21
M  V30 21 1 21 22
M  V30 22 2 22 23
M  V30 23 1 23 24
M  V30 24 2 24 25
M  V30 25 1 25 26
M  V30 26 1 26 27
M  V30 27 2 27 28
M  V30 28 1 28 29
M  V30 29 2 29 30
M  V30 30 1 30 31
M  V30 31 2 31 32
M  V30 32 1 32 33
M  V30 33 1 33 34
M  V30 34 2 34 35
M  V30 35 1 35 36
M  V30 36 2 36 37
M  V30 37 1 37 38
M  V30 38 2 38 39
M  V30 39 1 21 40
M  V30 40 2 40 41
M  V30 41 1 16 42
M  V30 42 1 42 43
M  V30 43 1 7 2
M  V30 44 1 43 13
M  V30 45 1 41 18
M  V30 46 1 26 22
M  V30 47 1 32 27
M  V30 48 1 39 34
M  V30 49 1 39 25
M  V30 50 1 1 44
M  V30 51 1 1 45
M  V30 52 1 1 46
M  V30 53 1 3 47
M  V30 54 1 4 48
M  V30 55 1 5 49
M  V30 56 1 6 50
M  V30 57 1 8 51
M  V30 58 1 8 52
M  V30 59 1 9 53
M  V30 60 1 12 54
M  V30 61 1 13 55
M  V30 62 1 14 56
M  V30 63 1 14 57
M  V30 64 1 15 58
M  V30 65 1 15 59
M  V30 66 1 17 60
M  V30 67 1 17 61
M  V30 68 1 19 62
M  V30 69 1 20 63
M  V30 70 1 28 64
M  V30 71 1 29 65
M  V30 72 1 30 66
M  V30 73 1 33 67
M  V30 74 1 35 68
M  V30 75 1 36 69
M  V30 76 1 37 70
M  V30 77 1 38 71
M  V30 78 1 40 72
M  V30 79 1 41 73
M  V30 80 1 42 74
M  V30 81 1 42 75
M  V30 82 1 43 76
M  V30 83 1 43 77
M  V30 END BOND
M  V30 END CTAB
M  END
>  <Dataset>  (74) 
ChEMBL_Kinases

>  <Ligand_Instance>  (74) 
nan

>  <PDB_ID>  (74) 
nan

>  <Standardized_SMILES>  (74) 
Cc1ccccc1CNC(=O)NC1CCN(Cc2ccc(-c3nnc4n3-c3cccnc3Nc3ccccc3-4)cc2)CC1

>  <Name>  (74) 
nan

>  <Pocket>  (74) 
nan

>  <ATP_Site>  (74) 
nan

>  <Peripheral>  (74) 
nan

>  <Num_H_Atoms_ProtBoundConf>  (74) 
nan

>  <Num_Resolved_Atoms>  (74) 
nan

>  <Num_Not_Resolved_Atoms>  (74) 
nan

$$$$
CHEMBL3684482
     RDKit          3D

  0  0  0  0  0  0  0  0  0  0999 V3000
M  V30 BEGIN CTAB
M  V30 COUNTS 74 80 0 0 0
M  V30 BEGIN ATOM
M  V30 1 O 2.749669 1.849051 -2.443934 0
M  V30 2 C 2.063906 0.968862 -1.909983 0
M  V30 3 N 2.587316 0.400426 -0.734514 0
M  V30 4 C 3.695944 0.454303 0.151082 0
M  V30 5 C 5.018950 0.160910 -0.409948 0
M  V30 6 C 5.441662 -1.165760 -0.339810 0
M  V30 7 C 6.615300 -1.684565 -0.836261 0
M  V30 8 C 7.477264 -0.819207 -1.472963 0
M  V30 9 C 7.132769 0.509061 -1.583075 0
M  V30 10 C 5.942440 0.940120 -1.057863 0
M  V30 11 Cl 5.576647 2.646862 -1.162442 0
M  V30 12 N 0.855104 0.659698 -2.554546 0
M  V30 13 C 0.460687 1.339522 -3.765564 0
M  V30 14 C -0.775269 2.183610 -3.555857 0
M  V30 15 C -2.060256 1.393933 -3.558768 0
M  V30 16 N -1.780383 0.092810 -4.015197 0
M  V30 17 C -2.737534 -0.913273 -3.756400 0
M  V30 18 C -2.977362 -1.092214 -2.299277 0
M  V30 19 C -2.146678 -1.996219 -1.668786 0
M  V30 20 C -2.365635 -2.169787 -0.316584 0
M  V30 21 C -3.343568 -1.519235 0.466599 0
M  V30 22 C -3.469020 -1.837543 1.871286 0
M  V30 23 N -4.664251 -2.403475 2.195239 0
M  V30 24 N -4.680602 -2.714042 3.502796 0
M  V30 25 C -3.511996 -2.353358 4.013684 0
M  V30 26 N -2.790760 -1.821922 3.017522 0
M  V30 27 C -1.487363 -1.286212 3.048099 0
M  V30 28 C -1.322185 -0.375775 2.041458 0
M  V30 29 C -0.077436 0.204020 1.903149 0
M  V30 30 C 0.931507 -0.172585 2.798754 0
M  V30 31 N 0.752931 -1.082680 3.805512 0
M  V30 32 C -0.486711 -1.643933 3.924316 0
M  V30 33 N -0.538534 -2.521760 5.070838 0
M  V30 34 C -1.775140 -2.675269 5.807872 0
M  V30 35 C -1.479119 -2.943144 7.148147 0
M  V30 36 C -2.542322 -3.103763 8.008425 0
M  V30 37 C -3.870065 -3.005954 7.574454 0
M  V30 38 C -4.173007 -2.742773 6.254573 0
M  V30 39 C -3.112803 -2.583450 5.397860 0
M  V30 40 C -4.154800 -0.610158 -0.246520 0
M  V30 41 C -3.956763 -0.417688 -1.600481 0
M  V30 42 C -1.072641 -0.001442 -5.250205 0
M  V30 43 C 0.362713 0.404791 -4.944000 0
M  V30 44 H 1.867771 -0.336615 -0.415519 0
M  V30 45 H 3.544024 -0.239985 0.994202 0
M  V30 46 H 3.750050 1.469785 0.675732 0
M  V30 47 H 4.809658 -1.919460 0.153224 0
M  V30 48 H 6.875562 -2.727030 -0.743889 0
M  V30 49 H 8.423756 -1.114227 -1.901166 0
M  V30 50 H 7.782001 1.216415 -2.074903 0
M  V30 51 H 0.246173 -0.090853 -2.116631 0
M  V30 52 H 1.263884 2.057127 -4.021888 0
M  V30 53 H -0.640747 2.686039 -2.578063 0
M  V30 54 H -0.771073 2.988688 -4.333355 0
M  V30 55 H -2.790425 1.973387 -4.191591 0
M  V30 56 H -2.494628 1.342338 -2.548006 0
M  V30 57 H -2.513307 -1.886561 -4.234918 0
M  V30 58 H -3.717431 -0.602516 -4.178283 0
M  V30 59 H -1.356131 -2.569763 -2.126118 0
M  V30 60 H -1.732770 -2.874799 0.224306 0
M  V30 61 H -1.997257 0.028963 1.336674 0
M  V30 62 H 0.226613 0.939410 1.163015 0
M  V30 63 H 1.922566 0.255433 2.725709 0
M  V30 64 H 0.304063 -3.014738 5.361261 0
M  V30 65 H -0.442435 -3.011044 7.429742 0
M  V30 66 H -2.348854 -3.311766 9.050985 0
M  V30 67 H -4.709648 -3.130615 8.243417 0
M  V30 68 H -5.149017 -2.645692 5.806419 0
M  V30 69 H -4.909768 -0.101171 0.332218 0
M  V30 70 H -4.595618 0.284083 -2.117329 0
M  V30 71 H -1.492763 0.688109 -6.024116 0
M  V30 72 H -1.143225 -1.029280 -5.618490 0
M  V30 73 H 0.775031 0.839710 -5.875887 0
M  V30 74 H 0.937552 -0.529371 -4.723970 0
M  V30 END ATOM
M  V30 BEGIN BOND
M  V30 1 2 1 2
M  V30 2 1 2 3
M  V30 3 1 3 4
M  V30 4 1 4 5
M  V30 5 2 5 6
M  V30 6 1 6 7
M  V30 7 2 7 8
M  V30 8 1 8 9
M  V30 9 2 9 10
M  V30 10 1 10 11
M  V30 11 1 2 12
M  V30 12 1 12 13
M  V30 13 1 13 14
M  V30 14 1 14 15
M  V30 15 1 15 16
M  V30 16 1 16 17
M  V30 17 1 17 18
M  V30 18 2 18 19
M  V30 19 1 19 20
M  V30 20 2 20 21
M  V30 21 1 21 22
M  V30 22 2 22 23
M  V30 23 1 23 24
M  V30 24 2 24 25
M  V30 25 1 25 26
M  V30 26 1 26 27
M  V30 27 2 27 28
M  V30 28 1 28 29
M  V30 29 2 29 30
M  V30 30 1 30 31
M  V30 31 2 31 32
M  V30 32 1 32 33
M  V30 33 1 33 34
M  V30 34 2 34 35
M  V30 35 1 35 36
M  V30 36 2 36 37
M  V30 37 1 37 38
M  V30 38 2 38 39
M  V30 39 1 21 40
M  V30 40 2 40 41
M  V30 41 1 16 42
M  V30 42 1 42 43
M  V30 43 1 10 5
M  V30 44 1 43 13
M  V30 45 1 41 18
M  V30 46 1 26 22
M  V30 47 1 32 27
M  V30 48 1 39 34
M  V30 49 1 39 25
M  V30 50 1 3 44
M  V30 51 1 4 45
M  V30 52 1 4 46
M  V30 53 1 6 47
M  V30 54 1 7 48
M  V30 55 1 8 49
M  V30 56 1 9 50
M  V30 57 1 12 51
M  V30 58 1 13 52
M  V30 59 1 14 53
M  V30 60 1 14 54
M  V30 61 1 15 55
M  V30 62 1 15 56
M  V30 63 1 17 57
M  V30 64 1 17 58
M  V30 65 1 19 59
M  V30 66 1 20 60
M  V30 67 1 28 61
M  V30 68 1 29 62
M  V30 69 1 30 63
M  V30 70 1 33 64
M  V30 71 1 35 65
M  V30 72 1 36 66
M  V30 73 1 37 67
M  V30 74 1 38 68
M  V30 75 1 40 69
M  V30 76 1 41 70
M  V30 77 1 42 71
M  V30 78 1 42 72
M  V30 79 1 43 73
M  V30 80 1 43 74
M  V30 END BOND
M  V30 END CTAB
M  END
>  <Dataset>  (75) 
ChEMBL_Kinases

>  <Ligand_Instance>  (75) 
nan

>  <PDB_ID>  (75) 
nan

>  <Standardized_SMILES>  (75) 
O=C(NCc1ccccc1Cl)NC1CCN(Cc2ccc(-c3nnc4n3-c3cccnc3Nc3ccccc3-4)cc2)CC1

>  <Name>  (75) 
nan

>  <Pocket>  (75) 
nan

>  <ATP_Site>  (75) 
nan

>  <Peripheral>  (75) 
nan

>  <Num_H_Atoms_ProtBoundConf>  (75) 
nan

>  <Num_Resolved_Atoms>  (75) 
nan

>  <Num_Not_Resolved_Atoms>  (75) 
nan

$$$$
CHEMBL3684483
     RDKit          3D

  0  0  0  0  0  0  0  0  0  0999 V3000
M  V30 BEGIN CTAB
M  V30 COUNTS 74 80 0 0 0
M  V30 BEGIN ATOM
M  V30 1 O 2.334648 -0.262108 -5.221357 0
M  V30 2 C 2.314349 -1.168016 -4.360925 0
M  V30 3 N 3.470714 -1.953429 -4.163420 0
M  V30 4 C 4.726198 -1.893955 -4.808778 0
M  V30 5 C 5.713197 -2.767141 -4.424474 0
M  V30 6 C 6.957758 -2.774938 -5.003730 0
M  V30 7 C 7.300415 -1.902121 -6.015277 0
M  V30 8 C 6.333565 -1.014973 -6.422421 0
M  V30 9 C 6.648107 -0.052810 -7.509990 0
M  V30 10 F 5.675825 -0.159376 -8.502281 0
M  V30 11 F 7.850885 -0.372696 -8.102485 0
M  V30 12 F 6.610504 1.215206 -7.012352 0
M  V30 13 C 5.098648 -1.038491 -5.816796 0
M  V30 14 N 1.118627 -1.353157 -3.628818 0
M  V30 15 C -0.054904 -0.497113 -3.883255 0
M  V30 16 C -0.363264 0.234573 -2.630224 0
M  V30 17 C -1.792847 0.291948 -2.217342 0
M  V30 18 N -2.503092 -0.916810 -2.447672 0
M  V30 19 C -2.160385 -2.043220 -1.655002 0
M  V30 20 C -2.324349 -1.905126 -0.208239 0
M  V30 21 C -1.304752 -1.458681 0.607536 0
M  V30 22 C -1.447382 -1.323778 1.972425 0
M  V30 23 C -2.673661 -1.646482 2.596253 0
M  V30 24 C -2.721538 -1.507154 4.035824 0
M  V30 25 N -2.926252 -2.684563 4.682729 0
M  V30 26 N -2.904975 -2.480083 6.012707 0
M  V30 27 C -2.685985 -1.171249 6.213229 0
M  V30 28 N -2.582052 -0.602904 5.002559 0
M  V30 29 C -2.357833 0.750436 4.675607 0
M  V30 30 C -2.865855 1.020376 3.434030 0
M  V30 31 C -2.672078 2.301099 2.956071 0
M  V30 32 C -1.987022 3.214558 3.757893 0
M  V30 33 N -1.482377 2.946764 5.000132 0
M  V30 34 C -1.689234 1.671493 5.446827 0
M  V30 35 N -1.178899 1.533953 6.791869 0
M  V30 36 C -1.821002 0.637037 7.731702 0
M  V30 37 C -1.674114 1.134666 9.031432 0
M  V30 38 C -2.245669 0.404238 10.051137 0
M  V30 39 C -2.936134 -0.770757 9.811188 0
M  V30 40 C -3.095910 -1.284812 8.541356 0
M  V30 41 C -2.526598 -0.557608 7.528005 0
M  V30 42 C -3.717168 -2.102750 1.764813 0
M  V30 43 C -3.520596 -2.219727 0.401742 0
M  V30 44 C -2.482481 -1.207243 -3.846494 0
M  V30 45 C -1.115468 -1.398184 -4.412091 0
M  V30 46 H 3.326838 -2.676161 -3.417323 0
M  V30 47 H 5.509563 -3.487375 -3.628013 0
M  V30 48 H 7.677736 -3.496740 -4.643091 0
M  V30 49 H 8.296006 -1.965459 -6.423689 0
M  V30 50 H 4.387164 -0.317049 -6.182303 0
M  V30 51 H 1.048728 -2.096834 -2.898817 0
M  V30 52 H 0.248753 0.240493 -4.684195 0
M  V30 53 H 0.291765 -0.125323 -1.808116 0
M  V30 54 H -0.032529 1.312411 -2.765757 0
M  V30 55 H -1.815143 0.621311 -1.151257 0
M  V30 56 H -2.285200 1.073268 -2.868582 0
M  V30 57 H -1.103829 -2.308208 -1.860358 0
M  V30 58 H -2.742366 -2.913677 -2.072427 0
M  V30 59 H -0.337021 -1.189827 0.236389 0
M  V30 60 H -0.614566 -0.965277 2.598855 0
M  V30 61 H -3.434508 0.446662 2.753983 0
M  V30 62 H -2.998992 2.687610 2.004931 0
M  V30 63 H -1.806331 4.226409 3.435175 0
M  V30 64 H -0.362312 2.088956 7.091302 0
M  V30 65 H -1.121128 2.055067 9.149994 0
M  V30 66 H -2.142060 0.771740 11.051249 0
M  V30 67 H -3.390598 -1.353925 10.618574 0
M  V30 68 H -3.607851 -2.180477 8.236609 0
M  V30 69 H -4.636209 -2.338368 2.286229 0
M  V30 70 H -4.369823 -2.579743 -0.190463 0
M  V30 71 H -3.063335 -2.128457 -4.104494 0
M  V30 72 H -2.999541 -0.395951 -4.406414 0
M  V30 73 H -0.812877 -2.489488 -4.398846 0
M  V30 74 H -1.213688 -1.195685 -5.521323 0
M  V30 END ATOM
M  V30 BEGIN BOND
M  V30 1 2 1 2
M  V30 2 1 2 3
M  V30 3 1 3 4
M  V30 4 2 4 5
M  V30 5 1 5 6
M  V30 6 2 6 7
M  V30 7 1 7 8
M  V30 8 1 8 9
M  V30 9 1 9 10
M  V30 10 1 9 11
M  V30 11 1 9 12
M  V30 12 2 8 13
M  V30 13 1 2 14
M  V30 14 1 14 15
M  V30 15 1 15 16
M  V30 16 1 16 17
M  V30 17 1 17 18
M  V30 18 1 18 19
M  V30 19 1 19 20
M  V30 20 2 20 21
M  V30 21 1 21 22
M  V30 22 2 22 23
M  V30 23 1 23 24
M  V30 24 2 24 25
M  V30 25 1 25 26
M  V30 26 2 26 27
M  V30 27 1 27 28
M  V30 28 1 28 29
M  V30 29 2 29 30
M  V30 30 1 30 31
M  V30 31 2 31 32
M  V30 32 1 32 33
M  V30 33 2 33 34
M  V30 34 1 34 35
M  V30 35 1 35 36
M  V30 36 2 36 37
M  V30 37 1 37 38
M  V30 38 2 38 39
M  V30 39 1 39 40
M  V30 40 2 40 41
M  V30 41 1 23 42
M  V30 42 2 42 43
M  V30 43 1 18 44
M  V30 44 1 44 45
M  V30 45 1 13 4
M  V30 46 1 45 15
M  V30 47 1 43 20
M  V30 48 1 28 24
M  V30 49 1 34 29
M  V30 50 1 41 36
M  V30 51 1 41 27
M  V30 52 1 3 46
M  V30 53 1 5 47
M  V30 54 1 6 48
M  V30 55 1 7 49
M  V30 56 1 13 50
M  V30 57 1 14 51
M  V30 58 1 15 52
M  V30 59 1 16 53
M  V30 60 1 16 54
M  V30 61 1 17 55
M  V30 62 1 17 56
M  V30 63 1 19 57
M  V30 64 1 19 58
M  V30 65 1 21 59
M  V30 66 1 22 60
M  V30 67 1 30 61
M  V30 68 1 31 62
M  V30 69 1 32 63
M  V30 70 1 35 64
M  V30 71 1 37 65
M  V30 72 1 38 66
M  V30 73 1 39 67
M  V30 74 1 40 68
M  V30 75 1 42 69
M  V30 76 1 43 70
M  V30 77 1 44 71
M  V30 78 1 44 72
M  V30 79 1 45 73
M  V30 80 1 45 74
M  V30 END BOND
M  V30 END CTAB
M  END
>  <Dataset>  (76) 
ChEMBL_Kinases

>  <Ligand_Instance>  (76) 
nan

>  <PDB_ID>  (76) 
nan

>  <Standardized_SMILES>  (76) 
O=C(Nc1cccc(C(F)(F)F)c1)NC1CCN(Cc2ccc(-c3nnc4n3-c3cccnc3Nc3ccccc3-4)cc2)CC1

>  <Name>  (76) 
nan

>  <Pocket>  (76) 
nan

>  <ATP_Site>  (76) 
nan

>  <Peripheral>  (76) 
nan

>  <Num_H_Atoms_ProtBoundConf>  (76) 
nan

>  <Num_Resolved_Atoms>  (76) 
nan

>  <Num_Not_Resolved_Atoms>  (76) 
nan

$$$$
CHEMBL3684484
     RDKit          3D

  0  0  0  0  0  0  0  0  0  0999 V3000
M  V30 BEGIN CTAB
M  V30 COUNTS 76 83 0 0 0
M  V30 BEGIN ATOM
M  V30 1 O -0.855353 -0.087759 5.715488 0
M  V30 2 C -1.019385 -0.603228 4.603068 0
M  V30 3 N -0.338478 -1.746363 4.131349 0
M  V30 4 C 0.648304 -2.643687 4.622016 0
M  V30 5 C 0.158908 -3.753669 5.328466 0
M  V30 6 C 1.076449 -4.683814 5.836257 0
M  V30 7 C 2.449216 -4.496242 5.634178 0
M  V30 8 C 2.886264 -3.396747 4.937028 0
M  V30 9 C 2.018694 -2.463844 4.424930 0
M  V30 10 C 4.371246 -3.511096 4.910782 0
M  V30 11 C 4.727426 -4.663221 5.796456 0
M  V30 12 O 3.482935 -5.304123 6.060493 0
M  V30 13 N -1.914249 -0.130321 3.625421 0
M  V30 14 C -2.781925 1.021171 3.760615 0
M  V30 15 C -4.240975 0.637659 3.593050 0
M  V30 16 C -4.587062 0.540232 2.114437 0
M  V30 17 N -4.473885 1.819859 1.509828 0
M  V30 18 C -4.557937 1.883798 0.094677 0
M  V30 19 C -3.445269 1.119691 -0.533070 0
M  V30 20 C -3.488117 -0.227198 -0.834777 0
M  V30 21 C -2.408215 -0.854258 -1.424033 0
M  V30 22 C -1.229414 -0.148784 -1.737474 0
M  V30 23 C -0.036148 -0.723759 -2.319030 0
M  V30 24 N 0.547808 -1.653404 -1.504374 0
M  V30 25 N 1.671193 -2.105633 -2.083235 0
M  V30 26 C 1.812453 -1.476010 -3.260858 0
M  V30 27 N 0.764418 -0.648527 -3.380311 0
M  V30 28 C 0.448741 0.222324 -4.432963 0
M  V30 29 C -0.898642 0.468583 -4.463581 0
M  V30 30 C -1.386344 1.351665 -5.412029 0
M  V30 31 C -0.441320 1.922921 -6.273465 0
M  V30 32 N 0.895353 1.682647 -6.254204 0
M  V30 33 C 1.331543 0.808826 -5.306752 0
M  V30 34 N 2.756198 0.579256 -5.439060 0
M  V30 35 C 3.349963 -0.705787 -5.104738 0
M  V30 36 C 4.461538 -0.893386 -5.920840 0
M  V30 37 C 5.137878 -2.102314 -5.727571 0
M  V30 38 C 4.704090 -3.014541 -4.788554 0
M  V30 39 C 3.603237 -2.822947 -3.983206 0
M  V30 40 C 2.939576 -1.635521 -4.171928 0
M  V30 41 C -1.156189 1.226376 -1.441847 0
M  V30 42 C -2.271665 1.786915 -0.854024 0
M  V30 43 C -3.670944 2.776993 2.174073 0
M  V30 44 C -2.449436 2.102509 2.754341 0
M  V30 45 H -0.442336 -2.218912 3.196225 0
M  V30 46 H -0.916267 -3.878224 5.473390 0
M  V30 47 H 0.654722 -5.537437 6.381496 0
M  V30 48 H 2.334145 -1.595061 3.873668 0
M  V30 49 H 4.863445 -2.565136 5.214250 0
M  V30 50 H 4.651173 -3.772212 3.867010 0
M  V30 51 H 5.437642 -5.358120 5.299330 0
M  V30 52 H 5.223699 -4.308898 6.716595 0
M  V30 53 H -2.114630 -0.496602 2.669582 0
M  V30 54 H -2.654021 1.427291 4.780180 0
M  V30 55 H -4.843214 1.413764 4.096619 0
M  V30 56 H -4.396399 -0.362821 4.041609 0
M  V30 57 H -5.595726 0.090159 2.041683 0
M  V30 58 H -3.848051 -0.148265 1.657325 0
M  V30 59 H -5.542237 1.569760 -0.314471 0
M  V30 60 H -4.433205 2.950458 -0.208216 0
M  V30 61 H -4.380859 -0.767058 -0.600168 0
M  V30 62 H -2.410916 -1.903157 -1.671784 0
M  V30 63 H -1.704808 0.069010 -3.905019 0
M  V30 64 H -2.415391 1.663587 -5.577058 0
M  V30 65 H -0.726927 2.624806 -7.043691 0
M  V30 66 H 3.346766 1.355690 -5.795244 0
M  V30 67 H 4.733436 -0.138871 -6.622972 0
M  V30 68 H 5.998701 -2.291013 -6.335044 0
M  V30 69 H 5.232799 -3.970220 -4.631989 0
M  V30 70 H 3.200672 -3.481335 -3.231478 0
M  V30 71 H -0.287211 1.832276 -1.654752 0
M  V30 72 H -2.214322 2.844781 -0.626965 0
M  V30 73 H -4.196286 3.362550 2.947232 0
M  V30 74 H -3.284362 3.493267 1.417909 0
M  V30 75 H -1.879407 2.921201 3.282106 0
M  V30 76 H -1.750497 1.739673 1.975068 0
M  V30 END ATOM
M  V30 BEGIN BOND
M  V30 1 2 1 2
M  V30 2 1 2 3
M  V30 3 1 3 4
M  V30 4 2 4 5
M  V30 5 1 5 6
M  V30 6 2 6 7
M  V30 7 1 7 8
M  V30 8 2 8 9
M  V30 9 1 8 10
M  V30 10 1 10 11
M  V30 11 1 11 12
M  V30 12 1 2 13
M  V30 13 1 13 14
M  V30 14 1 14 15
M  V30 15 1 15 16
M  V30 16 1 16 17
M  V30 17 1 17 18
M  V30 18 1 18 19
M  V30 19 2 19 20
M  V30 20 1 20 21
M  V30 21 2 21 22
M  V30 22 1 22 23
M  V30 23 2 23 24
M  V30 24 1 24 25
M  V30 25 2 25 26
M  V30 26 1 26 27
M  V30 27 1 27 28
M  V30 28 2 28 29
M  V30 29 1 29 30
M  V30 30 2 30 31
M  V30 31 1 31 32
M  V30 32 2 32 33
M  V30 33 1 33 34
M  V30 34 1 34 35
M  V30 35 2 35 36
M  V30 36 1 36 37
M  V30 37 2 37 38
M  V30 38 1 38 39
M  V30 39 2 39 40
M  V30 40 1 22 41
M  V30 41 2 41 42
M  V30 42 1 17 43
M  V30 43 1 43 44
M  V30 44 1 9 4
M  V30 45 1 44 14
M  V30 46 1 12 7
M  V30 47 1 42 19
M  V30 48 1 27 23
M  V30 49 1 33 28
M  V30 50 1 40 35
M  V30 51 1 40 26
M  V30 52 1 3 45
M  V30 53 1 5 46
M  V30 54 1 6 47
M  V30 55 1 9 48
M  V30 56 1 10 49
M  V30 57 1 10 50
M  V30 58 1 11 51
M  V30 59 1 11 52
M  V30 60 1 13 53
M  V30 61 1 14 54
M  V30 62 1 15 55
M  V30 63 1 15 56
M  V30 64 1 16 57
M  V30 65 1 16 58
M  V30 66 1 18 59
M  V30 67 1 18 60
M  V30 68 1 20 61
M  V30 69 1 21 62
M  V30 70 1 29 63
M  V30 71 1 30 64
M  V30 72 1 31 65
M  V30 73 1 34 66
M  V30 74 1 36 67
M  V30 75 1 37 68
M  V30 76 1 38 69
M  V30 77 1 39 70
M  V30 78 1 41 71
M  V30 79 1 42 72
M  V30 80 1 43 73
M  V30 81 1 43 74
M  V30 82 1 44 75
M  V30 83 1 44 76
M  V30 END BOND
M  V30 END CTAB
M  END
>  <Dataset>  (77) 
ChEMBL_Kinases

>  <Ligand_Instance>  (77) 
nan

>  <PDB_ID>  (77) 
nan

>  <Standardized_SMILES>  (77) 
O=C(Nc1ccc2c(c1)CCO2)NC1CCN(Cc2ccc(-c3nnc4n3-c3cccnc3Nc3ccccc3-4)cc2)CC1

>  <Name>  (77) 
nan

>  <Pocket>  (77) 
nan

>  <ATP_Site>  (77) 
nan

>  <Peripheral>  (77) 
nan

>  <Num_H_Atoms_ProtBoundConf>  (77) 
nan

>  <Num_Resolved_Atoms>  (77) 
nan

>  <Num_Not_Resolved_Atoms>  (77) 
nan

$$$$
CHEMBL3684485
     RDKit          3D

  0  0  0  0  0  0  0  0  0  0999 V3000
M  V30 BEGIN CTAB
M  V30 COUNTS 71 77 0 0 0
M  V30 BEGIN ATOM
M  V30 1 O 2.628612 0.725656 -0.347892 0
M  V30 2 C 3.319494 1.426049 -1.121722 0
M  V30 3 N 4.138154 2.428476 -0.569348 0
M  V30 4 C 4.339190 2.815714 0.777158 0
M  V30 5 C 5.204982 3.846315 1.054821 0
M  V30 6 C 5.439859 4.265343 2.344919 0
M  V30 7 C 4.833331 3.689807 3.427406 0
M  V30 8 C 3.958043 2.652369 3.186009 0
M  V30 9 Cl 3.142765 1.865018 4.520282 0
M  V30 10 C 3.745900 2.258259 1.883546 0
M  V30 11 N 3.205511 1.135414 -2.485280 0
M  V30 12 C 2.332352 0.081223 -2.958289 0
M  V30 13 C 3.111478 -1.036256 -3.619465 0
M  V30 14 C 2.153651 -2.221592 -3.729857 0
M  V30 15 N 0.981987 -1.763651 -4.353996 0
M  V30 16 C -0.235001 -2.432122 -4.161952 0
M  V30 17 C -0.586331 -2.423810 -2.716515 0
M  V30 18 C -1.328750 -1.347088 -2.280627 0
M  V30 19 C -1.664458 -1.328099 -0.944435 0
M  V30 20 C -1.314173 -2.309521 0.001204 0
M  V30 21 C -1.681502 -2.196317 1.394547 0
M  V30 22 N -0.610400 -2.115524 2.238812 0
M  V30 23 N -1.034002 -1.962222 3.496911 0
M  V30 24 C -2.366691 -1.942731 3.475562 0
M  V30 25 N -2.741500 -2.089005 2.196418 0
M  V30 26 C -4.038537 -2.138728 1.650571 0
M  V30 27 C -4.029499 -2.834715 0.473275 0
M  V30 28 C -5.222578 -2.923749 -0.212916 0
M  V30 29 C -6.348711 -2.303000 0.340775 0
M  V30 30 N -6.359931 -1.609950 1.520193 0
M  V30 31 C -5.160281 -1.542936 2.172221 0
M  V30 32 N -5.323276 -0.854804 3.434412 0
M  V30 33 C -4.506455 -1.214205 4.576734 0
M  V30 34 C -5.232634 -0.991989 5.751462 0
M  V30 35 C -4.608891 -1.298951 6.942833 0
M  V30 36 C -3.317829 -1.805937 6.976697 0
M  V30 37 C -2.584292 -2.031801 5.831869 0
M  V30 38 C -3.204022 -1.726301 4.648842 0
M  V30 39 C -0.559011 -3.365757 -0.537202 0
M  V30 40 C -0.194331 -3.437595 -1.863640 0
M  V30 41 C 0.996133 -0.484341 -4.942947 0
M  V30 42 C 1.285369 0.576741 -3.904758 0
M  V30 43 H 4.662193 2.941549 -1.317939 0
M  V30 44 H 5.716788 4.343256 0.234393 0
M  V30 45 H 6.138345 5.085922 2.472619 0
M  V30 46 H 5.007244 4.007228 4.444228 0
M  V30 47 H 3.051540 1.443492 1.761007 0
M  V30 48 H 3.753784 1.681028 -3.177582 0
M  V30 49 H 1.803827 -0.412796 -2.098594 0
M  V30 50 H 3.432881 -0.731124 -4.633112 0
M  V30 51 H 4.011789 -1.308030 -3.028977 0
M  V30 52 H 2.637849 -3.097529 -4.204834 0
M  V30 53 H 1.927185 -2.487355 -2.660246 0
M  V30 54 H -1.029947 -1.918203 -4.741971 0
M  V30 55 H -0.122263 -3.492368 -4.479239 0
M  V30 56 H -1.680110 -0.510983 -2.868505 0
M  V30 57 H -2.255382 -0.504199 -0.517744 0
M  V30 58 H -3.271532 -3.381454 -0.021803 0
M  V30 59 H -5.389244 -3.430543 -1.151327 0
M  V30 60 H -7.307058 -2.339905 -0.156367 0
M  V30 61 H -6.040078 -0.111939 3.524766 0
M  V30 62 H -6.232484 -0.593469 5.658079 0
M  V30 63 H -5.146339 -1.137752 7.867674 0
M  V30 64 H -2.816055 -2.052235 7.914439 0
M  V30 65 H -1.581787 -2.418793 5.741383 0
M  V30 66 H -0.269799 -4.145360 0.169274 0
M  V30 67 H 0.387934 -4.274266 -2.224200 0
M  V30 68 H 1.768151 -0.428277 -5.752453 0
M  V30 69 H 0.004436 -0.232228 -5.371237 0
M  V30 70 H 0.358470 0.793321 -3.306666 0
M  V30 71 H 1.553211 1.549894 -4.372103 0
M  V30 END ATOM
M  V30 BEGIN BOND
M  V30 1 2 1 2
M  V30 2 1 2 3
M  V30 3 1 3 4
M  V30 4 2 4 5
M  V30 5 1 5 6
M  V30 6 2 6 7
M  V30 7 1 7 8
M  V30 8 1 8 9
M  V30 9 2 8 10
M  V30 10 1 2 11
M  V30 11 1 11 12
M  V30 12 1 12 13
M  V30 13 1 13 14
M  V30 14 1 14 15
M  V30 15 1 15 16
M  V30 16 1 16 17
M  V30 17 2 17 18
M  V30 18 1 18 19
M  V30 19 2 19 20
M  V30 20 1 20 21
M  V30 21 2 21 22
M  V30 22 1 22 23
M  V30 23 2 23 24
M  V30 24 1 24 25
M  V30 25 1 25 26
M  V30 26 2 26 27
M  V30 27 1 27 28
M  V30 28 2 28 29
M  V30 29 1 29 30
M  V30 30 2 30 31
M  V30 31 1 31 32
M  V30 32 1 32 33
M  V30 33 2 33 34
M  V30 34 1 34 35
M  V30 35 2 35 36
M  V30 36 1 36 37
M  V30 37 2 37 38
M  V30 38 1 20 39
M  V30 39 2 39 40
M  V30 40 1 15 41
M  V30 41 1 41 42
M  V30 42 1 10 4
M  V30 43 1 42 12
M  V30 44 1 40 17
M  V30 45 1 25 21
M  V30 46 1 31 26
M  V30 47 1 38 33
M  V30 48 1 38 24
M  V30 49 1 3 43
M  V30 50 1 5 44
M  V30 51 1 6 45
M  V30 52 1 7 46
M  V30 53 1 10 47
M  V30 54 1 11 48
M  V30 55 1 12 49
M  V30 56 1 13 50
M  V30 57 1 13 51
M  V30 58 1 14 52
M  V30 59 1 14 53
M  V30 60 1 16 54
M  V30 61 1 16 55
M  V30 62 1 18 56
M  V30 63 1 19 57
M  V30 64 1 27 58
M  V30 65 1 28 59
M  V30 66 1 29 60
M  V30 67 1 32 61
M  V30 68 1 34 62
M  V30 69 1 35 63
M  V30 70 1 36 64
M  V30 71 1 37 65
M  V30 72 1 39 66
M  V30 73 1 40 67
M  V30 74 1 41 68
M  V30 75 1 41 69
M  V30 76 1 42 70
M  V30 77 1 42 71
M  V30 END BOND
M  V30 END CTAB
M  END
>  <Dataset>  (78) 
ChEMBL_Kinases

>  <Ligand_Instance>  (78) 
nan

>  <PDB_ID>  (78) 
nan

>  <Standardized_SMILES>  (78) 
O=C(Nc1cccc(Cl)c1)NC1CCN(Cc2ccc(-c3nnc4n3-c3cccnc3Nc3ccccc3-4)cc2)CC1

>  <Name>  (78) 
nan

>  <Pocket>  (78) 
nan

>  <ATP_Site>  (78) 
nan

>  <Peripheral>  (78) 
nan

>  <Num_H_Atoms_ProtBoundConf>  (78) 
nan

>  <Num_Resolved_Atoms>  (78) 
nan

>  <Num_Not_Resolved_Atoms>  (78) 
nan

$$$$
CHEMBL3684486
     RDKit          3D

  0  0  0  0  0  0  0  0  0  0999 V3000
M  V30 BEGIN CTAB
M  V30 COUNTS 80 86 0 0 0
M  V30 BEGIN ATOM
M  V30 1 C 3.579609 -4.211734 1.394005 0
M  V30 2 C 2.837670 -3.866510 2.672685 0
M  V30 3 C 2.630270 -2.391164 2.829137 0
M  V30 4 C 3.888313 -1.620620 2.895766 0
M  V30 5 C 5.087594 -2.276555 2.961679 0
M  V30 6 C 6.315414 -1.615727 3.030390 0
M  V30 7 C 6.269846 -0.217175 3.029237 0
M  V30 8 C 5.047285 0.386358 2.962250 0
M  V30 9 C 3.830838 -0.243665 2.894387 0
M  V30 10 N 2.563112 0.377086 2.824687 0
M  V30 11 C 2.236520 1.750765 2.795622 0
M  V30 12 O 3.149493 2.595396 2.834734 0
M  V30 13 N 0.932883 2.266233 2.724220 0
M  V30 14 C 0.658966 3.688928 2.696122 0
M  V30 15 C -0.324790 4.094226 3.766575 0
M  V30 16 C -1.746903 4.090147 3.265459 0
M  V30 17 N -1.991631 3.174399 2.211702 0
M  V30 18 C -2.819314 2.069717 2.434632 0
M  V30 19 C -3.023450 1.148128 1.291454 0
M  V30 20 C -4.047119 1.310811 0.377611 0
M  V30 21 C -4.190391 0.421013 -0.671229 0
M  V30 22 C -3.315419 -0.668291 -0.849363 0
M  V30 23 C -3.420099 -1.655918 -1.899166 0
M  V30 24 N -4.582165 -2.362012 -1.869486 0
M  V30 25 N -4.577248 -3.293045 -2.843965 0
M  V30 26 C -3.409545 -3.182621 -3.498085 0
M  V30 27 N -2.730479 -2.185047 -2.910640 0
M  V30 28 C -1.455962 -1.675929 -3.230797 0
M  V30 29 C -1.352446 -0.372944 -2.827312 0
M  V30 30 C -0.134902 0.245681 -3.024810 0
M  V30 31 C 0.899784 -0.487876 -3.618863 0
M  V30 32 N 0.786803 -1.791129 -4.024239 0
M  V30 33 C -0.422141 -2.371648 -3.816751 0
M  V30 34 N -0.429692 -3.712525 -4.358119 0
M  V30 35 C -1.645028 -4.281095 -4.904593 0
M  V30 36 C -1.324709 -5.177364 -5.932595 0
M  V30 37 C -2.373215 -5.795140 -6.573566 0
M  V30 38 C -3.687299 -5.550090 -6.227356 0
M  V30 39 C -4.040733 -4.675059 -5.220444 0
M  V30 40 C -2.992248 -4.063235 -4.584978 0
M  V30 41 C -2.298698 -0.758401 0.130389 0
M  V30 42 C -2.123059 0.107635 1.189398 0
M  V30 43 C -1.189578 3.256276 1.064785 0
M  V30 44 C 0.092806 4.029197 1.331046 0
M  V30 45 H 2.799357 -4.589304 0.675443 0
M  V30 46 H 4.272652 -5.049050 1.580330 0
M  V30 47 H 4.023809 -3.342331 0.893059 0
M  V30 48 H 1.848237 -4.365941 2.704979 0
M  V30 49 H 3.408233 -4.297530 3.520169 0
M  V30 50 H 2.053104 -2.009266 1.943742 0
M  V30 51 H 2.004808 -2.220587 3.722011 0
M  V30 52 H 5.214088 -3.343002 2.972783 0
M  V30 53 H 7.269731 -2.108824 3.082299 0
M  V30 54 H 7.202948 0.331460 3.080928 0
M  V30 55 H 5.093660 1.457156 2.966710 0
M  V30 56 H 1.700322 -0.207600 2.788511 0
M  V30 57 H 0.122704 1.605237 2.689953 0
M  V30 58 H 1.634401 4.208246 2.765896 0
M  V30 59 H -0.080131 5.131523 4.069099 0
M  V30 60 H -0.187400 3.474965 4.693751 0
M  V30 61 H -2.417226 3.894463 4.102726 0
M  V30 62 H -1.971955 5.108050 2.876941 0
M  V30 63 H -2.465058 1.490818 3.314289 0
M  V30 64 H -3.846892 2.431839 2.729218 0
M  V30 65 H -4.743286 2.139242 0.479432 0
M  V30 66 H -4.987661 0.506979 -1.423430 0
M  V30 67 H -2.057942 0.301343 -2.416959 0
M  V30 68 H 0.118938 1.263224 -2.765666 0
M  V30 69 H 1.867145 -0.034206 -3.786045 0
M  V30 70 H 0.445204 -4.267356 -4.371059 0
M  V30 71 H -0.276993 -5.324439 -6.150778 0
M  V30 72 H -2.139376 -6.490919 -7.369776 0
M  V30 73 H -4.523855 -6.040414 -6.737039 0
M  V30 74 H -5.016252 -4.411513 -4.870165 0
M  V30 75 H -1.619257 -1.614023 -0.017019 0
M  V30 76 H -1.294915 -0.122003 1.830855 0
M  V30 77 H -1.727073 3.821193 0.268045 0
M  V30 78 H -0.891879 2.292280 0.613975 0
M  V30 79 H 0.843555 3.721837 0.575741 0
M  V30 80 H -0.063272 5.120429 1.209250 0
M  V30 END ATOM
M  V30 BEGIN BOND
M  V30 1 1 1 2
M  V30 2 1 2 3
M  V30 3 1 3 4
M  V30 4 2 4 5
M  V30 5 1 5 6
M  V30 6 2 6 7
M  V30 7 1 7 8
M  V30 8 2 8 9
M  V30 9 1 9 10
M  V30 10 1 10 11
M  V30 11 2 11 12
M  V30 12 1 11 13
M  V30 13 1 13 14
M  V30 14 1 14 15
M  V30 15 1 15 16
M  V30 16 1 16 17
M  V30 17 1 17 18
M  V30 18 1 18 19
M  V30 19 2 19 20
M  V30 20 1 20 21
M  V30 21 2 21 22
M  V30 22 1 22 23
M  V30 23 2 23 24
M  V30 24 1 24 25
M  V30 25 2 25 26
M  V30 26 1 26 27
M  V30 27 1 27 28
M  V30 28 2 28 29
M  V30 29 1 29 30
M  V30 30 2 30 31
M  V30 31 1 31 32
M  V30 32 2 32 33
M  V30 33 1 33 34
M  V30 34 1 34 35
M  V30 35 2 35 36
M  V30 36 1 36 37
M  V30 37 2 37 38
M  V30 38 1 38 39
M  V30 39 2 39 40
M  V30 40 1 22 41
M  V30 41 2 41 42
M  V30 42 1 17 43
M  V30 43 1 43 44
M  V30 44 1 9 4
M  V30 45 1 44 14
M  V30 46 1 42 19
M  V30 47 1 27 23
M  V30 48 1 33 28
M  V30 49 1 40 35
M  V30 50 1 40 26
M  V30 51 1 1 45
M  V30 52 1 1 46
M  V30 53 1 1 47
M  V30 54 1 2 48
M  V30 55 1 2 49
M  V30 56 1 3 50
M  V30 57 1 3 51
M  V30 58 1 5 52
M  V30 59 1 6 53
M  V30 60 1 7 54
M  V30 61 1 8 55
M  V30 62 1 10 56
M  V30 63 1 13 57
M  V30 64 1 14 58
M  V30 65 1 15 59
M  V30 66 1 15 60
M  V30 67 1 16 61
M  V30 68 1 16 62
M  V30 69 1 18 63
M  V30 70 1 18 64
M  V30 71 1 20 65
M  V30 72 1 21 66
M  V30 73 1 29 67
M  V30 74 1 30 68
M  V30 75 1 31 69
M  V30 76 1 34 70
M  V30 77 1 36 71
M  V30 78 1 37 72
M  V30 79 1 38 73
M  V30 80 1 39 74
M  V30 81 1 41 75
M  V30 82 1 42 76
M  V30 83 1 43 77
M  V30 84 1 43 78
M  V30 85 1 44 79
M  V30 86 1 44 80
M  V30 END BOND
M  V30 END CTAB
M  END
>  <Dataset>  (79) 
ChEMBL_Kinases

>  <Ligand_Instance>  (79) 
nan

>  <PDB_ID>  (79) 
nan

>  <Standardized_SMILES>  (79) 
CCCc1ccccc1NC(=O)NC1CCN(Cc2ccc(-c3nnc4n3-c3cccnc3Nc3ccccc3-4)cc2)CC1

>  <Name>  (79) 
nan

>  <Pocket>  (79) 
nan

>  <ATP_Site>  (79) 
nan

>  <Peripheral>  (79) 
nan

>  <Num_H_Atoms_ProtBoundConf>  (79) 
nan

>  <Num_Resolved_Atoms>  (79) 
nan

>  <Num_Not_Resolved_Atoms>  (79) 
nan

$$$$
CHEMBL3684487
     RDKit          3D

  0  0  0  0  0  0  0  0  0  0999 V3000
M  V30 BEGIN CTAB
M  V30 COUNTS 71 77 0 0 0
M  V30 BEGIN ATOM
M  V30 1 O 2.475153 0.999022 -0.282077 0
M  V30 2 C 3.130476 1.805874 -1.024790 0
M  V30 3 N 3.899015 2.875365 -0.490362 0
M  V30 4 C 3.967778 3.090741 0.931548 0
M  V30 5 C 5.041765 2.371568 1.462771 0
M  V30 6 C 5.313750 2.421497 2.828757 0
M  V30 7 C 4.481874 3.207106 3.630203 0
M  V30 8 C 3.428235 3.907745 3.082762 0
M  V30 9 F 2.585122 4.689262 3.817571 0
M  V30 10 C 3.154027 3.863225 1.736484 0
M  V30 11 N 3.012566 1.529111 -2.392096 0
M  V30 12 C 2.224582 0.434492 -2.925323 0
M  V30 13 C 3.082759 -0.585640 -3.636035 0
M  V30 14 C 2.207197 -1.835082 -3.813398 0
M  V30 15 N 1.011465 -1.423988 -4.420182 0
M  V30 16 C -0.160930 -2.185314 -4.258244 0
M  V30 17 C -0.494014 -2.255134 -2.808412 0
M  V30 18 C -1.287916 -1.252347 -2.293551 0
M  V30 19 C -1.596233 -1.324475 -0.952564 0
M  V30 20 C -1.170007 -2.332409 -0.068696 0
M  V30 21 C -1.524872 -2.294298 1.332038 0
M  V30 22 N -0.445603 -2.182704 2.161412 0
M  V30 23 N -0.862020 -2.102070 3.432224 0
M  V30 24 C -2.202947 -2.160658 3.431103 0
M  V30 25 N -2.577853 -2.280079 2.149938 0
M  V30 26 C -3.876513 -2.385965 1.614801 0
M  V30 27 C -3.843236 -3.034263 0.410846 0
M  V30 28 C -5.039258 -3.165184 -0.262835 0
M  V30 29 C -6.196203 -2.636634 0.319686 0
M  V30 30 N -6.224554 -1.994022 1.523656 0
M  V30 31 C -5.026212 -1.878938 2.168608 0
M  V30 32 N -5.215650 -1.251039 3.457441 0
M  V30 33 C -4.367731 -1.603455 4.578239 0
M  V30 34 C -5.088394 -1.470252 5.768082 0
M  V30 35 C -4.425140 -1.785833 6.935300 0
M  V30 36 C -3.104386 -2.216506 6.941786 0
M  V30 37 C -2.378995 -2.352736 5.776909 0
M  V30 38 C -3.036803 -2.039135 4.619793 0
M  V30 39 C -0.365902 -3.317286 -0.666484 0
M  V30 40 C -0.030138 -3.289259 -2.001968 0
M  V30 41 C 0.916276 -0.114308 -4.939773 0
M  V30 42 C 1.139192 0.904867 -3.843530 0
M  V30 43 H 4.412831 3.499623 -1.177225 0
M  V30 44 H 5.733348 1.745338 0.940160 0
M  V30 45 H 6.118448 1.901051 3.325212 0
M  V30 46 H 4.659280 3.274973 4.708560 0
M  V30 47 H 2.370340 4.356572 1.182270 0
M  V30 48 H 3.509259 2.128605 -3.088030 0
M  V30 49 H 1.731485 -0.137017 -2.089677 0
M  V30 50 H 3.383351 -0.203129 -4.616963 0
M  V30 51 H 4.004117 -0.826727 -3.070245 0
M  V30 52 H 2.778643 -2.613269 -4.361568 0
M  V30 53 H 2.019424 -2.187997 -2.776670 0
M  V30 54 H -1.036927 -1.715632 -4.779082 0
M  V30 55 H -0.018383 -3.218008 -4.645548 0
M  V30 56 H -1.680506 -0.419843 -2.870614 0
M  V30 57 H -2.230408 -0.525817 -0.535660 0
M  V30 58 H -3.061135 -3.515812 -0.113110 0
M  V30 59 H -5.200371 -3.645596 -1.225493 0
M  V30 60 H -7.151663 -2.717834 -0.179329 0
M  V30 61 H -5.973714 -0.556344 3.583822 0
M  V30 62 H -6.110923 -1.128636 5.698289 0
M  V30 63 H -4.964153 -1.690355 7.872162 0
M  V30 64 H -2.585709 -2.464358 7.862376 0
M  V30 65 H -1.357630 -2.675160 5.664046 0
M  V30 66 H -0.016786 -4.118695 -0.002516 0
M  V30 67 H 0.593071 -4.076369 -2.411536 0
M  V30 68 H 1.700495 0.055134 -5.721543 0
M  V30 69 H -0.066191 0.031829 -5.437147 0
M  V30 70 H 0.208589 1.053711 -3.224471 0
M  V30 71 H 1.339373 1.909470 -4.272509 0
M  V30 END ATOM
M  V30 BEGIN BOND
M  V30 1 2 1 2
M  V30 2 1 2 3
M  V30 3 1 3 4
M  V30 4 2 4 5
M  V30 5 1 5 6
M  V30 6 2 6 7
M  V30 7 1 7 8
M  V30 8 1 8 9
M  V30 9 2 8 10
M  V30 10 1 2 11
M  V30 11 1 11 12
M  V30 12 1 12 13
M  V30 13 1 13 14
M  V30 14 1 14 15
M  V30 15 1 15 16
M  V30 16 1 16 17
M  V30 17 2 17 18
M  V30 18 1 18 19
M  V30 19 2 19 20
M  V30 20 1 20 21
M  V30 21 2 21 22
M  V30 22 1 22 23
M  V30 23 2 23 24
M  V30 24 1 24 25
M  V30 25 1 25 26
M  V30 26 2 26 27
M  V30 27 1 27 28
M  V30 28 2 28 29
M  V30 29 1 29 30
M  V30 30 2 30 31
M  V30 31 1 31 32
M  V30 32 1 32 33
M  V30 33 2 33 34
M  V30 34 1 34 35
M  V30 35 2 35 36
M  V30 36 1 36 37
M  V30 37 2 37 38
M  V30 38 1 20 39
M  V30 39 2 39 40
M  V30 40 1 15 41
M  V30 41 1 41 42
M  V30 42 1 10 4
M  V30 43 1 42 12
M  V30 44 1 40 17
M  V30 45 1 25 21
M  V30 46 1 31 26
M  V30 47 1 38 33
M  V30 48 1 38 24
M  V30 49 1 3 43
M  V30 50 1 5 44
M  V30 51 1 6 45
M  V30 52 1 7 46
M  V30 53 1 10 47
M  V30 54 1 11 48
M  V30 55 1 12 49
M  V30 56 1 13 50
M  V30 57 1 13 51
M  V30 58 1 14 52
M  V30 59 1 14 53
M  V30 60 1 16 54
M  V30 61 1 16 55
M  V30 62 1 18 56
M  V30 63 1 19 57
M  V30 64 1 27 58
M  V30 65 1 28 59
M  V30 66 1 29 60
M  V30 67 1 32 61
M  V30 68 1 34 62
M  V30 69 1 35 63
M  V30 70 1 36 64
M  V30 71 1 37 65
M  V30 72 1 39 66
M  V30 73 1 40 67
M  V30 74 1 41 68
M  V30 75 1 41 69
M  V30 76 1 42 70
M  V30 77 1 42 71
M  V30 END BOND
M  V30 END CTAB
M  END
>  <Dataset>  (80) 
ChEMBL_Kinases

>  <Ligand_Instance>  (80) 
nan

>  <PDB_ID>  (80) 
nan

>  <Standardized_SMILES>  (80) 
O=C(Nc1cccc(F)c1)NC1CCN(Cc2ccc(-c3nnc4n3-c3cccnc3Nc3ccccc3-4)cc2)CC1

>  <Name>  (80) 
nan

>  <Pocket>  (80) 
nan

>  <ATP_Site>  (80) 
nan

>  <Peripheral>  (80) 
nan

>  <Num_H_Atoms_ProtBoundConf>  (80) 
nan

>  <Num_Resolved_Atoms>  (80) 
nan

>  <Num_Not_Resolved_Atoms>  (80) 
nan

$$$$
CHEMBL3684488
     RDKit          3D

  0  0  0  0  0  0  0  0  0  0999 V3000
M  V30 BEGIN CTAB
M  V30 COUNTS 74 80 0 0 0
M  V30 BEGIN ATOM
M  V30 1 C 3.829608 -5.447818 0.418706 0
M  V30 2 C 5.191411 -5.112068 -0.089263 0
M  V30 3 C 6.173150 -6.001964 0.282274 0
M  V30 4 C 7.478972 -5.778004 -0.140600 0
M  V30 5 C 7.723841 -4.669192 -0.914809 0
M  V30 6 C 6.744543 -3.778719 -1.287129 0
M  V30 7 C 5.451339 -3.997536 -0.870372 0
M  V30 8 N 4.281339 -3.198297 -1.142760 0
M  V30 9 C 3.506856 -3.496786 -2.320616 0
M  V30 10 O 4.000577 -4.474123 -2.979733 0
M  V30 11 N 2.336269 -2.782863 -2.693734 0
M  V30 12 C 1.727958 -3.262405 -3.916780 0
M  V30 13 C 1.615201 -2.185928 -4.973890 0
M  V30 14 C 0.495419 -1.229070 -4.681205 0
M  V30 15 N 0.090112 -1.241354 -3.294038 0
M  V30 16 C -0.978133 -0.303490 -3.195440 0
M  V30 17 C -1.571566 -0.099061 -1.879475 0
M  V30 18 C -2.683259 -0.696143 -1.332667 0
M  V30 19 C -3.171258 -0.452053 -0.067874 0
M  V30 20 C -2.487608 0.479673 0.737363 0
M  V30 21 C -2.933411 0.752467 2.087248 0
M  V30 22 N -2.922484 -0.335352 2.892223 0
M  V30 23 N -3.295864 0.001983 4.135314 0
M  V30 24 C -3.545680 1.313264 4.120943 0
M  V30 25 N -3.325734 1.755380 2.873939 0
M  V30 26 C -3.454202 3.057350 2.350106 0
M  V30 27 C -3.694196 2.996741 1.004316 0
M  V30 28 C -3.787461 4.200919 0.335870 0
M  V30 29 C -3.633223 5.378568 1.079787 0
M  V30 30 N -3.397924 5.424598 2.425223 0
M  V30 31 C -3.311948 4.233721 3.052195 0
M  V30 32 N -3.141482 4.419536 4.477006 0
M  V30 33 C -3.691856 3.465383 5.420430 0
M  V30 34 C -4.036330 4.131515 6.603042 0
M  V30 35 C -4.593143 3.369200 7.604546 0
M  V30 36 C -4.804972 2.004114 7.453466 0
M  V30 37 C -4.474335 1.332169 6.304215 0
M  V30 38 C -3.917249 2.086884 5.300027 0
M  V30 39 C -1.348962 1.092814 0.179769 0
M  V30 40 C -0.885558 0.824666 -1.094473 0
M  V30 41 C -0.268910 -2.506099 -2.776817 0
M  V30 42 C 0.302518 -3.640989 -3.596859 0
M  V30 43 H 3.940163 -5.637327 1.519589 0
M  V30 44 H 3.362560 -6.280789 -0.104798 0
M  V30 45 H 3.176685 -4.552357 0.316317 0
M  V30 46 H 6.015865 -6.886082 0.891205 0
M  V30 47 H 8.298288 -6.452622 0.124502 0
M  V30 48 H 8.729997 -4.472210 -1.256623 0
M  V30 49 H 6.867602 -2.893345 -1.890213 0
M  V30 50 H 3.949014 -2.402166 -0.533983 0
M  V30 51 H 2.005106 -2.004355 -2.104349 0
M  V30 52 H 2.297343 -4.100444 -4.360121 0
M  V30 53 H 1.528585 -2.677698 -5.949280 0
M  V30 54 H 2.562375 -1.608985 -4.965561 0
M  V30 55 H 0.789119 -0.205058 -4.979508 0
M  V30 56 H -0.383045 -1.516244 -5.289217 0
M  V30 57 H -1.823741 -0.552434 -3.907813 0
M  V30 58 H -0.585639 0.665424 -3.632973 0
M  V30 59 H -3.221775 -1.395297 -1.926861 0
M  V30 60 H -4.049256 -0.962452 0.285172 0
M  V30 61 H -3.873910 2.189493 0.346599 0
M  V30 62 H -3.970272 4.379835 -0.727792 0
M  V30 63 H -3.693151 6.347289 0.616819 0
M  V30 64 H -2.635680 5.250737 4.821802 0
M  V30 65 H -3.843058 5.191554 6.654902 0
M  V30 66 H -4.867929 3.860822 8.526805 0
M  V30 67 H -5.246704 1.400113 8.246009 0
M  V30 68 H -4.591324 0.286829 6.077842 0
M  V30 69 H -0.838658 1.811582 0.827560 0
M  V30 70 H 0.014528 1.379105 -1.395215 0
M  V30 71 H -1.366952 -2.583120 -2.679518 0
M  V30 72 H 0.115154 -2.648434 -1.725165 0
M  V30 73 H -0.296288 -3.793870 -4.534580 0
M  V30 74 H 0.278844 -4.584326 -2.989563 0
M  V30 END ATOM
M  V30 BEGIN BOND
M  V30 1 1 1 2
M  V30 2 2 2 3
M  V30 3 1 3 4
M  V30 4 2 4 5
M  V30 5 1 5 6
M  V30 6 2 6 7
M  V30 7 1 7 8
M  V30 8 1 8 9
M  V30 9 2 9 10
M  V30 10 1 9 11
M  V30 11 1 11 12
M  V30 12 1 12 13
M  V30 13 1 13 14
M  V30 14 1 14 15
M  V30 15 1 15 16
M  V30 16 1 16 17
M  V30 17 2 17 18
M  V30 18 1 18 19
M  V30 19 2 19 20
M  V30 20 1 20 21
M  V30 21 2 21 22
M  V30 22 1 22 23
M  V30 23 2 23 24
M  V30 24 1 24 25
M  V30 25 1 25 26
M  V30 26 2 26 27
M  V30 27 1 27 28
M  V30 28 2 28 29
M  V30 29 1 29 30
M  V30 30 2 30 31
M  V30 31 1 31 32
M  V30 32 1 32 33
M  V30 33 2 33 34
M  V30 34 1 34 35
M  V30 35 2 35 36
M  V30 36 1 36 37
M  V30 37 2 37 38
M  V30 38 1 20 39
M  V30 39 2 39 40
M  V30 40 1 15 41
M  V30 41 1 41 42
M  V30 42 1 7 2
M  V30 43 1 42 12
M  V30 44 1 40 17
M  V30 45 1 25 21
M  V30 46 1 31 26
M  V30 47 1 38 33
M  V30 48 1 38 24
M  V30 49 1 1 43
M  V30 50 1 1 44
M  V30 51 1 1 45
M  V30 52 1 3 46
M  V30 53 1 4 47
M  V30 54 1 5 48
M  V30 55 1 6 49
M  V30 56 1 8 50
M  V30 57 1 11 51
M  V30 58 1 12 52
M  V30 59 1 13 53
M  V30 60 1 13 54
M  V30 61 1 14 55
M  V30 62 1 14 56
M  V30 63 1 16 57
M  V30 64 1 16 58
M  V30 65 1 18 59
M  V30 66 1 19 60
M  V30 67 1 27 61
M  V30 68 1 28 62
M  V30 69 1 29 63
M  V30 70 1 32 64
M  V30 71 1 34 65
M  V30 72 1 35 66
M  V30 73 1 36 67
M  V30 74 1 37 68
M  V30 75 1 39 69
M  V30 76 1 40 70
M  V30 77 1 41 71
M  V30 78 1 41 72
M  V30 79 1 42 73
M  V30 80 1 42 74
M  V30 END BOND
M  V30 END CTAB
M  END
>  <Dataset>  (81) 
ChEMBL_Kinases

>  <Ligand_Instance>  (81) 
nan

>  <PDB_ID>  (81) 
nan

>  <Standardized_SMILES>  (81) 
Cc1ccccc1NC(=O)NC1CCN(Cc2ccc(-c3nnc4n3-c3cccnc3Nc3ccccc3-4)cc2)CC1

>  <Name>  (81) 
nan

>  <Pocket>  (81) 
nan

>  <ATP_Site>  (81) 
nan

>  <Peripheral>  (81) 
nan

>  <Num_H_Atoms_ProtBoundConf>  (81) 
nan

>  <Num_Resolved_Atoms>  (81) 
nan

>  <Num_Not_Resolved_Atoms>  (81) 
nan

$$$$
CHEMBL3684489
     RDKit          3D

  0  0  0  0  0  0  0  0  0  0999 V3000
M  V30 BEGIN CTAB
M  V30 COUNTS 77 83 0 0 0
M  V30 BEGIN ATOM
M  V30 1 O 5.850251 0.981335 2.133079 0
M  V30 2 C 4.845837 0.266137 2.171383 0
M  V30 3 N 4.770777 -1.131453 2.493566 0
M  V30 4 C 6.000854 -1.796120 2.810516 0
M  V30 5 C 6.727430 -1.220569 4.004051 0
M  V30 6 C 7.999816 -1.991711 4.242824 0
M  V30 7 C 8.003801 -3.097068 5.069921 0
M  V30 8 C 9.202059 -3.780112 5.261613 0
M  V30 9 C 10.359329 -3.356629 4.635340 0
M  V30 10 Cl 11.776914 -4.301088 4.964816 0
M  V30 11 C 10.380459 -2.240602 3.793536 0
M  V30 12 C 9.171518 -1.596657 3.633929 0
M  V30 13 N 3.621515 0.917720 1.855705 0
M  V30 14 C 3.247790 2.238021 1.491551 0
M  V30 15 C 2.570858 2.365041 0.155515 0
M  V30 16 C 1.360620 1.441329 0.060529 0
M  V30 17 N 0.567086 1.595200 1.214768 0
M  V30 18 C -0.307813 0.587629 1.615921 0
M  V30 19 C -1.299315 0.313823 0.542178 0
M  V30 20 C -2.491444 0.999779 0.454587 0
M  V30 21 C -3.332528 0.674515 -0.557989 0
M  V30 22 C -3.072937 -0.315848 -1.526855 0
M  V30 23 C -3.918348 -0.678577 -2.641576 0
M  V30 24 N -3.318670 -0.480490 -3.847461 0
M  V30 25 N -4.180740 -0.791928 -4.827948 0
M  V30 26 C -5.331662 -1.189131 -4.261249 0
M  V30 27 N -5.141107 -1.112979 -2.936740 0
M  V30 28 C -6.037908 -1.424000 -1.894938 0
M  V30 29 C -5.353768 -1.758887 -0.758764 0
M  V30 30 C -6.101980 -2.035844 0.366040 0
M  V30 31 C -7.491202 -1.961747 0.278809 0
M  V30 32 N -8.164051 -1.629734 -0.864020 0
M  V30 33 C -7.414036 -1.362272 -1.954484 0
M  V30 34 N -8.263915 -1.105137 -3.096807 0
M  V30 35 C -7.825789 -1.471059 -4.429703 0
M  V30 36 C -8.929473 -1.797692 -5.218718 0
M  V30 37 C -8.685677 -2.187717 -6.519226 0
M  V30 38 C -7.395374 -2.254762 -7.029354 0
M  V30 39 C -6.286993 -1.938481 -6.276922 0
M  V30 40 C -6.543255 -1.552074 -4.987097 0
M  V30 41 C -1.831926 -0.964917 -1.359422 0
M  V30 42 C -0.938571 -0.672906 -0.346856 0
M  V30 43 C 0.858831 2.651883 2.089157 0
M  V30 44 C 2.297013 2.772849 2.536747 0
M  V30 45 H 3.844313 -1.632363 2.492437 0
M  V30 46 H 6.741552 -1.765425 1.969289 0
M  V30 47 H 5.780527 -2.873660 2.953518 0
M  V30 48 H 6.080886 -1.396607 4.893641 0
M  V30 49 H 6.885298 -0.147542 3.913248 0
M  V30 50 H 7.053762 -3.355385 5.516860 0
M  V30 51 H 9.166879 -4.634331 5.911431 0
M  V30 52 H 11.305559 -1.939738 3.321243 0
M  V30 53 H 9.152630 -0.727762 2.987545 0
M  V30 54 H 2.709342 0.366945 1.867995 0
M  V30 55 H 4.120477 2.927053 1.457581 0
M  V30 56 H 2.159636 3.397685 0.129227 0
M  V30 57 H 3.246451 2.283729 -0.715975 0
M  V30 58 H 1.674777 0.382311 -0.038768 0
M  V30 59 H 0.749578 1.674715 -0.833763 0
M  V30 60 H -0.829036 0.909832 2.542090 0
M  V30 61 H 0.257098 -0.338397 1.885310 0
M  V30 62 H -2.745975 1.767770 1.166239 0
M  V30 63 H -4.307881 1.161896 -0.717025 0
M  V30 64 H -4.322221 -1.897606 -0.570933 0
M  V30 65 H -5.735709 -2.317196 1.357286 0
M  V30 66 H -8.124746 -2.162215 1.114710 0
M  V30 67 H -9.180465 -0.681020 -2.966216 0
M  V30 68 H -9.900571 -1.720809 -4.760652 0
M  V30 69 H -9.529278 -2.444551 -7.145386 0
M  V30 70 H -7.202459 -2.564796 -8.060873 0
M  V30 71 H -5.251090 -1.957360 -6.577422 0
M  V30 72 H -1.603985 -1.740586 -2.099065 0
M  V30 73 H -0.035126 -1.257019 -0.354780 0
M  V30 74 H 0.595806 3.653004 1.663402 0
M  V30 75 H 0.182764 2.544345 2.984861 0
M  V30 76 H 2.419485 2.147044 3.451715 0
M  V30 77 H 2.549187 3.817983 2.826956 0
M  V30 END ATOM
M  V30 BEGIN BOND
M  V30 1 2 1 2
M  V30 2 1 2 3
M  V30 3 1 3 4
M  V30 4 1 4 5
M  V30 5 1 5 6
M  V30 6 2 6 7
M  V30 7 1 7 8
M  V30 8 2 8 9
M  V30 9 1 9 10
M  V30 10 1 9 11
M  V30 11 2 11 12
M  V30 12 1 2 13
M  V30 13 1 13 14
M  V30 14 1 14 15
M  V30 15 1 15 16
M  V30 16 1 16 17
M  V30 17 1 17 18
M  V30 18 1 18 19
M  V30 19 2 19 20
M  V30 20 1 20 21
M  V30 21 2 21 22
M  V30 22 1 22 23
M  V30 23 2 23 24
M  V30 24 1 24 25
M  V30 25 2 25 26
M  V30 26 1 26 27
M  V30 27 1 27 28
M  V30 28 2 28 29
M  V30 29 1 29 30
M  V30 30 2 30 31
M  V30 31 1 31 32
M  V30 32 2 32 33
M  V30 33 1 33 34
M  V30 34 1 34 35
M  V30 35 2 35 36
M  V30 36 1 36 37
M  V30 37 2 37 38
M  V30 38 1 38 39
M  V30 39 2 39 40
M  V30 40 1 22 41
M  V30 41 2 41 42
M  V30 42 1 17 43
M  V30 43 1 43 44
M  V30 44 1 12 6
M  V30 45 1 44 14
M  V30 46 1 42 19
M  V30 47 1 27 23
M  V30 48 1 33 28
M  V30 49 1 40 35
M  V30 50 1 40 26
M  V30 51 1 3 45
M  V30 52 1 4 46
M  V30 53 1 4 47
M  V30 54 1 5 48
M  V30 55 1 5 49
M  V30 56 1 7 50
M  V30 57 1 8 51
M  V30 58 1 11 52
M  V30 59 1 12 53
M  V30 60 1 13 54
M  V30 61 1 14 55
M  V30 62 1 15 56
M  V30 63 1 15 57
M  V30 64 1 16 58
M  V30 65 1 16 59
M  V30 66 1 18 60
M  V30 67 1 18 61
M  V30 68 1 20 62
M  V30 69 1 21 63
M  V30 70 1 29 64
M  V30 71 1 30 65
M  V30 72 1 31 66
M  V30 73 1 34 67
M  V30 74 1 36 68
M  V30 75 1 37 69
M  V30 76 1 38 70
M  V30 77 1 39 71
M  V30 78 1 41 72
M  V30 79 1 42 73
M  V30 80 1 43 74
M  V30 81 1 43 75
M  V30 82 1 44 76
M  V30 83 1 44 77
M  V30 END BOND
M  V30 END CTAB
M  END
>  <Dataset>  (82) 
ChEMBL_Kinases

>  <Ligand_Instance>  (82) 
nan

>  <PDB_ID>  (82) 
nan

>  <Standardized_SMILES>  (82) 
O=C(NCCc1ccc(Cl)cc1)NC1CCN(Cc2ccc(-c3nnc4n3-c3cccnc3Nc3ccccc3-4)cc2)CC1

>  <Name>  (82) 
nan

>  <Pocket>  (82) 
nan

>  <ATP_Site>  (82) 
nan

>  <Peripheral>  (82) 
nan

>  <Num_H_Atoms_ProtBoundConf>  (82) 
nan

>  <Num_Resolved_Atoms>  (82) 
nan

>  <Num_Not_Resolved_Atoms>  (82) 
nan

$$$$
CHEMBL3684481
     RDKit          3D

  0  0  0  0  0  0  0  0  0  0999 V3000
M  V30 BEGIN CTAB
M  V30 COUNTS 75 81 0 0 0
M  V30 BEGIN ATOM
M  V30 1 C 6.856976 -4.853091 3.196373 0
M  V30 2 O 6.560588 -5.363153 1.922106 0
M  V30 3 C 5.844211 -4.624373 0.989642 0
M  V30 4 C 5.403449 -3.370457 1.286086 0
M  V30 5 C 4.684592 -2.620721 0.362082 0
M  V30 6 C 4.403749 -3.144400 -0.885981 0
M  V30 7 N 3.662111 -2.265040 -1.707824 0
M  V30 8 C 4.059312 -1.263149 -2.628637 0
M  V30 9 O 5.240824 -0.946713 -2.909885 0
M  V30 10 N 2.923366 -0.644654 -3.208804 0
M  V30 11 C 2.804661 0.411763 -4.184903 0
M  V30 12 C 2.119631 -0.082849 -5.404454 0
M  V30 13 C 0.679908 0.344795 -5.398818 0
M  V30 14 N 0.188875 0.384443 -4.065865 0
M  V30 15 C -1.197192 0.147148 -3.875935 0
M  V30 16 C -1.496711 0.203365 -2.418257 0
M  V30 17 C -1.363971 -0.987258 -1.733168 0
M  V30 18 C -1.612878 -1.092314 -0.379755 0
M  V30 19 C -2.017515 0.052234 0.334506 0
M  V30 20 C -2.243731 -0.066469 1.757178 0
M  V30 21 N -1.128534 -0.432937 2.453286 0
M  V30 22 N -1.393798 -0.478929 3.756823 0
M  V30 23 C -2.684605 -0.142507 3.919400 0
M  V30 24 N -3.177698 0.099107 2.695707 0
M  V30 25 C -4.476036 0.480018 2.325298 0
M  V30 26 C -4.736014 0.104545 1.035059 0
M  V30 27 C -5.957928 0.453601 0.494261 0
M  V30 28 C -6.843862 1.165941 1.311631 0
M  V30 29 N -6.581728 1.535362 2.600590 0
M  V30 30 C -5.380020 1.176657 3.091648 0
M  V30 31 N -5.274726 1.567965 4.482802 0
M  V30 32 C -4.489793 0.778368 5.412958 0
M  V30 33 C -5.045597 0.878901 6.690345 0
M  V30 34 C -4.421140 0.164527 7.708698 0
M  V30 35 C -3.295434 -0.612063 7.460776 0
M  V30 36 C -2.727291 -0.724586 6.201434 0
M  V30 37 C -3.352921 -0.015583 5.209354 0
M  V30 38 C -2.146580 1.257221 -0.382711 0
M  V30 39 C -1.894222 1.347582 -1.735591 0
M  V30 40 C 0.733319 1.464058 -3.278903 0
M  V30 41 C 2.202481 1.661453 -3.572459 0
M  V30 42 C 4.846074 -4.425179 -1.207831 0
M  V30 43 C 5.560825 -5.137312 -0.253853 0
M  V30 44 Cl 6.097737 -6.734785 -0.691792 0
M  V30 45 H 5.882936 -4.714316 3.732432 0
M  V30 46 H 7.448255 -5.601175 3.769156 0
M  V30 47 H 7.377088 -3.876895 3.118689 0
M  V30 48 H 5.637652 -2.979229 2.271330 0
M  V30 49 H 4.387541 -1.641421 0.711915 0
M  V30 50 H 2.703357 -2.553376 -1.450934 0
M  V30 51 H 1.913963 -0.857217 -3.020367 0
M  V30 52 H 3.854326 0.689365 -4.457790 0
M  V30 53 H 2.182759 -1.194613 -5.506588 0
M  V30 54 H 2.590352 0.422975 -6.284395 0
M  V30 55 H 0.103613 -0.463267 -5.927058 0
M  V30 56 H 0.532010 1.285755 -5.964563 0
M  V30 57 H -1.474413 -0.851569 -4.253442 0
M  V30 58 H -1.763905 0.961720 -4.378593 0
M  V30 59 H -1.058722 -1.908836 -2.211529 0
M  V30 60 H -1.510336 -2.034764 0.171476 0
M  V30 61 H -4.184214 -0.465909 0.337163 0
M  V30 62 H -6.333912 0.244411 -0.502631 0
M  V30 63 H -7.813652 1.476538 0.963147 0
M  V30 64 H -5.768130 2.395753 4.819050 0
M  V30 65 H -5.906644 1.491579 6.813652 0
M  V30 66 H -4.831198 0.225895 8.709608 0
M  V30 67 H -2.808291 -1.170688 8.256370 0
M  V30 68 H -1.872869 -1.287571 5.915303 0
M  V30 69 H -2.456414 2.138988 0.162960 0
M  V30 70 H -1.987404 2.258907 -2.300008 0
M  V30 71 H 0.526514 1.257913 -2.218340 0
M  V30 72 H 0.201504 2.389095 -3.553993 0
M  V30 73 H 2.349236 2.564397 -4.186633 0
M  V30 74 H 2.714884 1.827018 -2.606827 0
M  V30 75 H 4.587469 -4.761111 -2.200330 0
M  V30 END ATOM
M  V30 BEGIN BOND
M  V30 1 1 1 2
M  V30 2 1 2 3
M  V30 3 2 3 4
M  V30 4 1 4 5
M  V30 5 2 5 6
M  V30 6 1 6 7
M  V30 7 1 7 8
M  V30 8 2 8 9
M  V30 9 1 8 10
M  V30 10 1 10 11
M  V30 11 1 11 12
M  V30 12 1 12 13
M  V30 13 1 13 14
M  V30 14 1 14 15
M  V30 15 1 15 16
M  V30 16 2 16 17
M  V30 17 1 17 18
M  V30 18 2 18 19
M  V30 19 1 19 20
M  V30 20 2 20 21
M  V30 21 1 21 22
M  V30 22 2 22 23
M  V30 23 1 23 24
M  V30 24 1 24 25
M  V30 25 2 25 26
M  V30 26 1 26 27
M  V30 27 2 27 28
M  V30 28 1 28 29
M  V30 29 2 29 30
M  V30 30 1 30 31
M  V30 31 1 31 32
M  V30 32 2 32 33
M  V30 33 1 33 34
M  V30 34 2 34 35
M  V30 35 1 35 36
M  V30 36 2 36 37
M  V30 37 1 19 38
M  V30 38 2 38 39
M  V30 39 1 14 40
M  V30 40 1 40 41
M  V30 41 1 6 42
M  V30 42 2 42 43
M  V30 43 1 43 44
M  V30 44 1 43 3
M  V30 45 1 41 11
M  V30 46 1 39 16
M  V30 47 1 24 20
M  V30 48 1 30 25
M  V30 49 1 37 32
M  V30 50 1 37 23
M  V30 51 1 1 45
M  V30 52 1 1 46
M  V30 53 1 1 47
M  V30 54 1 4 48
M  V30 55 1 5 49
M  V30 56 1 7 50
M  V30 57 1 10 51
M  V30 58 1 11 52
M  V30 59 1 12 53
M  V30 60 1 12 54
M  V30 61 1 13 55
M  V30 62 1 13 56
M  V30 63 1 15 57
M  V30 64 1 15 58
M  V30 65 1 17 59
M  V30 66 1 18 60
M  V30 67 1 26 61
M  V30 68 1 27 62
M  V30 69 1 28 63
M  V30 70 1 31 64
M  V30 71 1 33 65
M  V30 72 1 34 66
M  V30 73 1 35 67
M  V30 74 1 36 68
M  V30 75 1 38 69
M  V30 76 1 39 70
M  V30 77 1 40 71
M  V30 78 1 40 72
M  V30 79 1 41 73
M  V30 80 1 41 74
M  V30 81 1 42 75
M  V30 END BOND
M  V30 END CTAB
M  END
>  <Dataset>  (83) 
ChEMBL_Kinases

>  <Ligand_Instance>  (83) 
nan

>  <PDB_ID>  (83) 
nan

>  <Standardized_SMILES>  (83) 
COc1ccc(NC(=O)NC2CCN(Cc3ccc(-c4nnc5n4-c4cccnc4Nc4ccccc4-5)cc3)CC2)cc1Cl

>  <Name>  (83) 
nan

>  <Pocket>  (83) 
nan

>  <ATP_Site>  (83) 
nan

>  <Peripheral>  (83) 
nan

>  <Num_H_Atoms_ProtBoundConf>  (83) 
nan

>  <Num_Resolved_Atoms>  (83) 
nan

>  <Num_Not_Resolved_Atoms>  (83) 
nan

$$$$
CHEMBL3684406
     RDKit          3D

  0  0  0  0  0  0  0  0  0  0999 V3000
M  V30 BEGIN CTAB
M  V30 COUNTS 53 58 0 0 0
M  V30 BEGIN ATOM
M  V30 1 O 0.931702 -5.013202 2.023040 0
M  V30 2 C 1.665314 -4.521281 2.943438 0
M  V30 3 N 2.860896 -3.887506 2.557187 0
M  V30 4 C 3.404359 -3.701012 1.228004 0
M  V30 5 C 2.660976 -2.603923 0.559761 0
M  V30 6 C 3.174120 -1.359956 0.776118 0
M  V30 7 C 2.613716 -0.225309 0.229043 0
M  V30 8 C 1.471329 -0.305621 -0.587710 0
M  V30 9 C 0.805019 0.792131 -1.248667 0
M  V30 10 N 1.599486 1.432657 -2.152670 0
M  V30 11 N 0.884581 2.400693 -2.754629 0
M  V30 12 C -0.350645 2.384554 -2.247223 0
M  V30 13 N -0.371636 1.402663 -1.333983 0
M  V30 14 C -1.440044 0.986043 -0.514189 0
M  V30 15 C -0.961785 0.392916 0.621659 0
M  V30 16 C -1.889483 -0.119606 1.504074 0
M  V30 17 C -3.248241 0.000630 1.185748 0
M  V30 18 N -3.708941 0.599759 0.048586 0
M  V30 19 C -2.777164 1.100332 -0.810800 0
M  V30 20 N -3.419300 1.765120 -1.920675 0
M  V30 21 C -2.787415 2.907346 -2.548442 0
M  V30 22 C -3.778868 3.763228 -3.045743 0
M  V30 23 C -3.347297 4.920403 -3.666614 0
M  V30 24 C -1.996880 5.220679 -3.791834 0
M  V30 25 C -1.008517 4.393236 -3.311047 0
M  V30 26 C -1.436175 3.244864 -2.695530 0
M  V30 27 C 0.970166 -1.604271 -0.788739 0
M  V30 28 C 1.543536 -2.726974 -0.233777 0
M  V30 29 C 1.179893 -4.671561 4.302666 0
M  V30 30 C -0.017257 -5.327359 4.493938 0
M  V30 31 C -0.531653 -5.500240 5.785347 0
M  V30 32 C 0.179997 -5.003693 6.856908 0
M  V30 33 N 1.345421 -4.366844 6.652810 0
M  V30 34 C 1.858943 -4.190832 5.401153 0
M  V30 35 H 3.400070 -3.512603 3.381498 0
M  V30 36 H 4.476038 -3.482371 1.319420 0
M  V30 37 H 3.340063 -4.642604 0.639844 0
M  V30 38 H 4.060618 -1.162871 1.393304 0
M  V30 39 H 2.967603 0.783467 0.359302 0
M  V30 40 H 0.018135 0.279739 1.001862 0
M  V30 41 H -1.680108 -0.618557 2.441513 0
M  V30 42 H -4.003448 -0.391773 1.853314 0
M  V30 43 H -4.340208 1.430185 -2.253146 0
M  V30 44 H -4.801844 3.472376 -2.918915 0
M  V30 45 H -4.086331 5.601606 -4.061179 0
M  V30 46 H -1.651957 6.132586 -4.280330 0
M  V30 47 H 0.059693 4.524059 -3.352584 0
M  V30 48 H 0.078706 -1.728968 -1.418406 0
M  V30 49 H 1.166631 -3.726731 -0.383980 0
M  V30 50 H -0.635667 -5.747204 3.690135 0
M  V30 51 H -1.477646 -6.016921 5.953492 0
M  V30 52 H -0.173429 -5.109592 7.883738 0
M  V30 53 H 2.790997 -3.675872 5.301519 0
M  V30 END ATOM
M  V30 BEGIN BOND
M  V30 1 2 1 2
M  V30 2 1 2 3
M  V30 3 1 3 4
M  V30 4 1 4 5
M  V30 5 2 5 6
M  V30 6 1 6 7
M  V30 7 2 7 8
M  V30 8 1 8 9
M  V30 9 2 9 10
M  V30 10 1 10 11
M  V30 11 2 11 12
M  V30 12 1 12 13
M  V30 13 1 13 14
M  V30 14 2 14 15
M  V30 15 1 15 16
M  V30 16 2 16 17
M  V30 17 1 17 18
M  V30 18 2 18 19
M  V30 19 1 19 20
M  V30 20 1 20 21
M  V30 21 2 21 22
M  V30 22 1 22 23
M  V30 23 2 23 24
M  V30 24 1 24 25
M  V30 25 2 25 26
M  V30 26 1 8 27
M  V30 27 2 27 28
M  V30 28 1 2 29
M  V30 29 2 29 30
M  V30 30 1 30 31
M  V30 31 2 31 32
M  V30 32 1 32 33
M  V30 33 2 33 34
M  V30 34 1 28 5
M  V30 35 1 34 29
M  V30 36 1 13 9
M  V30 37 1 19 14
M  V30 38 1 26 21
M  V30 39 1 26 12
M  V30 40 1 3 35
M  V30 41 1 4 36
M  V30 42 1 4 37
M  V30 43 1 6 38
M  V30 44 1 7 39
M  V30 45 1 15 40
M  V30 46 1 16 41
M  V30 47 1 17 42
M  V30 48 1 20 43
M  V30 49 1 22 44
M  V30 50 1 23 45
M  V30 51 1 24 46
M  V30 52 1 25 47
M  V30 53 1 27 48
M  V30 54 1 28 49
M  V30 55 1 30 50
M  V30 56 1 31 51
M  V30 57 1 32 52
M  V30 58 1 34 53
M  V30 END BOND
M  V30 END CTAB
M  END
>  <Dataset>  (84) 
ChEMBL_Kinases

>  <Ligand_Instance>  (84) 
nan

>  <PDB_ID>  (84) 
nan

>  <Standardized_SMILES>  (84) 
O=C(NCc1ccc(-c2nnc3n2-c2cccnc2Nc2ccccc2-3)cc1)c1cccnc1

>  <Name>  (84) 
nan

>  <Pocket>  (84) 
nan

>  <ATP_Site>  (84) 
nan

>  <Peripheral>  (84) 
nan

>  <Num_H_Atoms_ProtBoundConf>  (84) 
nan

>  <Num_Resolved_Atoms>  (84) 
nan

>  <Num_Not_Resolved_Atoms>  (84) 
nan

$$$$
CHEMBL3684405
     RDKit          3D

  0  0  0  0  0  0  0  0  0  0999 V3000
M  V30 BEGIN CTAB
M  V30 COUNTS 54 59 0 0 0
M  V30 BEGIN ATOM
M  V30 1 O 2.199477 -0.921332 5.080751 0
M  V30 2 C 1.702272 -1.823948 4.358747 0
M  V30 3 N 2.787938 -2.159875 3.504990 0
M  V30 4 C 3.913983 -2.505389 2.622375 0
M  V30 5 C 3.694795 -1.660192 1.397544 0
M  V30 6 C 4.117948 -0.573752 0.730732 0
M  V30 7 C 3.490632 -0.013769 -0.318438 0
M  V30 8 C 2.343892 -0.389346 -0.922126 0
M  V30 9 C 1.271191 -0.274426 -1.892119 0
M  V30 10 N 1.335485 -1.067386 -2.996201 0
M  V30 11 N 0.132270 -0.991615 -3.618329 0
M  V30 12 C -0.620103 -0.142968 -2.848693 0
M  V30 13 N 0.084057 0.310405 -1.796786 0
M  V30 14 C -0.374273 1.285233 -0.881523 0
M  V30 15 C 0.705114 1.855013 -0.266034 0
M  V30 16 C 0.648665 2.842095 0.688237 0
M  V30 17 C -0.624797 3.244604 1.000680 0
M  V30 18 N -1.759583 2.730131 0.430272 0
M  V30 19 C -1.603383 1.758004 -0.502914 0
M  V30 20 N -2.853499 1.380098 -1.077400 0
M  V30 21 C -3.033643 0.591650 -2.274806 0
M  V30 22 C -4.388300 0.484196 -2.518209 0
M  V30 23 C -4.716614 -0.288190 -3.613056 0
M  V30 24 C -3.798130 -0.902351 -4.409065 0
M  V30 25 C -2.438745 -0.783417 -4.149138 0
M  V30 26 C -2.068660 -0.024901 -3.064970 0
M  V30 27 C 1.885935 -1.581319 -0.201986 0
M  V30 28 C 2.494941 -2.222791 0.905008 0
M  V30 29 C 0.357495 -2.459049 4.290861 0
M  V30 30 C -0.022175 -3.656094 3.731058 0
M  V30 31 C -1.374477 -3.946271 3.680587 0
M  V30 32 C -2.325015 -3.092070 4.161499 0
M  V30 33 F -3.621177 -3.482673 4.077732 0
M  V30 34 C -1.921657 -1.882372 4.725406 0
M  V30 35 C -0.554679 -1.558390 4.795000 0
M  V30 36 H 2.270090 -2.943929 2.990549 0
M  V30 37 H 4.813637 -2.032165 3.138859 0
M  V30 38 H 4.078008 -3.536198 2.441922 0
M  V30 39 H 5.012815 -0.195720 1.156320 0
M  V30 40 H 3.815077 0.837796 -0.873369 0
M  V30 41 H 1.707225 1.672291 -0.486693 0
M  V30 42 H 1.407423 3.362050 1.244973 0
M  V30 43 H -0.871605 4.008986 1.728768 0
M  V30 44 H -3.734512 1.718548 -0.565486 0
M  V30 45 H -5.130453 0.962074 -1.903453 0
M  V30 46 H -5.748512 -0.451778 -3.883822 0
M  V30 47 H -4.089669 -1.504044 -5.271362 0
M  V30 48 H -1.707504 -1.266315 -4.784936 0
M  V30 49 H 0.933309 -2.121034 -0.515221 0
M  V30 50 H 1.934100 -3.137042 1.224192 0
M  V30 51 H 0.807040 -4.241561 3.389304 0
M  V30 52 H -1.596890 -4.893816 3.220095 0
M  V30 53 H -2.750876 -1.259820 5.083803 0
M  V30 54 H -0.324924 -0.579316 5.244573 0
M  V30 END ATOM
M  V30 BEGIN BOND
M  V30 1 2 1 2
M  V30 2 1 2 3
M  V30 3 1 3 4
M  V30 4 1 4 5
M  V30 5 2 5 6
M  V30 6 1 6 7
M  V30 7 2 7 8
M  V30 8 1 8 9
M  V30 9 2 9 10
M  V30 10 1 10 11
M  V30 11 2 11 12
M  V30 12 1 12 13
M  V30 13 1 13 14
M  V30 14 2 14 15
M  V30 15 1 15 16
M  V30 16 2 16 17
M  V30 17 1 17 18
M  V30 18 2 18 19
M  V30 19 1 19 20
M  V30 20 1 20 21
M  V30 21 2 21 22
M  V30 22 1 22 23
M  V30 23 2 23 24
M  V30 24 1 24 25
M  V30 25 2 25 26
M  V30 26 1 8 27
M  V30 27 2 27 28
M  V30 28 1 2 29
M  V30 29 2 29 30
M  V30 30 1 30 31
M  V30 31 2 31 32
M  V30 32 1 32 33
M  V30 33 1 32 34
M  V30 34 2 34 35
M  V30 35 1 28 5
M  V30 36 1 35 29
M  V30 37 1 13 9
M  V30 38 1 19 14
M  V30 39 1 26 21
M  V30 40 1 26 12
M  V30 41 1 3 36
M  V30 42 1 4 37
M  V30 43 1 4 38
M  V30 44 1 6 39
M  V30 45 1 7 40
M  V30 46 1 15 41
M  V30 47 1 16 42
M  V30 48 1 17 43
M  V30 49 1 20 44
M  V30 50 1 22 45
M  V30 51 1 23 46
M  V30 52 1 24 47
M  V30 53 1 25 48
M  V30 54 1 27 49
M  V30 55 1 28 50
M  V30 56 1 30 51
M  V30 57 1 31 52
M  V30 58 1 34 53
M  V30 59 1 35 54
M  V30 END BOND
M  V30 END CTAB
M  END
>  <Dataset>  (85) 
ChEMBL_Kinases

>  <Ligand_Instance>  (85) 
nan

>  <PDB_ID>  (85) 
nan

>  <Standardized_SMILES>  (85) 
O=C(NCc1ccc(-c2nnc3n2-c2cccnc2Nc2ccccc2-3)cc1)c1ccc(F)cc1

>  <Name>  (85) 
nan

>  <Pocket>  (85) 
nan

>  <ATP_Site>  (85) 
nan

>  <Peripheral>  (85) 
nan

>  <Num_H_Atoms_ProtBoundConf>  (85) 
nan

>  <Num_Resolved_Atoms>  (85) 
nan

>  <Num_Not_Resolved_Atoms>  (85) 
nan

$$$$
CHEMBL3684404
     RDKit          3D

  0  0  0  0  0  0  0  0  0  0999 V3000
M  V30 BEGIN CTAB
M  V30 COUNTS 70 76 0 0 0
M  V30 BEGIN ATOM
M  V30 1 C 2.234983 -0.117470 4.125444 0
M  V30 2 C 3.241142 -1.039218 4.356699 0
M  V30 3 C 3.658188 -1.977279 3.427216 0
M  V30 4 C 3.044550 -2.015010 2.179709 0
M  V30 5 C 3.516928 -3.033277 1.209477 0
M  V30 6 C 4.652307 -2.525514 0.338892 0
M  V30 7 N 4.330589 -1.407664 -0.432969 0
M  V30 8 C 3.415449 -1.514612 -1.502189 0
M  V30 9 C 3.373494 -0.263061 -2.361777 0
M  V30 10 N 3.496754 0.937497 -1.640162 0
M  V30 11 C 2.560490 1.972138 -1.843286 0
M  V30 12 C 1.145850 1.643734 -1.570280 0
M  V30 13 C 0.387719 1.186873 -2.628828 0
M  V30 14 C -0.934845 0.863309 -2.404260 0
M  V30 15 C -1.550887 0.977625 -1.141671 0
M  V30 16 C -2.949052 0.652609 -0.977597 0
M  V30 17 N -3.766312 1.423238 -1.748011 0
M  V30 18 N -5.049090 1.097855 -1.504724 0
M  V30 19 C -5.052368 0.130986 -0.589585 0
M  V30 20 N -3.770424 -0.125692 -0.286632 0
M  V30 21 C -3.243872 -1.067096 0.620923 0
M  V30 22 C -1.973548 -1.419367 0.254169 0
M  V30 23 C -1.298994 -2.296797 1.078828 0
M  V30 24 C -1.961969 -2.760693 2.222304 0
M  V30 25 N -3.232567 -2.415231 2.591633 0
M  V30 26 C -3.868144 -1.546564 1.752272 0
M  V30 27 N -5.221922 -1.320049 2.204698 0
M  V30 28 C -6.282831 -1.062794 1.251117 0
M  V30 29 C -7.489197 -1.556239 1.754142 0
M  V30 30 C -8.609224 -1.411076 0.962885 0
M  V30 31 C -8.555096 -0.798788 -0.290294 0
M  V30 32 C -7.364802 -0.304023 -0.801116 0
M  V30 33 C -6.257418 -0.451398 -0.009638 0
M  V30 34 C -0.708325 1.451141 -0.116564 0
M  V30 35 C 0.615366 1.783403 -0.303884 0
M  V30 36 C 4.249296 0.945288 -0.440284 0
M  V30 37 C 5.160641 -0.264728 -0.425604 0
M  V30 38 C 2.037883 -1.100147 1.935244 0
M  V30 39 C 1.632419 -0.165002 2.881789 0
M  V30 40 H 1.913854 0.609691 4.850117 0
M  V30 41 H 3.677949 -0.952008 5.356391 0
M  V30 42 H 4.456084 -2.661620 3.695442 0
M  V30 43 H 2.679259 -3.329053 0.523436 0
M  V30 44 H 3.853415 -3.956423 1.731504 0
M  V30 45 H 4.948944 -3.412836 -0.291297 0
M  V30 46 H 5.507402 -2.261801 1.009278 0
M  V30 47 H 2.429928 -1.817596 -1.136488 0
M  V30 48 H 3.746221 -2.347750 -2.191102 0
M  V30 49 H 4.275957 -0.334463 -3.041285 0
M  V30 50 H 2.504214 -0.351486 -3.007285 0
M  V30 51 H 2.861240 2.840053 -1.192665 0
M  V30 52 H 2.636675 2.352378 -2.890630 0
M  V30 53 H 0.694752 1.043582 -3.654782 0
M  V30 54 H -1.596072 0.493147 -3.200744 0
M  V30 55 H -1.389020 -1.180614 -0.593793 0
M  V30 56 H -0.278508 -2.685750 0.944547 0
M  V30 57 H -1.483409 -3.446463 2.906871 0
M  V30 58 H -5.438067 -1.357659 3.216881 0
M  V30 59 H -7.474920 -2.019636 2.730349 0
M  V30 60 H -9.556679 -1.782891 1.326476 0
M  V30 61 H -9.428088 -0.682061 -0.917828 0
M  V30 62 H -7.205019 0.182994 -1.745879 0
M  V30 63 H -1.192626 1.539641 0.868558 0
M  V30 64 H 1.212884 2.140700 0.516630 0
M  V30 65 H 3.512732 0.870317 0.408180 0
M  V30 66 H 4.827992 1.891035 -0.371672 0
M  V30 67 H 5.852136 -0.281687 0.428855 0
M  V30 68 H 5.731838 -0.258283 -1.399103 0
M  V30 69 H 1.558103 -1.117338 0.983314 0
M  V30 70 H 0.829439 0.532643 2.628139 0
M  V30 END ATOM
M  V30 BEGIN BOND
M  V30 1 2 1 2
M  V30 2 1 2 3
M  V30 3 2 3 4
M  V30 4 1 4 5
M  V30 5 1 5 6
M  V30 6 1 6 7
M  V30 7 1 7 8
M  V30 8 1 8 9
M  V30 9 1 9 10
M  V30 10 1 10 11
M  V30 11 1 11 12
M  V30 12 2 12 13
M  V30 13 1 13 14
M  V30 14 2 14 15
M  V30 15 1 15 16
M  V30 16 2 16 17
M  V30 17 1 17 18
M  V30 18 2 18 19
M  V30 19 1 19 20
M  V30 20 1 20 21
M  V30 21 2 21 22
M  V30 22 1 22 23
M  V30 23 2 23 24
M  V30 24 1 24 25
M  V30 25 2 25 26
M  V30 26 1 26 27
M  V30 27 1 27 28
M  V30 28 2 28 29
M  V30 29 1 29 30
M  V30 30 2 30 31
M  V30 31 1 31 32
M  V30 32 2 32 33
M  V30 33 1 15 34
M  V30 34 2 34 35
M  V30 35 1 10 36
M  V30 36 1 36 37
M  V30 37 1 4 38
M  V30 38 2 38 39
M  V30 39 1 39 1
M  V30 40 1 37 7
M  V30 41 1 35 12
M  V30 42 1 20 16
M  V30 43 1 26 21
M  V30 44 1 33 28
M  V30 45 1 33 19
M  V30 46 1 1 40
M  V30 47 1 2 41
M  V30 48 1 3 42
M  V30 49 1 5 43
M  V30 50 1 5 44
M  V30 51 1 6 45
M  V30 52 1 6 46
M  V30 53 1 8 47
M  V30 54 1 8 48
M  V30 55 1 9 49
M  V30 56 1 9 50
M  V30 57 1 11 51
M  V30 58 1 11 52
M  V30 59 1 13 53
M  V30 60 1 14 54
M  V30 61 1 22 55
M  V30 62 1 23 56
M  V30 63 1 24 57
M  V30 64 1 27 58
M  V30 65 1 29 59
M  V30 66 1 30 60
M  V30 67 1 31 61
M  V30 68 1 32 62
M  V30 69 1 34 63
M  V30 70 1 35 64
M  V30 71 1 36 65
M  V30 72 1 36 66
M  V30 73 1 37 67
M  V30 74 1 37 68
M  V30 75 1 38 69
M  V30 76 1 39 70
M  V30 END BOND
M  V30 END CTAB
M  END
>  <Dataset>  (86) 
ChEMBL_Kinases

>  <Ligand_Instance>  (86) 
nan

>  <PDB_ID>  (86) 
nan

>  <Standardized_SMILES>  (86) 
c1ccc(CCN2CCN(Cc3ccc(-c4nnc5n4-c4cccnc4Nc4ccccc4-5)cc3)CC2)cc1

>  <Name>  (86) 
nan

>  <Pocket>  (86) 
nan

>  <ATP_Site>  (86) 
nan

>  <Peripheral>  (86) 
nan

>  <Num_H_Atoms_ProtBoundConf>  (86) 
nan

>  <Num_Resolved_Atoms>  (86) 
nan

>  <Num_Not_Resolved_Atoms>  (86) 
nan

$$$$
CHEMBL3684403
     RDKit          3D

  0  0  0  0  0  0  0  0  0  0999 V3000
M  V30 BEGIN CTAB
M  V30 COUNTS 52 57 0 0 0
M  V30 BEGIN ATOM
M  V30 1 C 6.229426 1.005155 5.220272 0
M  V30 2 C 5.098182 1.651721 5.698945 0
M  V30 3 C 3.863126 1.513800 5.104331 0
M  V30 4 C 3.817489 0.696119 4.006188 0
M  V30 5 C 4.929803 0.022568 3.483349 0
M  V30 6 C 6.164079 0.179918 4.104717 0
M  V30 7 N 5.066077 -0.849720 2.334788 0
M  V30 8 C 4.205536 -0.677879 1.186254 0
M  V30 9 N 4.859078 -1.021839 0.054671 0
M  V30 10 C 4.181341 -0.840308 -1.120652 0
M  V30 11 C 2.879703 -0.329962 -1.223724 0
M  V30 12 C 2.236878 0.012544 -0.047607 0
M  V30 13 C 2.923741 -0.177685 1.117578 0
M  V30 14 N 2.113536 0.157725 2.222872 0
M  V30 15 C 0.785685 0.092917 2.108557 0
M  V30 16 C -0.266790 -0.274543 1.190369 0
M  V30 17 C -1.241830 0.682212 0.841551 0
M  V30 18 C -2.291273 0.407497 -0.008208 0
M  V30 19 C -2.374549 -0.865627 -0.530629 0
M  V30 20 C -3.533866 -1.115011 -1.470473 0
M  V30 21 N -4.657485 -1.549823 -0.735328 0
M  V30 22 C -5.893897 -1.727666 -1.379680 0
M  V30 23 C -6.075723 -2.827161 -2.351408 0
M  V30 24 C -5.360161 -3.054938 -3.596267 0
M  V30 25 C -6.705462 -2.394195 -3.702674 0
M  V30 26 C -1.482989 -1.861669 -0.254624 0
M  V30 27 C -0.454440 -1.536129 0.598705 0
M  V30 28 N 0.312176 0.477946 3.330456 0
M  V30 29 N 1.345643 0.758499 4.140681 0
M  V30 30 C 2.477814 0.556294 3.449045 0
M  V30 31 H 7.184229 1.132442 5.710425 0
M  V30 32 H 5.134620 2.301402 6.571512 0
M  V30 33 H 2.929097 1.969180 5.394780 0
M  V30 34 H 7.006950 -0.352313 3.684404 0
M  V30 35 H 5.787203 -1.579694 2.332991 0
M  V30 36 H 4.746618 -1.130557 -1.976404 0
M  V30 37 H 2.497777 -0.251962 -2.238715 0
M  V30 38 H 1.286228 0.427856 -0.251308 0
M  V30 39 H -1.118509 1.659935 1.286426 0
M  V30 40 H -2.962130 1.236315 -0.184846 0
M  V30 41 H -3.167253 -1.922572 -2.172885 0
M  V30 42 H -3.661510 -0.204471 -2.051951 0
M  V30 43 H -4.511786 -1.959289 0.188538 0
M  V30 44 H -6.170921 -0.746498 -1.852169 0
M  V30 45 H -6.678882 -1.817571 -0.557895 0
M  V30 46 H -6.624645 -3.736023 -1.920795 0
M  V30 47 H -5.392107 -4.114242 -4.003895 0
M  V30 48 H -4.469377 -2.540021 -3.969449 0
M  V30 49 H -6.762328 -1.306680 -3.917751 0
M  V30 50 H -7.580276 -2.962971 -4.065360 0
M  V30 51 H -1.564536 -2.838794 -0.669124 0
M  V30 52 H 0.305032 -2.270776 0.875106 0
M  V30 END ATOM
M  V30 BEGIN BOND
M  V30 1 2 1 2
M  V30 2 1 2 3
M  V30 3 2 3 4
M  V30 4 1 4 5
M  V30 5 2 5 6
M  V30 6 1 5 7
M  V30 7 1 7 8
M  V30 8 2 8 9
M  V30 9 1 9 10
M  V30 10 2 10 11
M  V30 11 1 11 12
M  V30 12 2 12 13
M  V30 13 1 13 14
M  V30 14 1 14 15
M  V30 15 1 15 16
M  V30 16 2 16 17
M  V30 17 1 17 18
M  V30 18 2 18 19
M  V30 19 1 19 20
M  V30 20 1 20 21
M  V30 21 1 21 22
M  V30 22 1 22 23
M  V30 23 1 23 24
M  V30 24 1 24 25
M  V30 25 1 19 26
M  V30 26 2 26 27
M  V30 27 2 15 28
M  V30 28 1 28 29
M  V30 29 2 29 30
M  V30 30 1 6 1
M  V30 31 1 13 8
M  V30 32 1 30 14
M  V30 33 1 30 4
M  V30 34 1 27 16
M  V30 35 1 25 23
M  V30 36 1 1 31
M  V30 37 1 2 32
M  V30 38 1 3 33
M  V30 39 1 6 34
M  V30 40 1 7 35
M  V30 41 1 10 36
M  V30 42 1 11 37
M  V30 43 1 12 38
M  V30 44 1 17 39
M  V30 45 1 18 40
M  V30 46 1 20 41
M  V30 47 1 20 42
M  V30 48 1 21 43
M  V30 49 1 22 44
M  V30 50 1 22 45
M  V30 51 1 23 46
M  V30 52 1 24 47
M  V30 53 1 24 48
M  V30 54 1 25 49
M  V30 55 1 25 50
M  V30 56 1 26 51
M  V30 57 1 27 52
M  V30 END BOND
M  V30 END CTAB
M  END
>  <Dataset>  (87) 
ChEMBL_Kinases

>  <Ligand_Instance>  (87) 
nan

>  <PDB_ID>  (87) 
nan

>  <Standardized_SMILES>  (87) 
c1ccc2c(c1)Nc1ncccc1-n1c(-c3ccc(CNCC4CC4)cc3)nnc1-2

>  <Name>  (87) 
nan

>  <Pocket>  (87) 
nan

>  <ATP_Site>  (87) 
nan

>  <Peripheral>  (87) 
nan

>  <Num_H_Atoms_ProtBoundConf>  (87) 
nan

>  <Num_Resolved_Atoms>  (87) 
nan

>  <Num_Not_Resolved_Atoms>  (87) 
nan

$$$$
CHEMBL3684402
     RDKit          3D

  0  0  0  0  0  0  0  0  0  0999 V3000
M  V30 BEGIN CTAB
M  V30 COUNTS 63 69 0 0 0
M  V30 BEGIN ATOM
M  V30 1 O -0.760882 0.921968 4.042070 0
M  V30 2 C 0.410406 1.385295 4.271677 0
M  V30 3 C 1.185938 0.590355 5.199161 0
M  V30 4 C 1.670742 0.728413 6.477950 0
M  V30 5 C 2.358563 -0.433073 6.802634 0
M  V30 6 C 2.240845 -1.222907 5.663280 0
M  V30 7 O 1.541703 -0.592810 4.726853 0
M  V30 8 N 0.859192 2.588195 3.636200 0
M  V30 9 C 2.137767 3.249171 3.794743 0
M  V30 10 C 2.679777 3.779926 2.464351 0
M  V30 11 N 2.010349 3.090446 1.421044 0
M  V30 12 C 2.462632 1.799733 1.081217 0
M  V30 13 C 1.600538 1.169516 0.065581 0
M  V30 14 C 0.509538 0.413177 0.518117 0
M  V30 15 C -0.374271 -0.257969 -0.305660 0
M  V30 16 C -0.170138 -0.180467 -1.698218 0
M  V30 17 C -1.185178 -0.933232 -2.417076 0
M  V30 18 N -1.989470 -0.255485 -3.258929 0
M  V30 19 N -2.909877 -1.084145 -3.789614 0
M  V30 20 C -2.682685 -2.307297 -3.273273 0
M  V30 21 N -1.628688 -2.197522 -2.445018 0
M  V30 22 C -1.023904 -3.229209 -1.686894 0
M  V30 23 C 0.295442 -2.919544 -1.476645 0
M  V30 24 C 1.006846 -3.822579 -0.677448 0
M  V30 25 C 0.353355 -4.937869 -0.167981 0
M  V30 26 N -0.962955 -5.229905 -0.394391 0
M  V30 27 C -1.633836 -4.337036 -1.174648 0
M  V30 28 N -2.980538 -4.817705 -1.405055 0
M  V30 29 C -3.643975 -4.544728 -2.671104 0
M  V30 30 C -4.505012 -5.596512 -2.985052 0
M  V30 31 C -5.224633 -5.547771 -4.164208 0
M  V30 32 C -5.058654 -4.439721 -4.996157 0
M  V30 33 C -4.224758 -3.379131 -4.732282 0
M  V30 34 C -3.528085 -3.462767 -3.555501 0
M  V30 35 C 0.894832 0.559388 -2.177848 0
M  V30 36 C 1.738550 1.204430 -1.303467 0
M  V30 37 C 0.636866 3.391871 1.362528 0
M  V30 38 C -0.045425 3.243275 2.710637 0
M  V30 39 H 1.445745 1.669648 6.975976 0
M  V30 40 H 2.821204 -0.536803 7.760991 0
M  V30 41 H 2.738403 -2.191047 5.762718 0
M  V30 42 H 2.872453 2.572677 4.247945 0
M  V30 43 H 1.995186 4.105669 4.512244 0
M  V30 44 H 2.439792 4.864668 2.429378 0
M  V30 45 H 3.801226 3.631404 2.432381 0
M  V30 46 H 3.533727 1.842100 0.751007 0
M  V30 47 H 2.430486 1.152165 1.999396 0
M  V30 48 H 0.355732 0.356299 1.590128 0
M  V30 49 H -1.174335 -0.801012 0.178510 0
M  V30 50 H 0.898452 -2.137544 -1.854262 0
M  V30 51 H 2.047230 -3.685355 -0.436754 0
M  V30 52 H 0.907980 -5.636771 0.457297 0
M  V30 53 H -3.467297 -5.368236 -0.684288 0
M  V30 54 H -4.572721 -6.424021 -2.266788 0
M  V30 55 H -5.893912 -6.354078 -4.423320 0
M  V30 56 H -5.611091 -4.373974 -5.927300 0
M  V30 57 H -4.040576 -2.501877 -5.305390 0
M  V30 58 H 0.980071 0.569579 -3.249388 0
M  V30 59 H 2.567849 1.775898 -1.682689 0
M  V30 60 H 0.517798 4.478947 1.088733 0
M  V30 61 H 0.080923 2.855647 0.555998 0
M  V30 62 H -0.955797 2.605677 2.535755 0
M  V30 63 H -0.434908 4.211996 3.090438 0
M  V30 END ATOM
M  V30 BEGIN BOND
M  V30 1 2 1 2
M  V30 2 1 2 3
M  V30 3 2 3 4
M  V30 4 1 4 5
M  V30 5 2 5 6
M  V30 6 1 6 7
M  V30 7 1 2 8
M  V30 8 1 8 9
M  V30 9 1 9 10
M  V30 10 1 10 11
M  V30 11 1 11 12
M  V30 12 1 12 13
M  V30 13 2 13 14
M  V30 14 1 14 15
M  V30 15 2 15 16
M  V30 16 1 16 17
M  V30 17 2 17 18
M  V30 18 1 18 19
M  V30 19 2 19 20
M  V30 20 1 20 21
M  V30 21 1 21 22
M  V30 22 2 22 23
M  V30 23 1 23 24
M  V30 24 2 24 25
M  V30 25 1 25 26
M  V30 26 2 26 27
M  V30 27 1 27 28
M  V30 28 1 28 29
M  V30 29 2 29 30
M  V30 30 1 30 31
M  V30 31 2 31 32
M  V30 32 1 32 33
M  V30 33 2 33 34
M  V30 34 1 16 35
M  V30 35 2 35 36
M  V30 36 1 11 37
M  V30 37 1 37 38
M  V30 38 1 7 3
M  V30 39 1 38 8
M  V30 40 1 36 13
M  V30 41 1 21 17
M  V30 42 1 27 22
M  V30 43 1 34 29
M  V30 44 1 34 20
M  V30 45 1 4 39
M  V30 46 1 5 40
M  V30 47 1 6 41
M  V30 48 1 9 42
M  V30 49 1 9 43
M  V30 50 1 10 44
M  V30 51 1 10 45
M  V30 52 1 12 46
M  V30 53 1 12 47
M  V30 54 1 14 48
M  V30 55 1 15 49
M  V30 56 1 23 50
M  V30 57 1 24 51
M  V30 58 1 25 52
M  V30 59 1 28 53
M  V30 60 1 30 54
M  V30 61 1 31 55
M  V30 62 1 32 56
M  V30 63 1 33 57
M  V30 64 1 35 58
M  V30 65 1 36 59
M  V30 66 1 37 60
M  V30 67 1 37 61
M  V30 68 1 38 62
M  V30 69 1 38 63
M  V30 END BOND
M  V30 END CTAB
M  END
>  <Dataset>  (88) 
ChEMBL_Kinases

>  <Ligand_Instance>  (88) 
nan

>  <PDB_ID>  (88) 
nan

>  <Standardized_SMILES>  (88) 
O=C(c1ccco1)N1CCN(Cc2ccc(-c3nnc4n3-c3cccnc3Nc3ccccc3-4)cc2)CC1

>  <Name>  (88) 
nan

>  <Pocket>  (88) 
nan

>  <ATP_Site>  (88) 
nan

>  <Peripheral>  (88) 
nan

>  <Num_H_Atoms_ProtBoundConf>  (88) 
nan

>  <Num_Resolved_Atoms>  (88) 
nan

>  <Num_Not_Resolved_Atoms>  (88) 
nan

$$$$
CHEMBL3684401
     RDKit          3D

  0  0  0  0  0  0  0  0  0  0999 V3000
M  V30 BEGIN CTAB
M  V30 COUNTS 70 76 0 0 0
M  V30 BEGIN ATOM
M  V30 1 C 6.897640 1.330431 5.991284 0
M  V30 2 C 6.097704 0.562268 5.033388 0
M  V30 3 C 6.445017 -0.708887 4.642365 0
M  V30 4 C 5.660532 -1.393277 3.737832 0
M  V30 5 C 4.501770 -0.830249 3.193213 0
M  V30 6 C 3.829659 -1.763589 2.255639 0
M  V30 7 N 4.330205 -1.614634 0.968043 0
M  V30 8 C 3.827538 -2.405045 -0.092861 0
M  V30 9 C 2.509816 -1.717879 -0.490992 0
M  V30 10 N 2.818956 -0.384503 -0.852010 0
M  V30 11 C 2.042905 0.652569 -0.261321 0
M  V30 12 C 0.606801 0.633853 -0.519577 0
M  V30 13 C 0.107426 1.283480 -1.632703 0
M  V30 14 C -1.245074 1.299426 -1.920745 0
M  V30 15 C -2.165543 0.644425 -1.075575 0
M  V30 16 C -3.598343 0.624347 -1.260679 0
M  V30 17 N -4.172361 1.858773 -1.214410 0
M  V30 18 N -5.505785 1.746824 -1.343644 0
M  V30 19 C -5.787861 0.456051 -1.471502 0
M  V30 20 N -4.625501 -0.209910 -1.422972 0
M  V30 21 C -4.389167 -1.596216 -1.518795 0
M  V30 22 C -3.123213 -1.832936 -1.978353 0
M  V30 23 C -2.719026 -3.148416 -2.075669 0
M  V30 24 C -3.623547 -4.150933 -1.703317 0
M  V30 25 N -4.890410 -3.899252 -1.248351 0
M  V30 26 C -5.265570 -2.594678 -1.161475 0
M  V30 27 N -6.644118 -2.490247 -0.742183 0
M  V30 28 C -7.471263 -1.396332 -1.207713 0
M  V30 29 C -8.800907 -1.829764 -1.288471 0
M  V30 30 C -9.725941 -0.910861 -1.734201 0
M  V30 31 C -9.362865 0.373850 -2.084417 0
M  V30 32 C -8.065495 0.825963 -2.014247 0
M  V30 33 C -7.138937 -0.083770 -1.570530 0
M  V30 34 C -1.573499 0.006705 0.037156 0
M  V30 35 C -0.233352 -0.027307 0.351234 0
M  V30 36 C 4.199465 -0.029194 -0.793065 0
M  V30 37 C 4.865271 -0.399573 0.514829 0
M  V30 38 C 4.163535 0.447660 3.594082 0
M  V30 39 C 4.955735 1.120937 4.498479 0
M  V30 40 H 6.279143 2.096962 6.539328 0
M  V30 41 H 7.316310 0.638295 6.756406 0
M  V30 42 H 7.731631 1.904250 5.562564 0
M  V30 43 H 7.349167 -1.117651 5.082840 0
M  V30 44 H 6.047937 -2.387049 3.514648 0
M  V30 45 H 2.741186 -1.456643 2.271969 0
M  V30 46 H 3.831121 -2.797693 2.659736 0
M  V30 47 H 4.494265 -2.491490 -0.966505 0
M  V30 48 H 3.609779 -3.447651 0.242411 0
M  V30 49 H 2.072760 -2.232042 -1.363017 0
M  V30 50 H 1.892594 -1.846924 0.420731 0
M  V30 51 H 2.290531 0.731693 0.830337 0
M  V30 52 H 2.445628 1.616641 -0.691430 0
M  V30 53 H 0.769847 1.807044 -2.322720 0
M  V30 54 H -1.672047 1.799241 -2.785606 0
M  V30 55 H -2.366939 -1.184478 -2.333709 0
M  V30 56 H -1.737532 -3.500388 -2.423381 0
M  V30 57 H -3.347353 -5.194122 -1.761887 0
M  V30 58 H -7.040198 -3.214718 -0.117938 0
M  V30 59 H -9.017977 -2.841095 -0.998663 0
M  V30 60 H -10.760196 -1.210135 -1.809061 0
M  V30 61 H -10.093447 1.112999 -2.441110 0
M  V30 62 H -7.671672 1.799663 -2.259558 0
M  V30 63 H -2.281292 -0.502634 0.696182 0
M  V30 64 H 0.066295 -0.555908 1.240952 0
M  V30 65 H 4.358021 1.051836 -0.946804 0
M  V30 66 H 4.735535 -0.570808 -1.598877 0
M  V30 67 H 4.677313 0.434601 1.216823 0
M  V30 68 H 5.978949 -0.442950 0.401814 0
M  V30 69 H 3.256090 0.785333 3.116051 0
M  V30 70 H 4.594122 2.131387 4.748210 0
M  V30 END ATOM
M  V30 BEGIN BOND
M  V30 1 1 1 2
M  V30 2 2 2 3
M  V30 3 1 3 4
M  V30 4 2 4 5
M  V30 5 1 5 6
M  V30 6 1 6 7
M  V30 7 1 7 8
M  V30 8 1 8 9
M  V30 9 1 9 10
M  V30 10 1 10 11
M  V30 11 1 11 12
M  V30 12 2 12 13
M  V30 13 1 13 14
M  V30 14 2 14 15
M  V30 15 1 15 16
M  V30 16 2 16 17
M  V30 17 1 17 18
M  V30 18 2 18 19
M  V30 19 1 19 20
M  V30 20 1 20 21
M  V30 21 2 21 22
M  V30 22 1 22 23
M  V30 23 2 23 24
M  V30 24 1 24 25
M  V30 25 2 25 26
M  V30 26 1 26 27
M  V30 27 1 27 28
M  V30 28 2 28 29
M  V30 29 1 29 30
M  V30 30 2 30 31
M  V30 31 1 31 32
M  V30 32 2 32 33
M  V30 33 1 15 34
M  V30 34 2 34 35
M  V30 35 1 10 36
M  V30 36 1 36 37
M  V30 37 1 5 38
M  V30 38 2 38 39
M  V30 39 1 39 2
M  V30 40 1 37 7
M  V30 41 1 35 12
M  V30 42 1 20 16
M  V30 43 1 26 21
M  V30 44 1 33 28
M  V30 45 1 33 19
M  V30 46 1 1 40
M  V30 47 1 1 41
M  V30 48 1 1 42
M  V30 49 1 3 43
M  V30 50 1 4 44
M  V30 51 1 6 45
M  V30 52 1 6 46
M  V30 53 1 8 47
M  V30 54 1 8 48
M  V30 55 1 9 49
M  V30 56 1 9 50
M  V30 57 1 11 51
M  V30 58 1 11 52
M  V30 59 1 13 53
M  V30 60 1 14 54
M  V30 61 1 22 55
M  V30 62 1 23 56
M  V30 63 1 24 57
M  V30 64 1 27 58
M  V30 65 1 29 59
M  V30 66 1 30 60
M  V30 67 1 31 61
M  V30 68 1 32 62
M  V30 69 1 34 63
M  V30 70 1 35 64
M  V30 71 1 36 65
M  V30 72 1 36 66
M  V30 73 1 37 67
M  V30 74 1 37 68
M  V30 75 1 38 69
M  V30 76 1 39 70
M  V30 END BOND
M  V30 END CTAB
M  END
>  <Dataset>  (89) 
ChEMBL_Kinases

>  <Ligand_Instance>  (89) 
nan

>  <PDB_ID>  (89) 
nan

>  <Standardized_SMILES>  (89) 
Cc1ccc(CN2CCN(Cc3ccc(-c4nnc5n4-c4cccnc4Nc4ccccc4-5)cc3)CC2)cc1

>  <Name>  (89) 
nan

>  <Pocket>  (89) 
nan

>  <ATP_Site>  (89) 
nan

>  <Peripheral>  (89) 
nan

>  <Num_H_Atoms_ProtBoundConf>  (89) 
nan

>  <Num_Resolved_Atoms>  (89) 
nan

>  <Num_Not_Resolved_Atoms>  (89) 
nan

$$$$
CHEMBL3684400
     RDKit          3D

  0  0  0  0  0  0  0  0  0  0999 V3000
M  V30 BEGIN CTAB
M  V30 COUNTS 54 58 0 0 0
M  V30 BEGIN ATOM
M  V30 1 C 0.683215 -0.592632 5.292370 0
M  V30 2 C 1.246072 0.460652 4.348711 0
M  V30 3 C 2.744886 0.514022 4.408069 0
M  V30 4 N 3.381008 1.451414 3.577810 0
M  V30 5 C 3.220883 2.829847 3.841276 0
M  V30 6 C 3.890160 1.050890 2.329478 0
M  V30 7 C 2.903762 0.528034 1.353316 0
M  V30 8 C 2.342760 1.495101 0.529616 0
M  V30 9 C 1.417322 1.124104 -0.421934 0
M  V30 10 C 1.011972 -0.213040 -0.594575 0
M  V30 11 C 0.073039 -0.652011 -1.602392 0
M  V30 12 N 0.494272 -0.405392 -2.873336 0
M  V30 13 N -0.403550 -0.887807 -3.746299 0
M  V30 14 C -1.398809 -1.442914 -3.045409 0
M  V30 15 N -1.090980 -1.285295 -1.750741 0
M  V30 16 C -1.814753 -1.689229 -0.609629 0
M  V30 17 C -1.497392 -0.896399 0.457972 0
M  V30 18 C -2.092655 -1.214028 1.659026 0
M  V30 19 C -2.965163 -2.301991 1.703560 0
M  V30 20 N -3.278723 -3.083486 0.634664 0
M  V30 21 C -2.685244 -2.755253 -0.532012 0
M  V30 22 N -3.159861 -3.611456 -1.599415 0
M  V30 23 C -3.267551 -3.115303 -2.956836 0
M  V30 24 C -4.311210 -3.766292 -3.609967 0
M  V30 25 C -4.561340 -3.396443 -4.913042 0
M  V30 26 C -3.828369 -2.424978 -5.575173 0
M  V30 27 C -2.779569 -1.765606 -4.931375 0
M  V30 28 C -2.533972 -2.135249 -3.640018 0
M  V30 29 C 1.632986 -1.112823 0.282195 0
M  V30 30 C 2.561251 -0.803207 1.249629 0
M  V30 31 H 1.387823 -1.473023 5.338715 0
M  V30 32 H -0.272782 -0.989312 4.895489 0
M  V30 33 H 0.477413 -0.192790 6.305991 0
M  V30 34 H 0.873116 0.318762 3.315195 0
M  V30 35 H 0.807754 1.430242 4.705321 0
M  V30 36 H 3.215760 -0.477461 4.279188 0
M  V30 37 H 2.991395 0.788571 5.476704 0
M  V30 38 H 4.205955 3.369176 3.731260 0
M  V30 39 H 2.926947 2.953605 4.910624 0
M  V30 40 H 2.441880 3.341033 3.246760 0
M  V30 41 H 4.683611 0.288930 2.509160 0
M  V30 42 H 4.442341 1.936005 1.893169 0
M  V30 43 H 2.599449 2.547784 0.597570 0
M  V30 44 H 0.954403 1.856870 -1.089107 0
M  V30 45 H -0.898826 -0.030384 0.543209 0
M  V30 46 H -1.964282 -0.714522 2.592387 0
M  V30 47 H -3.452087 -2.589226 2.620742 0
M  V30 48 H -3.438726 -4.582105 -1.384550 0
M  V30 49 H -4.853677 -4.516049 -3.061534 0
M  V30 50 H -5.370368 -3.897092 -5.428651 0
M  V30 51 H -4.011197 -2.123781 -6.592942 0
M  V30 52 H -2.138203 -0.997503 -5.331607 0
M  V30 53 H 1.333348 -2.146639 0.163521 0
M  V30 54 H 3.015465 -1.527773 1.906548 0
M  V30 END ATOM
M  V30 BEGIN BOND
M  V30 1 1 1 2
M  V30 2 1 2 3
M  V30 3 1 3 4
M  V30 4 1 4 5
M  V30 5 1 4 6
M  V30 6 1 6 7
M  V30 7 2 7 8
M  V30 8 1 8 9
M  V30 9 2 9 10
M  V30 10 1 10 11
M  V30 11 2 11 12
M  V30 12 1 12 13
M  V30 13 2 13 14
M  V30 14 1 14 15
M  V30 15 1 15 16
M  V30 16 2 16 17
M  V30 17 1 17 18
M  V30 18 2 18 19
M  V30 19 1 19 20
M  V30 20 2 20 21
M  V30 21 1 21 22
M  V30 22 1 22 23
M  V30 23 2 23 24
M  V30 24 1 24 25
M  V30 25 2 25 26
M  V30 26 1 26 27
M  V30 27 2 27 28
M  V30 28 1 10 29
M  V30 29 2 29 30
M  V30 30 1 30 7
M  V30 31 1 15 11
M  V30 32 1 21 16
M  V30 33 1 28 23
M  V30 34 1 28 14
M  V30 35 1 1 31
M  V30 36 1 1 32
M  V30 37 1 1 33
M  V30 38 1 2 34
M  V30 39 1 2 35
M  V30 40 1 3 36
M  V30 41 1 3 37
M  V30 42 1 5 38
M  V30 43 1 5 39
M  V30 44 1 5 40
M  V30 45 1 6 41
M  V30 46 1 6 42
M  V30 47 1 8 43
M  V30 48 1 9 44
M  V30 49 1 17 45
M  V30 50 1 18 46
M  V30 51 1 19 47
M  V30 52 1 22 48
M  V30 53 1 24 49
M  V30 54 1 25 50
M  V30 55 1 26 51
M  V30 56 1 27 52
M  V30 57 1 29 53
M  V30 58 1 30 54
M  V30 END BOND
M  V30 END CTAB
M  END
>  <Dataset>  (90) 
ChEMBL_Kinases

>  <Ligand_Instance>  (90) 
nan

>  <PDB_ID>  (90) 
nan

>  <Standardized_SMILES>  (90) 
CCCN(C)Cc1ccc(-c2nnc3n2-c2cccnc2Nc2ccccc2-3)cc1

>  <Name>  (90) 
nan

>  <Pocket>  (90) 
nan

>  <ATP_Site>  (90) 
nan

>  <Peripheral>  (90) 
nan

>  <Num_H_Atoms_ProtBoundConf>  (90) 
nan

>  <Num_Resolved_Atoms>  (90) 
nan

>  <Num_Not_Resolved_Atoms>  (90) 
nan

$$$$
CHEMBL3684399
     RDKit          3D

  0  0  0  0  0  0  0  0  0  0999 V3000
M  V30 BEGIN CTAB
M  V30 COUNTS 66 71 0 0 0
M  V30 BEGIN ATOM
M  V30 1 C 1.290287 3.150285 7.580580 0
M  V30 2 C 1.331517 1.828023 6.852906 0
M  V30 3 O 0.355330 1.761898 5.818438 0
M  V30 4 C 0.365217 2.673675 4.759194 0
M  V30 5 O 1.312017 3.504656 4.862146 0
M  V30 6 N -0.575326 2.671481 3.689959 0
M  V30 7 C -1.590180 1.668544 3.713296 0
M  V30 8 C -2.792083 1.977138 2.840279 0
M  V30 9 C -2.289407 2.607041 1.572594 0
M  V30 10 N -3.298188 2.674579 0.589876 0
M  V30 11 C -3.729920 1.402199 0.150373 0
M  V30 12 C -2.613928 0.577381 -0.428889 0
M  V30 13 C -1.823059 -0.286053 0.297889 0
M  V30 14 C -0.856293 -0.959017 -0.374490 0
M  V30 15 C -0.578144 -0.868647 -1.727058 0
M  V30 16 C 0.506592 -1.622218 -2.308185 0
M  V30 17 N 1.497647 -0.839621 -2.829150 0
M  V30 18 N 2.484864 -1.618668 -3.299771 0
M  V30 19 C 2.144718 -2.879742 -3.090214 0
M  V30 20 N 0.943961 -2.867545 -2.492726 0
M  V30 21 C 0.148806 -3.952328 -2.068945 0
M  V30 22 C -1.169386 -3.594615 -2.039826 0
M  V30 23 C -2.061510 -4.545104 -1.588866 0
M  V30 24 C -1.584209 -5.789338 -1.199021 0
M  V30 25 N -0.263978 -6.136277 -1.236734 0
M  V30 26 C 0.608769 -5.190763 -1.683707 0
M  V30 27 N 1.950868 -5.729234 -1.738451 0
M  V30 28 C 2.876872 -5.265186 -2.753455 0
M  V30 29 C 3.754258 -6.303345 -3.081828 0
M  V30 30 C 4.699426 -6.039706 -4.052031 0
M  V30 31 C 4.780457 -4.806048 -4.675221 0
M  V30 32 C 3.926984 -3.767280 -4.367679 0
M  V30 33 C 2.986329 -4.027216 -3.402383 0
M  V30 34 C -1.414650 0.025645 -2.417886 0
M  V30 35 C -2.410894 0.733563 -1.783673 0
M  V30 36 C -1.741240 3.967915 1.969644 0
M  V30 37 C -0.413896 3.684024 2.682642 0
M  V30 38 H 2.065621 3.831934 7.125861 0
M  V30 39 H 0.269646 3.607268 7.464837 0
M  V30 40 H 1.573974 3.022350 8.631518 0
M  V30 41 H 1.060890 1.035588 7.586654 0
M  V30 42 H 2.353882 1.596221 6.502028 0
M  V30 43 H -1.129036 0.737115 3.284722 0
M  V30 44 H -1.884976 1.366367 4.746073 0
M  V30 45 H -3.451394 1.123893 2.718829 0
M  V30 46 H -3.375534 2.747723 3.400814 0
M  V30 47 H -1.408878 2.047188 1.179613 0
M  V30 48 H -4.007505 3.403418 0.656511 0
M  V30 49 H -4.541472 1.517277 -0.626874 0
M  V30 50 H -4.198083 0.783049 0.933881 0
M  V30 51 H -2.013472 -0.381589 1.356809 0
M  V30 52 H -0.231689 -1.642930 0.208347 0
M  V30 53 H -1.670236 -2.716353 -2.346656 0
M  V30 54 H -3.123604 -4.435320 -1.499003 0
M  V30 55 H -2.212108 -6.566428 -0.840731 0
M  V30 56 H 2.234398 -6.446942 -1.069733 0
M  V30 57 H 3.641619 -7.238695 -2.559260 0
M  V30 58 H 5.379169 -6.830076 -4.312775 0
M  V30 59 H 5.523783 -4.590941 -5.442656 0
M  V30 60 H 3.899970 -2.774530 -4.784950 0
M  V30 61 H -1.213025 0.113766 -3.489914 0
M  V30 62 H -3.028296 1.416182 -2.387831 0
M  V30 63 H -1.600403 4.606902 1.097927 0
M  V30 64 H -2.409959 4.420276 2.705837 0
M  V30 65 H 0.232625 3.250269 1.884962 0
M  V30 66 H 0.062245 4.602620 3.052772 0
M  V30 END ATOM
M  V30 BEGIN BOND
M  V30 1 1 1 2
M  V30 2 1 2 3
M  V30 3 1 3 4
M  V30 4 2 4 5
M  V30 5 1 4 6
M  V30 6 1 6 7
M  V30 7 1 7 8
M  V30 8 1 8 9
M  V30 9 1 9 10
M  V30 10 1 10 11
M  V30 11 1 11 12
M  V30 12 2 12 13
M  V30 13 1 13 14
M  V30 14 2 14 15
M  V30 15 1 15 16
M  V30 16 2 16 17
M  V30 17 1 17 18
M  V30 18 2 18 19
M  V30 19 1 19 20
M  V30 20 1 20 21
M  V30 21 2 21 22
M  V30 22 1 22 23
M  V30 23 2 23 24
M  V30 24 1 24 25
M  V30 25 2 25 26
M  V30 26 1 26 27
M  V30 27 1 27 28
M  V30 28 2 28 29
M  V30 29 1 29 30
M  V30 30 2 30 31
M  V30 31 1 31 32
M  V30 32 2 32 33
M  V30 33 1 15 34
M  V30 34 2 34 35
M  V30 35 1 9 36
M  V30 36 1 36 37
M  V30 37 1 37 6
M  V30 38 1 35 12
M  V30 39 1 20 16
M  V30 40 1 26 21
M  V30 41 1 33 28
M  V30 42 1 33 19
M  V30 43 1 1 38
M  V30 44 1 1 39
M  V30 45 1 1 40
M  V30 46 1 2 41
M  V30 47 1 2 42
M  V30 48 1 7 43
M  V30 49 1 7 44
M  V30 50 1 8 45
M  V30 51 1 8 46
M  V30 52 1 9 47
M  V30 53 1 10 48
M  V30 54 1 11 49
M  V30 55 1 11 50
M  V30 56 1 13 51
M  V30 57 1 14 52
M  V30 58 1 22 53
M  V30 59 1 23 54
M  V30 60 1 24 55
M  V30 61 1 27 56
M  V30 62 1 29 57
M  V30 63 1 30 58
M  V30 64 1 31 59
M  V30 65 1 32 60
M  V30 66 1 34 61
M  V30 67 1 35 62
M  V30 68 1 36 63
M  V30 69 1 36 64
M  V30 70 1 37 65
M  V30 71 1 37 66
M  V30 END BOND
M  V30 END CTAB
M  END
>  <Dataset>  (91) 
ChEMBL_Kinases

>  <Ligand_Instance>  (91) 
nan

>  <PDB_ID>  (91) 
nan

>  <Standardized_SMILES>  (91) 
CCOC(=O)N1CCC(NCc2ccc(-c3nnc4n3-c3cccnc3Nc3ccccc3-4)cc2)CC1

>  <Name>  (91) 
nan

>  <Pocket>  (91) 
nan

>  <ATP_Site>  (91) 
nan

>  <Peripheral>  (91) 
nan

>  <Num_H_Atoms_ProtBoundConf>  (91) 
nan

>  <Num_Resolved_Atoms>  (91) 
nan

>  <Num_Not_Resolved_Atoms>  (91) 
nan

$$$$
CHEMBL3684398
     RDKit          3D

  0  0  0  0  0  0  0  0  0  0999 V3000
M  V30 BEGIN CTAB
M  V30 COUNTS 63 68 0 0 0
M  V30 BEGIN ATOM
M  V30 1 C 1.804845 -0.546885 5.290864 0
M  V30 2 N 1.217082 0.528797 4.561828 0
M  V30 3 C 0.046798 0.077790 3.801679 0
M  V30 4 C -0.565304 1.221467 3.043918 0
M  V30 5 C 0.386920 2.381945 3.102563 0
M  V30 6 N 0.131598 3.454979 2.227024 0
M  V30 7 C -1.108018 4.130685 2.323813 0
M  V30 8 C 0.785310 3.454819 0.964686 0
M  V30 9 C 0.510888 2.313194 0.091759 0
M  V30 10 C 1.333616 1.212557 0.172878 0
M  V30 11 C 1.043882 0.157914 -0.662898 0
M  V30 12 C -0.024562 0.132193 -1.582550 0
M  V30 13 C -0.292191 -0.974151 -2.475261 0
M  V30 14 N -0.200796 -0.635294 -3.788698 0
M  V30 15 N -0.411085 -1.718570 -4.555679 0
M  V30 16 C -0.636449 -2.748533 -3.731327 0
M  V30 17 N -0.563520 -2.276775 -2.479231 0
M  V30 18 C -0.730907 -2.961128 -1.258168 0
M  V30 19 C -1.132869 -2.092813 -0.282185 0
M  V30 20 C -1.286206 -2.605856 0.989561 0
M  V30 21 C -1.022418 -3.968371 1.180793 0
M  V30 22 N -0.626113 -4.826788 0.200659 0
M  V30 23 C -0.484493 -4.297908 -1.033145 0
M  V30 24 N -0.137291 -5.324896 -1.991703 0
M  V30 25 C -0.581906 -5.235657 -3.368115 0
M  V30 26 C -0.763679 -6.527798 -3.877184 0
M  V30 27 C -1.205500 -6.620860 -5.181602 0
M  V30 28 C -1.459119 -5.497230 -5.957135 0
M  V30 29 C -1.284468 -4.217679 -5.471127 0
M  V30 30 C -0.845205 -4.121551 -4.175686 0
M  V30 31 C -0.800538 1.308826 -1.581587 0
M  V30 32 C -0.560693 2.396334 -0.769627 0
M  V30 33 C 0.396924 2.812808 4.576702 0
M  V30 34 C 0.766246 1.613940 5.406589 0
M  V30 35 H 2.885928 -0.582931 5.082094 0
M  V30 36 H 1.721411 -0.291830 6.383670 0
M  V30 37 H 1.299411 -1.520847 5.097662 0
M  V30 38 H -0.689518 -0.363183 4.525743 0
M  V30 39 H 0.378211 -0.767413 3.168235 0
M  V30 40 H -0.842579 0.880751 2.049454 0
M  V30 41 H -1.517520 1.578189 3.534438 0
M  V30 42 H 1.410069 2.001497 2.898910 0
M  V30 43 H -1.286489 4.453747 3.382670 0
M  V30 44 H -2.006439 3.556081 2.018110 0
M  V30 45 H -1.072448 5.003512 1.638424 0
M  V30 46 H 1.887888 3.574064 1.178719 0
M  V30 47 H 0.530794 4.379846 0.400924 0
M  V30 48 H 2.179579 1.090632 0.820519 0
M  V30 49 H 1.636416 -0.768817 -0.679697 0
M  V30 50 H -1.405308 -1.071426 -0.308298 0
M  V30 51 H -1.596881 -2.060329 1.883601 0
M  V30 52 H -1.123911 -4.423091 2.156279 0
M  V30 53 H 0.422155 -6.140221 -1.682922 0
M  V30 54 H -0.548172 -7.359944 -3.228500 0
M  V30 55 H -1.353959 -7.610555 -5.598656 0
M  V30 56 H -1.807200 -5.571714 -6.983609 0
M  V30 57 H -1.446544 -3.285443 -5.973841 0
M  V30 58 H -1.626835 1.301627 -2.285931 0
M  V30 59 H -1.199842 3.263635 -0.825886 0
M  V30 60 H 0.987524 3.710347 4.756122 0
M  V30 61 H -0.691494 3.013769 4.801194 0
M  V30 62 H -0.090983 1.202124 6.001703 0
M  V30 63 H 1.610493 1.875852 6.096750 0
M  V30 END ATOM
M  V30 BEGIN BOND
M  V30 1 1 1 2
M  V30 2 1 2 3
M  V30 3 1 3 4
M  V30 4 1 4 5
M  V30 5 1 5 6
M  V30 6 1 6 7
M  V30 7 1 6 8
M  V30 8 1 8 9
M  V30 9 2 9 10
M  V30 10 1 10 11
M  V30 11 2 11 12
M  V30 12 1 12 13
M  V30 13 2 13 14
M  V30 14 1 14 15
M  V30 15 2 15 16
M  V30 16 1 16 17
M  V30 17 1 17 18
M  V30 18 2 18 19
M  V30 19 1 19 20
M  V30 20 2 20 21
M  V30 21 1 21 22
M  V30 22 2 22 23
M  V30 23 1 23 24
M  V30 24 1 24 25
M  V30 25 2 25 26
M  V30 26 1 26 27
M  V30 27 2 27 28
M  V30 28 1 28 29
M  V30 29 2 29 30
M  V30 30 1 12 31
M  V30 31 2 31 32
M  V30 32 1 5 33
M  V30 33 1 33 34
M  V30 34 1 34 2
M  V30 35 1 32 9
M  V30 36 1 17 13
M  V30 37 1 23 18
M  V30 38 1 30 25
M  V30 39 1 30 16
M  V30 40 1 1 35
M  V30 41 1 1 36
M  V30 42 1 1 37
M  V30 43 1 3 38
M  V30 44 1 3 39
M  V30 45 1 4 40
M  V30 46 1 4 41
M  V30 47 1 5 42
M  V30 48 1 7 43
M  V30 49 1 7 44
M  V30 50 1 7 45
M  V30 51 1 8 46
M  V30 52 1 8 47
M  V30 53 1 10 48
M  V30 54 1 11 49
M  V30 55 1 19 50
M  V30 56 1 20 51
M  V30 57 1 21 52
M  V30 58 1 24 53
M  V30 59 1 26 54
M  V30 60 1 27 55
M  V30 61 1 28 56
M  V30 62 1 29 57
M  V30 63 1 31 58
M  V30 64 1 32 59
M  V30 65 1 33 60
M  V30 66 1 33 61
M  V30 67 1 34 62
M  V30 68 1 34 63
M  V30 END BOND
M  V30 END CTAB
M  END
>  <Dataset>  (92) 
ChEMBL_Kinases

>  <Ligand_Instance>  (92) 
nan

>  <PDB_ID>  (92) 
nan

>  <Standardized_SMILES>  (92) 
CN1CCC(N(C)Cc2ccc(-c3nnc4n3-c3cccnc3Nc3ccccc3-4)cc2)CC1

>  <Name>  (92) 
nan

>  <Pocket>  (92) 
nan

>  <ATP_Site>  (92) 
nan

>  <Peripheral>  (92) 
nan

>  <Num_H_Atoms_ProtBoundConf>  (92) 
nan

>  <Num_Resolved_Atoms>  (92) 
nan

>  <Num_Not_Resolved_Atoms>  (92) 
nan

$$$$
CHEMBL3684397
     RDKit          3D

  0  0  0  0  0  0  0  0  0  0999 V3000
M  V30 BEGIN CTAB
M  V30 COUNTS 51 55 0 0 0
M  V30 BEGIN ATOM
M  V30 1 C 0.650095 -0.359624 5.848701 0
M  V30 2 C 1.668450 -0.114709 4.728063 0
M  V30 3 C 3.042951 -0.517097 5.143572 0
M  V30 4 N 4.116051 -0.366759 4.286384 0
M  V30 5 C 4.380628 -1.111213 3.139823 0
M  V30 6 C 3.363024 -1.021429 2.081411 0
M  V30 7 C 3.435918 0.108709 1.268661 0
M  V30 8 C 2.605157 0.350651 0.196403 0
M  V30 9 C 1.605052 -0.582760 -0.129675 0
M  V30 10 C 0.657773 -0.553773 -1.219076 0
M  V30 11 N 1.247631 -0.596785 -2.444683 0
M  V30 12 N 0.301430 -0.621147 -3.401195 0
M  V30 13 C -0.891715 -0.593995 -2.784040 0
M  V30 14 N -0.643513 -0.549951 -1.467296 0
M  V30 15 C -1.567324 -0.501895 -0.404401 0
M  V30 16 C -0.991925 0.084814 0.688261 0
M  V30 17 C -1.748274 0.167211 1.849210 0
M  V30 18 C -3.047636 -0.357067 1.808273 0
M  V30 19 N -3.612632 -0.937865 0.707095 0
M  V30 20 C -2.851032 -1.001981 -0.404015 0
M  V30 21 N -3.597386 -1.568148 -1.506094 0
M  V30 22 C -3.345843 -1.143490 -2.870015 0
M  V30 23 C -4.524096 -1.238883 -3.606340 0
M  V30 24 C -4.469872 -0.854405 -4.932505 0
M  V30 25 C -3.289882 -0.397146 -5.490181 0
M  V30 26 C -2.112354 -0.292019 -4.792483 0
M  V30 27 C -2.172079 -0.675836 -3.476007 0
M  V30 28 C 1.514267 -1.732073 0.679397 0
M  V30 29 C 2.361063 -1.941980 1.743443 0
M  V30 30 H 0.734133 -1.419909 6.196591 0
M  V30 31 H -0.359524 -0.212261 5.412718 0
M  V30 32 H 0.785714 0.379271 6.643795 0
M  V30 33 H 1.286221 -0.623826 3.862656 0
M  V30 34 H 1.676478 0.986119 4.602290 0
M  V30 35 H 3.197057 0.015332 6.149828 0
M  V30 36 H 3.022829 -1.604424 5.500133 0
M  V30 37 H 4.732148 0.443413 4.496598 0
M  V30 38 H 5.349307 -0.759132 2.661193 0
M  V30 39 H 4.564095 -2.201131 3.412627 0
M  V30 40 H 4.145019 0.935885 1.369649 0
M  V30 41 H 2.616588 1.201229 -0.461496 0
M  V30 42 H -0.055561 0.554406 0.835679 0
M  V30 43 H -1.480519 0.592528 2.825858 0
M  V30 44 H -3.692666 -0.331582 2.666903 0
M  V30 45 H -4.327604 -2.270585 -1.310781 0
M  V30 46 H -5.406032 -1.607161 -3.104038 0
M  V30 47 H -5.357450 -0.914769 -5.527214 0
M  V30 48 H -3.236404 -0.087916 -6.546038 0
M  V30 49 H -1.150883 0.047234 -5.129233 0
M  V30 50 H 0.781531 -2.530633 0.531180 0
M  V30 51 H 2.339298 -2.798151 2.395069 0
M  V30 END ATOM
M  V30 BEGIN BOND
M  V30 1 1 1 2
M  V30 2 1 2 3
M  V30 3 1 3 4
M  V30 4 1 4 5
M  V30 5 1 5 6
M  V30 6 2 6 7
M  V30 7 1 7 8
M  V30 8 2 8 9
M  V30 9 1 9 10
M  V30 10 2 10 11
M  V30 11 1 11 12
M  V30 12 2 12 13
M  V30 13 1 13 14
M  V30 14 1 14 15
M  V30 15 2 15 16
M  V30 16 1 16 17
M  V30 17 2 17 18
M  V30 18 1 18 19
M  V30 19 2 19 20
M  V30 20 1 20 21
M  V30 21 1 21 22
M  V30 22 2 22 23
M  V30 23 1 23 24
M  V30 24 2 24 25
M  V30 25 1 25 26
M  V30 26 2 26 27
M  V30 27 1 9 28
M  V30 28 2 28 29
M  V30 29 1 29 6
M  V30 30 1 14 10
M  V30 31 1 20 15
M  V30 32 1 27 22
M  V30 33 1 27 13
M  V30 34 1 1 30
M  V30 35 1 1 31
M  V30 36 1 1 32
M  V30 37 1 2 33
M  V30 38 1 2 34
M  V30 39 1 3 35
M  V30 40 1 3 36
M  V30 41 1 4 37
M  V30 42 1 5 38
M  V30 43 1 5 39
M  V30 44 1 7 40
M  V30 45 1 8 41
M  V30 46 1 16 42
M  V30 47 1 17 43
M  V30 48 1 18 44
M  V30 49 1 21 45
M  V30 50 1 23 46
M  V30 51 1 24 47
M  V30 52 1 25 48
M  V30 53 1 26 49
M  V30 54 1 28 50
M  V30 55 1 29 51
M  V30 END BOND
M  V30 END CTAB
M  END
>  <Dataset>  (93) 
ChEMBL_Kinases

>  <Ligand_Instance>  (93) 
nan

>  <PDB_ID>  (93) 
nan

>  <Standardized_SMILES>  (93) 
CCCNCc1ccc(-c2nnc3n2-c2cccnc2Nc2ccccc2-3)cc1

>  <Name>  (93) 
nan

>  <Pocket>  (93) 
nan

>  <ATP_Site>  (93) 
nan

>  <Peripheral>  (93) 
nan

>  <Num_H_Atoms_ProtBoundConf>  (93) 
nan

>  <Num_Resolved_Atoms>  (93) 
nan

>  <Num_Not_Resolved_Atoms>  (93) 
nan

$$$$
CHEMBL3684396
     RDKit          3D

  0  0  0  0  0  0  0  0  0  0999 V3000
M  V30 BEGIN CTAB
M  V30 COUNTS 59 64 0 0 0
M  V30 BEGIN ATOM
M  V30 1 C 5.688001 -3.308605 0.988876 0
M  V30 2 C 5.600071 -1.831296 0.991053 0
M  V30 3 O 6.144906 -1.259928 1.983572 0
M  V30 4 N 4.951073 -1.092504 -0.044399 0
M  V30 5 C 4.928264 0.344495 0.065187 0
M  V30 6 C 5.662706 1.055095 -1.041200 0
M  V30 7 C 4.653962 2.079466 -1.577353 0
M  V30 8 N 3.356021 1.502111 -1.278941 0
M  V30 9 C 2.320216 2.518538 -1.230890 0
M  V30 10 C 1.029727 1.860718 -0.924497 0
M  V30 11 C 0.650273 1.715295 0.391506 0
M  V30 12 C -0.564399 1.091920 0.572122 0
M  V30 13 C -1.428191 0.604314 -0.431003 0
M  V30 14 C -2.698921 -0.004453 -0.110382 0
M  V30 15 N -3.772517 0.682853 -0.602990 0
M  V30 16 N -4.909895 0.079045 -0.218438 0
M  V30 17 C -4.581075 -0.973916 0.505930 0
M  V30 18 N -3.244242 -1.018162 0.562853 0
M  V30 19 C -2.405635 -1.948246 1.206343 0
M  V30 20 C -1.180850 -1.993757 0.600661 0
M  V30 21 C -0.232714 -2.824454 1.158273 0
M  V30 22 C -0.571555 -3.564338 2.292562 0
M  V30 23 N -1.797957 -3.516451 2.889030 0
M  V30 24 C -2.727150 -2.687620 2.323302 0
M  V30 25 N -3.990910 -2.800071 3.014521 0
M  V30 26 C -5.234764 -2.627531 2.291612 0
M  V30 27 C -6.223799 -3.416425 2.892489 0
M  V30 28 C -7.477594 -3.387243 2.320354 0
M  V30 29 C -7.747400 -2.610627 1.199015 0
M  V30 30 C -6.790372 -1.831079 0.597734 0
M  V30 31 C -5.540746 -1.854854 1.162073 0
M  V30 32 C -0.946357 0.803132 -1.741277 0
M  V30 33 C 0.264738 1.422177 -1.984692 0
M  V30 34 C 3.544215 0.936788 0.043671 0
M  V30 35 H 5.075770 -3.702840 1.837994 0
M  V30 36 H 5.303255 -3.778923 0.074606 0
M  V30 37 H 6.724722 -3.638363 1.186746 0
M  V30 38 H 4.512573 -1.593474 -0.847491 0
M  V30 39 H 5.462551 0.626599 1.009092 0
M  V30 40 H 6.025822 0.395736 -1.847359 0
M  V30 41 H 6.535511 1.645552 -0.692088 0
M  V30 42 H 4.821930 2.212745 -2.651191 0
M  V30 43 H 4.723210 3.040731 -1.066195 0
M  V30 44 H 2.228161 3.053629 -2.177152 0
M  V30 45 H 2.589777 3.182617 -0.376058 0
M  V30 46 H 1.207535 2.037588 1.234557 0
M  V30 47 H -0.915844 0.949858 1.602488 0
M  V30 48 H -0.811051 -1.531929 -0.274965 0
M  V30 49 H 0.784948 -2.969742 0.796777 0
M  V30 50 H 0.144438 -4.223922 2.758965 0
M  V30 51 H -3.998976 -3.020457 4.025912 0
M  V30 52 H -5.949569 -3.995364 3.763928 0
M  V30 53 H -8.260780 -3.983760 2.759572 0
M  V30 54 H -8.736239 -2.585610 0.744387 0
M  V30 55 H -6.888925 -1.195254 -0.267338 0
M  V30 56 H -1.606741 0.430409 -2.507558 0
M  V30 57 H 0.592060 1.552000 -3.008067 0
M  V30 58 H 3.548039 1.791712 0.765900 0
M  V30 59 H 2.829561 0.141137 0.297407 0
M  V30 END ATOM
M  V30 BEGIN BOND
M  V30 1 1 1 2
M  V30 2 2 2 3
M  V30 3 1 2 4
M  V30 4 1 4 5
M  V30 5 1 5 6
M  V30 6 1 6 7
M  V30 7 1 7 8
M  V30 8 1 8 9
M  V30 9 1 9 10
M  V30 10 2 10 11
M  V30 11 1 11 12
M  V30 12 2 12 13
M  V30 13 1 13 14
M  V30 14 2 14 15
M  V30 15 1 15 16
M  V30 16 2 16 17
M  V30 17 1 17 18
M  V30 18 1 18 19
M  V30 19 2 19 20
M  V30 20 1 20 21
M  V30 21 2 21 22
M  V30 22 1 22 23
M  V30 23 2 23 24
M  V30 24 1 24 25
M  V30 25 1 25 26
M  V30 26 2 26 27
M  V30 27 1 27 28
M  V30 28 2 28 29
M  V30 29 1 29 30
M  V30 30 2 30 31
M  V30 31 1 13 32
M  V30 32 2 32 33
M  V30 33 1 8 34
M  V30 34 1 34 5
M  V30 35 1 33 10
M  V30 36 1 18 14
M  V30 37 1 24 19
M  V30 38 1 31 26
M  V30 39 1 31 17
M  V30 40 1 1 35
M  V30 41 1 1 36
M  V30 42 1 1 37
M  V30 43 1 4 38
M  V30 44 1 5 39
M  V30 45 1 6 40
M  V30 46 1 6 41
M  V30 47 1 7 42
M  V30 48 1 7 43
M  V30 49 1 9 44
M  V30 50 1 9 45
M  V30 51 1 11 46
M  V30 52 1 12 47
M  V30 53 1 20 48
M  V30 54 1 21 49
M  V30 55 1 22 50
M  V30 56 1 25 51
M  V30 57 1 27 52
M  V30 58 1 28 53
M  V30 59 1 29 54
M  V30 60 1 30 55
M  V30 61 1 32 56
M  V30 62 1 33 57
M  V30 63 1 34 58
M  V30 64 1 34 59
M  V30 END BOND
M  V30 END CTAB
M  END
>  <Dataset>  (94) 
ChEMBL_Kinases

>  <Ligand_Instance>  (94) 
nan

>  <PDB_ID>  (94) 
nan

>  <Standardized_SMILES>  (94) 
CC(=O)NC1CCN(Cc2ccc(-c3nnc4n3-c3cccnc3Nc3ccccc3-4)cc2)C1

>  <Name>  (94) 
nan

>  <Pocket>  (94) 
nan

>  <ATP_Site>  (94) 
nan

>  <Peripheral>  (94) 
nan

>  <Num_H_Atoms_ProtBoundConf>  (94) 
nan

>  <Num_Resolved_Atoms>  (94) 
nan

>  <Num_Not_Resolved_Atoms>  (94) 
nan

$$$$
CHEMBL3684395
     RDKit          3D

  0  0  0  0  0  0  0  0  0  0999 V3000
M  V30 BEGIN CTAB
M  V30 COUNTS 57 61 0 0 0
M  V30 BEGIN ATOM
M  V30 1 C 4.774538 2.414477 3.537809 0
M  V30 2 C 5.264266 1.770456 2.228298 0
M  V30 3 C 6.140684 0.613123 2.630102 0
M  V30 4 C 4.063002 1.330695 1.468610 0
M  V30 5 N 4.227463 0.717195 0.233455 0
M  V30 6 C 4.813338 -0.573054 0.184112 0
M  V30 7 C 3.308668 1.015503 -0.819099 0
M  V30 8 C 1.945197 0.587007 -0.420584 0
M  V30 9 C 0.998438 1.374003 0.198110 0
M  V30 10 C -0.253538 0.918093 0.552736 0
M  V30 11 C -0.605834 -0.418197 0.277688 0
M  V30 12 C -1.880395 -1.002516 0.638478 0
M  V30 13 N -2.121310 -1.006206 1.984899 0
M  V30 14 N -3.279514 -1.601783 2.241404 0
M  V30 15 C -3.801784 -1.990650 1.065651 0
M  V30 16 N -2.940986 -1.615582 0.106314 0
M  V30 17 C -3.032907 -1.786852 -1.285578 0
M  V30 18 C -2.297356 -0.823401 -1.920574 0
M  V30 19 C -2.241233 -0.889831 -3.300441 0
M  V30 20 C -2.935028 -1.924490 -3.941341 0
M  V30 21 N -3.666907 -2.873114 -3.283656 0
M  V30 22 C -3.704925 -2.784560 -1.935173 0
M  V30 23 N -4.573874 -3.803975 -1.389205 0
M  V30 24 C -5.325754 -3.556721 -0.174891 0
M  V30 25 C -6.522227 -4.284434 -0.214354 0
M  V30 26 C -7.367686 -4.147379 0.865462 0
M  V30 27 C -7.055577 -3.331164 1.941273 0
M  V30 28 C -5.886946 -2.607709 2.002696 0
M  V30 29 C -5.044953 -2.742547 0.931460 0
M  V30 30 C 0.392549 -1.183980 -0.355073 0
M  V30 31 C 1.646885 -0.729349 -0.710798 0
M  V30 32 H 5.649583 2.357005 4.231035 0
M  V30 33 H 3.889272 1.878579 3.916745 0
M  V30 34 H 4.551321 3.483729 3.325135 0
M  V30 35 H 5.843200 2.575381 1.715544 0
M  V30 36 H 6.539623 0.804239 3.672712 0
M  V30 37 H 7.052394 0.594018 1.993257 0
M  V30 38 H 5.616158 -0.343610 2.700308 0
M  V30 39 H 3.497579 0.627033 2.142195 0
M  V30 40 H 3.395480 2.223396 1.374099 0
M  V30 41 H 4.623235 -1.043406 -0.818440 0
M  V30 42 H 4.305328 -1.233833 0.914122 0
M  V30 43 H 5.887890 -0.650493 0.339238 0
M  V30 44 H 3.633330 0.478859 -1.728788 0
M  V30 45 H 3.256895 2.118131 -1.032268 0
M  V30 46 H 1.244649 2.403011 0.413548 0
M  V30 47 H -0.983011 1.549683 1.037560 0
M  V30 48 H -1.773618 0.025451 -1.570102 0
M  V30 49 H -1.713532 -0.227750 -3.994850 0
M  V30 50 H -2.932669 -2.036067 -5.002215 0
M  V30 51 H -4.670519 -4.710179 -1.878847 0
M  V30 52 H -6.702538 -4.902715 -1.080023 0
M  V30 53 H -8.288614 -4.694260 0.857408 0
M  V30 54 H -7.727543 -3.223101 2.797306 0
M  V30 55 H -5.544703 -1.952821 2.775002 0
M  V30 56 H 0.089580 -2.224522 -0.557766 0
M  V30 57 H 2.286949 -1.452566 -1.188613 0
M  V30 END ATOM
M  V30 BEGIN BOND
M  V30 1 1 1 2
M  V30 2 1 2 3
M  V30 3 1 2 4
M  V30 4 1 4 5
M  V30 5 1 5 6
M  V30 6 1 5 7
M  V30 7 1 7 8
M  V30 8 2 8 9
M  V30 9 1 9 10
M  V30 10 2 10 11
M  V30 11 1 11 12
M  V30 12 2 12 13
M  V30 13 1 13 14
M  V30 14 2 14 15
M  V30 15 1 15 16
M  V30 16 1 16 17
M  V30 17 2 17 18
M  V30 18 1 18 19
M  V30 19 2 19 20
M  V30 20 1 20 21
M  V30 21 2 21 22
M  V30 22 1 22 23
M  V30 23 1 23 24
M  V30 24 2 24 25
M  V30 25 1 25 26
M  V30 26 2 26 27
M  V30 27 1 27 28
M  V30 28 2 28 29
M  V30 29 1 11 30
M  V30 30 2 30 31
M  V30 31 1 31 8
M  V30 32 1 16 12
M  V30 33 1 22 17
M  V30 34 1 29 24
M  V30 35 1 29 15
M  V30 36 1 1 32
M  V30 37 1 1 33
M  V30 38 1 1 34
M  V30 39 1 2 35
M  V30 40 1 3 36
M  V30 41 1 3 37
M  V30 42 1 3 38
M  V30 43 1 4 39
M  V30 44 1 4 40
M  V30 45 1 6 41
M  V30 46 1 6 42
M  V30 47 1 6 43
M  V30 48 1 7 44
M  V30 49 1 7 45
M  V30 50 1 9 46
M  V30 51 1 10 47
M  V30 52 1 18 48
M  V30 53 1 19 49
M  V30 54 1 20 50
M  V30 55 1 23 51
M  V30 56 1 25 52
M  V30 57 1 26 53
M  V30 58 1 27 54
M  V30 59 1 28 55
M  V30 60 1 30 56
M  V30 61 1 31 57
M  V30 END BOND
M  V30 END CTAB
M  END
>  <Dataset>  (95) 
ChEMBL_Kinases

>  <Ligand_Instance>  (95) 
nan

>  <PDB_ID>  (95) 
nan

>  <Standardized_SMILES>  (95) 
CC(C)CN(C)Cc1ccc(-c2nnc3n2-c2cccnc2Nc2ccccc2-3)cc1

>  <Name>  (95) 
nan

>  <Pocket>  (95) 
nan

>  <ATP_Site>  (95) 
nan

>  <Peripheral>  (95) 
nan

>  <Num_H_Atoms_ProtBoundConf>  (95) 
nan

>  <Num_Resolved_Atoms>  (95) 
nan

>  <Num_Not_Resolved_Atoms>  (95) 
nan

$$$$
CHEMBL3684394
     RDKit          3D

  0  0  0  0  0  0  0  0  0  0999 V3000
M  V30 BEGIN CTAB
M  V30 COUNTS 53 58 0 0 0
M  V30 BEGIN ATOM
M  V30 1 C 6.369977 -0.870483 4.767668 0
M  V30 2 C 5.283355 -1.281246 5.514934 0
M  V30 3 C 3.995815 -1.297089 5.029047 0
M  V30 4 C 3.852911 -0.872861 3.734580 0
M  V30 5 C 4.923971 -0.446066 2.938017 0
M  V30 6 C 6.222012 -0.443572 3.465069 0
M  V30 7 N 4.958849 0.046155 1.576082 0
M  V30 8 C 3.824808 0.755028 1.029543 0
M  V30 9 N 4.247479 1.692224 0.128048 0
M  V30 10 C 3.276583 2.487585 -0.418700 0
M  V30 11 C 1.913504 2.392567 -0.108580 0
M  V30 12 C 1.516800 1.437387 0.804330 0
M  V30 13 C 2.490140 0.643233 1.344108 0
M  V30 14 N 1.924298 -0.313534 2.206785 0
M  V30 15 C 0.657932 -0.691621 2.026016 0
M  V30 16 C -0.476732 -0.507490 1.148091 0
M  V30 17 C -0.435914 -0.815420 -0.224164 0
M  V30 18 C -1.435187 -0.716090 -1.143379 0
M  V30 19 C -2.620536 -0.254286 -0.637875 0
M  V30 20 C -3.798431 -0.102339 -1.560110 0
M  V30 21 N -4.509965 -1.363281 -1.532813 0
M  V30 22 C -5.651716 -1.193393 -2.436452 0
M  V30 23 C -6.474337 -2.464043 -2.269252 0
M  V30 24 O -5.732823 -3.464978 -2.901183 0
M  V30 25 C -4.556898 -3.670038 -2.223298 0
M  V30 26 C -3.703460 -2.438761 -2.053837 0
M  V30 27 C -2.796384 0.083228 0.685267 0
M  V30 28 C -1.738650 -0.042940 1.560756 0
M  V30 29 N 0.431075 -1.605724 3.018352 0
M  V30 30 N 1.540247 -1.755045 3.753110 0
M  V30 31 C 2.481281 -0.947776 3.246543 0
M  V30 32 H 7.357882 -0.877607 5.195185 0
M  V30 33 H 5.395323 -1.622927 6.556261 0
M  V30 34 H 3.090885 -1.595334 5.521929 0
M  V30 35 H 7.023454 -0.111153 2.820676 0
M  V30 36 H 5.804699 -0.095214 0.995703 0
M  V30 37 H 3.629988 3.220476 -1.130260 0
M  V30 38 H 1.274839 3.094414 -0.625259 0
M  V30 39 H 0.477539 1.500890 0.984801 0
M  V30 40 H 0.556167 -1.178288 -0.537539 0
M  V30 41 H -1.266558 -0.984649 -2.156465 0
M  V30 42 H -3.459206 0.165183 -2.583549 0
M  V30 43 H -4.440635 0.699721 -1.188790 0
M  V30 44 H -6.221268 -0.275392 -2.188041 0
M  V30 45 H -5.260905 -1.125460 -3.476981 0
M  V30 46 H -7.487753 -2.364592 -2.666526 0
M  V30 47 H -6.482134 -2.668023 -1.162240 0
M  V30 48 H -4.718097 -4.175547 -1.261706 0
M  V30 49 H -3.953957 -4.383224 -2.854692 0
M  V30 50 H -3.235044 -2.196800 -3.032414 0
M  V30 51 H -2.919013 -2.677855 -1.305882 0
M  V30 52 H -3.739704 0.447962 1.074713 0
M  V30 53 H -1.820438 0.210107 2.621979 0
M  V30 END ATOM
M  V30 BEGIN BOND
M  V30 1 2 1 2
M  V30 2 1 2 3
M  V30 3 2 3 4
M  V30 4 1 4 5
M  V30 5 2 5 6
M  V30 6 1 5 7
M  V30 7 1 7 8
M  V30 8 2 8 9
M  V30 9 1 9 10
M  V30 10 2 10 11
M  V30 11 1 11 12
M  V30 12 2 12 13
M  V30 13 1 13 14
M  V30 14 1 14 15
M  V30 15 1 15 16
M  V30 16 2 16 17
M  V30 17 1 17 18
M  V30 18 2 18 19
M  V30 19 1 19 20
M  V30 20 1 20 21
M  V30 21 1 21 22
M  V30 22 1 22 23
M  V30 23 1 23 24
M  V30 24 1 24 25
M  V30 25 1 25 26
M  V30 26 1 19 27
M  V30 27 2 27 28
M  V30 28 2 15 29
M  V30 29 1 29 30
M  V30 30 2 30 31
M  V30 31 1 6 1
M  V30 32 1 13 8
M  V30 33 1 31 14
M  V30 34 1 31 4
M  V30 35 1 28 16
M  V30 36 1 26 21
M  V30 37 1 1 32
M  V30 38 1 2 33
M  V30 39 1 3 34
M  V30 40 1 6 35
M  V30 41 1 7 36
M  V30 42 1 10 37
M  V30 43 1 11 38
M  V30 44 1 12 39
M  V30 45 1 17 40
M  V30 46 1 18 41
M  V30 47 1 20 42
M  V30 48 1 20 43
M  V30 49 1 22 44
M  V30 50 1 22 45
M  V30 51 1 23 46
M  V30 52 1 23 47
M  V30 53 1 25 48
M  V30 54 1 25 49
M  V30 55 1 26 50
M  V30 56 1 26 51
M  V30 57 1 27 52
M  V30 58 1 28 53
M  V30 END BOND
M  V30 END CTAB
M  END
>  <Dataset>  (96) 
ChEMBL_Kinases

>  <Ligand_Instance>  (96) 
nan

>  <PDB_ID>  (96) 
nan

>  <Standardized_SMILES>  (96) 
c1ccc2c(c1)Nc1ncccc1-n1c(-c3ccc(CN4CCOCC4)cc3)nnc1-2

>  <Name>  (96) 
nan

>  <Pocket>  (96) 
nan

>  <ATP_Site>  (96) 
nan

>  <Peripheral>  (96) 
nan

>  <Num_H_Atoms_ProtBoundConf>  (96) 
nan

>  <Num_Resolved_Atoms>  (96) 
nan

>  <Num_Not_Resolved_Atoms>  (96) 
nan

$$$$
CHEMBL3684393
     RDKit          3D

  0  0  0  0  0  0  0  0  0  0999 V3000
M  V30 BEGIN CTAB
M  V30 COUNTS 56 61 0 0 0
M  V30 BEGIN ATOM
M  V30 1 O 5.619709 -1.743146 0.272275 0
M  V30 2 C 4.986535 -0.600467 0.789466 0
M  V30 3 C 5.819543 -0.068301 1.919187 0
M  V30 4 C 5.570780 1.406916 2.079318 0
M  V30 5 C 4.237574 1.827881 1.480131 0
M  V30 6 N 4.281743 1.614751 0.067092 0
M  V30 7 C 3.069369 1.962996 -0.604715 0
M  V30 8 C 1.873537 1.216460 -0.162529 0
M  V30 9 C 1.114607 1.725023 0.871295 0
M  V30 10 C -0.001648 1.031661 1.286717 0
M  V30 11 C -0.402188 -0.180787 0.696871 0
M  V30 12 C -1.545415 -0.957713 1.121867 0
M  V30 13 N -1.435345 -1.380302 2.410042 0
M  V30 14 N -2.504226 -2.134762 2.719615 0
M  V30 15 C -3.295820 -2.196173 1.635950 0
M  V30 16 N -2.694172 -1.471769 0.681817 0
M  V30 17 C -3.111389 -1.213289 -0.638202 0
M  V30 18 C -2.565556 -0.040929 -1.085726 0
M  V30 19 C -2.842393 0.317438 -2.389529 0
M  V30 20 C -3.651888 -0.535762 -3.139967 0
M  V30 21 N -4.204139 -1.706271 -2.699173 0
M  V30 22 C -3.907905 -2.021018 -1.414301 0
M  V30 23 N -4.607314 -3.233038 -1.039405 0
M  V30 24 C -5.055576 -3.433452 0.325726 0
M  V30 25 C -6.214303 -4.206265 0.342596 0
M  V30 26 C -6.779372 -4.473672 1.571545 0
M  V30 27 C -6.225765 -3.997725 2.754608 0
M  V30 28 C -5.079528 -3.231290 2.768648 0
M  V30 29 C -4.527491 -2.973254 1.539585 0
M  V30 30 C 0.438567 -0.610255 -0.345683 0
M  V30 31 C 1.566251 0.035807 -0.807055 0
M  V30 32 C 4.910660 0.409674 -0.357575 0
M  V30 33 H 5.033160 -2.293135 -0.278773 0
M  V30 34 H 3.961487 -0.842154 1.065781 0
M  V30 35 H 6.877752 -0.307366 1.703643 0
M  V30 36 H 5.554621 -0.659715 2.830937 0
M  V30 37 H 6.352685 1.974095 1.535306 0
M  V30 38 H 5.630362 1.680807 3.144259 0
M  V30 39 H 4.115097 2.895994 1.685705 0
M  V30 40 H 3.422627 1.189206 1.888257 0
M  V30 41 H 2.889732 3.065316 -0.514772 0
M  V30 42 H 3.195843 1.784765 -1.692513 0
M  V30 43 H 1.380752 2.654179 1.357910 0
M  V30 44 H -0.638430 1.391181 2.102663 0
M  V30 45 H -1.985412 0.701539 -0.606120 0
M  V30 46 H -2.492774 1.207518 -2.905505 0
M  V30 47 H -3.898256 -0.301803 -4.170235 0
M  V30 48 H -4.806135 -3.952080 -1.736390 0
M  V30 49 H -6.589573 -4.545024 -0.608731 0
M  V30 50 H -7.679132 -5.072125 1.602178 0
M  V30 51 H -6.675245 -4.210683 3.723203 0
M  V30 52 H -4.572274 -2.816615 3.622369 0
M  V30 53 H 0.130591 -1.548818 -0.804001 0
M  V30 54 H 2.122895 -0.408466 -1.619980 0
M  V30 55 H 4.467416 -0.111937 -1.202917 0
M  V30 56 H 5.988271 0.580490 -0.649923 0
M  V30 END ATOM
M  V30 BEGIN BOND
M  V30 1 1 1 2
M  V30 2 1 2 3
M  V30 3 1 3 4
M  V30 4 1 4 5
M  V30 5 1 5 6
M  V30 6 1 6 7
M  V30 7 1 7 8
M  V30 8 2 8 9
M  V30 9 1 9 10
M  V30 10 2 10 11
M  V30 11 1 11 12
M  V30 12 2 12 13
M  V30 13 1 13 14
M  V30 14 2 14 15
M  V30 15 1 15 16
M  V30 16 1 16 17
M  V30 17 2 17 18
M  V30 18 1 18 19
M  V30 19 2 19 20
M  V30 20 1 20 21
M  V30 21 2 21 22
M  V30 22 1 22 23
M  V30 23 1 23 24
M  V30 24 2 24 25
M  V30 25 1 25 26
M  V30 26 2 26 27
M  V30 27 1 27 28
M  V30 28 2 28 29
M  V30 29 1 11 30
M  V30 30 2 30 31
M  V30 31 1 6 32
M  V30 32 1 32 2
M  V30 33 1 31 8
M  V30 34 1 16 12
M  V30 35 1 22 17
M  V30 36 1 29 24
M  V30 37 1 29 15
M  V30 38 1 1 33
M  V30 39 1 2 34
M  V30 40 1 3 35
M  V30 41 1 3 36
M  V30 42 1 4 37
M  V30 43 1 4 38
M  V30 44 1 5 39
M  V30 45 1 5 40
M  V30 46 1 7 41
M  V30 47 1 7 42
M  V30 48 1 9 43
M  V30 49 1 10 44
M  V30 50 1 18 45
M  V30 51 1 19 46
M  V30 52 1 20 47
M  V30 53 1 23 48
M  V30 54 1 25 49
M  V30 55 1 26 50
M  V30 56 1 27 51
M  V30 57 1 28 52
M  V30 58 1 30 53
M  V30 59 1 31 54
M  V30 60 1 32 55
M  V30 61 1 32 56
M  V30 END BOND
M  V30 END CTAB
M  END
>  <Dataset>  (97) 
ChEMBL_Kinases

>  <Ligand_Instance>  (97) 
nan

>  <PDB_ID>  (97) 
nan

>  <Standardized_SMILES>  (97) 
OC1CCCN(Cc2ccc(-c3nnc4n3-c3cccnc3Nc3ccccc3-4)cc2)C1

>  <Name>  (97) 
nan

>  <Pocket>  (97) 
nan

>  <ATP_Site>  (97) 
nan

>  <Peripheral>  (97) 
nan

>  <Num_H_Atoms_ProtBoundConf>  (97) 
nan

>  <Num_Resolved_Atoms>  (97) 
nan

>  <Num_Not_Resolved_Atoms>  (97) 
nan

$$$$
CHEMBL3684392
     RDKit          3D

  0  0  0  0  0  0  0  0  0  0999 V3000
M  V30 BEGIN CTAB
M  V30 COUNTS 67 73 0 0 0
M  V30 BEGIN ATOM
M  V30 1 C 3.543278 0.896462 6.276171 0
M  V30 2 C 3.173462 -0.094714 5.367998 0
M  V30 3 C 3.345564 0.124842 4.015358 0
M  V30 4 C 3.872433 1.289339 3.489727 0
M  V30 5 C 4.003970 1.394351 2.014330 0
M  V30 6 N 2.851236 1.935021 1.370386 0
M  V30 7 C 2.575266 3.272577 1.863353 0
M  V30 8 C 1.140470 3.542783 1.381803 0
M  V30 9 N 1.158067 3.629214 -0.035953 0
M  V30 10 C -0.053886 3.280312 -0.701429 0
M  V30 11 C -0.525521 1.895307 -0.462380 0
M  V30 12 C -1.381778 1.589771 0.576502 0
M  V30 13 C -1.816008 0.298832 0.795913 0
M  V30 14 C -1.399693 -0.757659 -0.035458 0
M  V30 15 C -1.761168 -2.149548 0.116877 0
M  V30 16 N -1.341958 -2.698453 1.294826 0
M  V30 17 N -1.664653 -3.985088 1.339486 0
M  V30 18 C -2.293223 -4.284804 0.197897 0
M  V30 19 N -2.345365 -3.158201 -0.529478 0
M  V30 20 C -2.905577 -2.946869 -1.798410 0
M  V30 21 C -3.257663 -1.632237 -1.947043 0
M  V30 22 C -3.777068 -1.250090 -3.168067 0
M  V30 23 C -3.907483 -2.229923 -4.158844 0
M  V30 24 N -3.556719 -3.541118 -3.999450 0
M  V30 25 C -3.052729 -3.884903 -2.796973 0
M  V30 26 N -2.798149 -5.309240 -2.744832 0
M  V30 27 C -2.934638 -6.032396 -1.495339 0
M  V30 28 C -3.335167 -7.347887 -1.758693 0
M  V30 29 C -3.530142 -8.173984 -0.675604 0
M  V30 30 C -3.340168 -7.728780 0.614776 0
M  V30 31 C -2.946501 -6.443853 0.912360 0
M  V30 32 C -2.751266 -5.619488 -0.168108 0
M  V30 33 C -0.529689 -0.355096 -1.066105 0
M  V30 34 C -0.068714 0.919366 -1.325059 0
M  V30 35 C 2.307953 3.133991 -0.704434 0
M  V30 36 C 3.067610 2.048055 -0.036796 0
M  V30 37 C 4.245627 2.286856 4.387385 0
M  V30 38 C 4.063755 2.043508 5.732760 0
M  V30 39 H 3.427682 0.770532 7.340521 0
M  V30 40 H 2.760464 -1.012508 5.740152 0
M  V30 41 H 3.042549 -0.679593 3.330570 0
M  V30 42 H 4.157887 0.352850 1.605001 0
M  V30 43 H 4.917566 1.998574 1.779693 0
M  V30 44 H 3.265554 4.008224 1.452043 0
M  V30 45 H 2.485527 3.273859 2.974830 0
M  V30 46 H 0.584271 2.647206 1.691767 0
M  V30 47 H 0.767166 4.498194 1.789733 0
M  V30 48 H -0.894748 3.936725 -0.335499 0
M  V30 49 H 0.006577 3.476594 -1.784505 0
M  V30 50 H -1.746069 2.347920 1.255824 0
M  V30 51 H -2.489239 0.017299 1.601637 0
M  V30 52 H -3.254397 -0.816714 -1.273344 0
M  V30 53 H -4.103397 -0.236443 -3.442625 0
M  V30 54 H -4.301668 -2.000683 -5.129847 0
M  V30 55 H -2.537330 -5.807868 -3.595439 0
M  V30 56 H -3.462480 -7.628830 -2.794177 0
M  V30 57 H -3.839889 -9.194426 -0.856789 0
M  V30 58 H -3.493962 -8.380856 1.484964 0
M  V30 59 H -2.769238 -5.994040 1.876398 0
M  V30 60 H -0.195904 -1.172585 -1.724541 0
M  V30 61 H 0.597419 1.046860 -2.163847 0
M  V30 62 H 3.022355 4.006163 -0.788355 0
M  V30 63 H 2.047571 2.911023 -1.761019 0
M  V30 64 H 2.762061 1.068742 -0.509061 0
M  V30 65 H 4.174991 2.102614 -0.233296 0
M  V30 66 H 4.654781 3.190489 3.989139 0
M  V30 67 H 4.350899 2.814208 6.445391 0
M  V30 END ATOM
M  V30 BEGIN BOND
M  V30 1 2 1 2
M  V30 2 1 2 3
M  V30 3 2 3 4
M  V30 4 1 4 5
M  V30 5 1 5 6
M  V30 6 1 6 7
M  V30 7 1 7 8
M  V30 8 1 8 9
M  V30 9 1 9 10
M  V30 10 1 10 11
M  V30 11 2 11 12
M  V30 12 1 12 13
M  V30 13 2 13 14
M  V30 14 1 14 15
M  V30 15 2 15 16
M  V30 16 1 16 17
M  V30 17 2 17 18
M  V30 18 1 18 19
M  V30 19 1 19 20
M  V30 20 2 20 21
M  V30 21 1 21 22
M  V30 22 2 22 23
M  V30 23 1 23 24
M  V30 24 2 24 25
M  V30 25 1 25 26
M  V30 26 1 26 27
M  V30 27 2 27 28
M  V30 28 1 28 29
M  V30 29 2 29 30
M  V30 30 1 30 31
M  V30 31 2 31 32
M  V30 32 1 14 33
M  V30 33 2 33 34
M  V30 34 1 9 35
M  V30 35 1 35 36
M  V30 36 1 4 37
M  V30 37 2 37 38
M  V30 38 1 38 1
M  V30 39 1 36 6
M  V30 40 1 34 11
M  V30 41 1 19 15
M  V30 42 1 25 20
M  V30 43 1 32 27
M  V30 44 1 32 18
M  V30 45 1 1 39
M  V30 46 1 2 40
M  V30 47 1 3 41
M  V30 48 1 5 42
M  V30 49 1 5 43
M  V30 50 1 7 44
M  V30 51 1 7 45
M  V30 52 1 8 46
M  V30 53 1 8 47
M  V30 54 1 10 48
M  V30 55 1 10 49
M  V30 56 1 12 50
M  V30 57 1 13 51
M  V30 58 1 21 52
M  V30 59 1 22 53
M  V30 60 1 23 54
M  V30 61 1 26 55
M  V30 62 1 28 56
M  V30 63 1 29 57
M  V30 64 1 30 58
M  V30 65 1 31 59
M  V30 66 1 33 60
M  V30 67 1 34 61
M  V30 68 1 35 62
M  V30 69 1 35 63
M  V30 70 1 36 64
M  V30 71 1 36 65
M  V30 72 1 37 66
M  V30 73 1 38 67
M  V30 END BOND
M  V30 END CTAB
M  END
>  <Dataset>  (98) 
ChEMBL_Kinases

>  <Ligand_Instance>  (98) 
nan

>  <PDB_ID>  (98) 
nan

>  <Standardized_SMILES>  (98) 
c1ccc(CN2CCN(Cc3ccc(-c4nnc5n4-c4cccnc4Nc4ccccc4-5)cc3)CC2)cc1

>  <Name>  (98) 
nan

>  <Pocket>  (98) 
nan

>  <ATP_Site>  (98) 
nan

>  <Peripheral>  (98) 
nan

>  <Num_H_Atoms_ProtBoundConf>  (98) 
nan

>  <Num_Resolved_Atoms>  (98) 
nan

>  <Num_Not_Resolved_Atoms>  (98) 
nan

$$$$
CHEMBL3684440
     RDKit          3D

  0  0  0  0  0  0  0  0  0  0999 V3000
M  V30 BEGIN CTAB
M  V30 COUNTS 70 76 0 0 0
M  V30 BEGIN ATOM
M  V30 1 C 10.597834 -4.215220 1.547601 0 CHG=-1 VAL=3
M  V30 2 N 9.616497 -3.772982 1.124999 0 CHG=1 VAL=4
M  V30 3 C 8.449912 -3.245298 0.647136 0
M  V30 4 C 8.271500 -1.880269 0.579766 0
M  V30 5 C 7.125924 -1.320189 0.110576 0
M  V30 6 C 6.104709 -2.145564 -0.313590 0
M  V30 7 C 4.796859 -1.783191 -0.850967 0
M  V30 8 O 3.851690 -2.513460 -1.242348 0
M  V30 9 N 4.479695 -0.402603 -0.977364 0
M  V30 10 C 3.382539 0.391242 -1.426739 0
M  V30 11 C 3.689766 1.270175 -2.612677 0
M  V30 12 C 2.433049 2.037834 -2.958218 0
M  V30 13 N 1.299252 1.463408 -2.296984 0
M  V30 14 C 0.044130 1.962044 -2.791850 0
M  V30 15 C -1.102218 1.344674 -2.081136 0
M  V30 16 C -1.636320 0.181884 -2.586380 0
M  V30 17 C -2.703705 -0.398679 -1.930919 0
M  V30 18 C -3.266603 0.156936 -0.762008 0
M  V30 19 C -4.404774 -0.408310 -0.071936 0
M  V30 20 N -5.528409 -0.458051 -0.843016 0
M  V30 21 N -6.552018 -0.946162 -0.121523 0
M  V30 22 C -6.091676 -1.208290 1.103445 0
M  V30 23 N -4.792747 -0.880137 1.112571 0
M  V30 24 C -3.855883 -0.971969 2.161910 0
M  V30 25 C -2.588156 -1.085643 1.661001 0
M  V30 26 C -1.553918 -1.129987 2.573193 0
M  V30 27 C -1.873185 -1.058693 3.932543 0
M  V30 28 N -3.139842 -0.949157 4.433382 0
M  V30 29 C -4.139242 -0.907994 3.509031 0
M  V30 30 N -5.426478 -0.869219 4.167580 0
M  V30 31 C -6.582151 -1.491260 3.554040 0
M  V30 32 C -7.448280 -1.950028 4.553630 0
M  V30 33 C -8.599042 -2.587883 4.141265 0
M  V30 34 C -8.894883 -2.771923 2.795694 0
M  V30 35 C -8.055521 -2.327052 1.796048 0
M  V30 36 C -6.912063 -1.692594 2.207214 0
M  V30 37 C -2.638890 1.348602 -0.335328 0
M  V30 38 C -1.575495 1.969921 -0.947350 0
M  V30 39 C 1.411678 1.703787 -0.873263 0
M  V30 40 C 2.765206 1.267292 -0.357133 0
M  V30 41 C 6.245429 -3.532430 -0.261830 0
M  V30 42 C 7.432395 -4.088849 0.224408 0
M  V30 43 H 9.042308 -1.180210 0.900244 0
M  V30 44 H 6.897311 -0.274932 0.021169 0
M  V30 45 H 5.115152 0.393279 -0.713212 0
M  V30 46 H 2.568749 -0.285994 -1.760573 0
M  V30 47 H 4.492653 1.985660 -2.431893 0
M  V30 48 H 3.916418 0.612158 -3.496989 0
M  V30 49 H 2.530536 3.089329 -2.559485 0
M  V30 50 H 2.307611 2.178439 -4.051841 0
M  V30 51 H 0.008749 3.058656 -2.629003 0
M  V30 52 H 0.003319 1.794372 -3.882139 0
M  V30 53 H -1.243166 -0.290280 -3.483197 0
M  V30 54 H -3.165962 -1.317353 -2.284527 0
M  V30 55 H -2.225261 -1.194863 0.673947 0
M  V30 56 H -0.497474 -1.216226 2.340066 0
M  V30 57 H -1.102931 -1.086905 4.687969 0
M  V30 58 H -5.516317 -0.411003 5.084074 0
M  V30 59 H -7.163090 -1.774240 5.580956 0
M  V30 60 H -9.279859 -2.949219 4.885786 0
M  V30 61 H -9.800176 -3.274220 2.469867 0
M  V30 62 H -8.184367 -2.414376 0.730476 0
M  V30 63 H -3.085275 1.758637 0.562374 0
M  V30 64 H -1.190662 2.878648 -0.515506 0
M  V30 65 H 0.667553 1.035883 -0.393812 0
M  V30 66 H 1.321406 2.766558 -0.595918 0
M  V30 67 H 3.433636 2.129194 -0.132460 0
M  V30 68 H 2.669051 0.688636 0.590701 0
M  V30 69 H 5.520003 -4.273734 -0.563823 0
M  V30 70 H 7.605296 -5.164930 0.290783 0
M  V30 END ATOM
M  V30 BEGIN BOND
M  V30 1 3 1 2
M  V30 2 1 2 3
M  V30 3 2 3 4
M  V30 4 1 4 5
M  V30 5 2 5 6
M  V30 6 1 6 7
M  V30 7 2 7 8
M  V30 8 1 7 9
M  V30 9 1 9 10
M  V30 10 1 10 11
M  V30 11 1 11 12
M  V30 12 1 12 13
M  V30 13 1 13 14
M  V30 14 1 14 15
M  V30 15 2 15 16
M  V30 16 1 16 17
M  V30 17 2 17 18
M  V30 18 1 18 19
M  V30 19 2 19 20
M  V30 20 1 20 21
M  V30 21 2 21 22
M  V30 22 1 22 23
M  V30 23 1 23 24
M  V30 24 2 24 25
M  V30 25 1 25 26
M  V30 26 2 26 27
M  V30 27 1 27 28
M  V30 28 2 28 29
M  V30 29 1 29 30
M  V30 30 1 30 31
M  V30 31 2 31 32
M  V30 32 1 32 33
M  V30 33 2 33 34
M  V30 34 1 34 35
M  V30 35 2 35 36
M  V30 36 1 18 37
M  V30 37 2 37 38
M  V30 38 1 13 39
M  V30 39 1 39 40
M  V30 40 1 6 41
M  V30 41 2 41 42
M  V30 42 1 42 3
M  V30 43 1 40 10
M  V30 44 1 38 15
M  V30 45 1 23 19
M  V30 46 1 29 24
M  V30 47 1 36 31
M  V30 48 1 36 22
M  V30 49 1 4 43
M  V30 50 1 5 44
M  V30 51 1 9 45
M  V30 52 1 10 46
M  V30 53 1 11 47
M  V30 54 1 11 48
M  V30 55 1 12 49
M  V30 56 1 12 50
M  V30 57 1 14 51
M  V30 58 1 14 52
M  V30 59 1 16 53
M  V30 60 1 17 54
M  V30 61 1 25 55
M  V30 62 1 26 56
M  V30 63 1 27 57
M  V30 64 1 30 58
M  V30 65 1 32 59
M  V30 66 1 33 60
M  V30 67 1 34 61
M  V30 68 1 35 62
M  V30 69 1 37 63
M  V30 70 1 38 64
M  V30 71 1 39 65
M  V30 72 1 39 66
M  V30 73 1 40 67
M  V30 74 1 40 68
M  V30 75 1 41 69
M  V30 76 1 42 70
M  V30 END BOND
M  V30 END CTAB
M  END
>  <Dataset>  (99) 
ChEMBL_Kinases

>  <Ligand_Instance>  (99) 
nan

>  <PDB_ID>  (99) 
nan

>  <Standardized_SMILES>  (99) 
[C-]#[N+]c1ccc(C(=O)NC2CCN(Cc3ccc(-c4nnc5n4-c4cccnc4Nc4ccccc4-5)cc3)CC2)cc1

>  <Name>  (99) 
nan

>  <Pocket>  (99) 
nan

>  <ATP_Site>  (99) 
nan

>  <Peripheral>  (99) 
nan

>  <Num_H_Atoms_ProtBoundConf>  (99) 
nan

>  <Num_Resolved_Atoms>  (99) 
nan

>  <Num_Not_Resolved_Atoms>  (99) 
nan

$$$$
CHEMBL3684375
     RDKit          3D

  0  0  0  0  0  0  0  0  0  0999 V3000
M  V30 BEGIN CTAB
M  V30 COUNTS 52 57 0 0 0
M  V30 BEGIN ATOM
M  V30 1 C 5.660812 -1.618819 5.279325 0
M  V30 2 C 4.523933 -1.176694 5.929713 0
M  V30 3 C 3.346571 -0.877900 5.281563 0
M  V30 4 C 3.370954 -1.049332 3.921817 0
M  V30 5 C 4.498076 -1.493481 3.217747 0
M  V30 6 C 5.678314 -1.788454 3.911210 0
M  V30 7 N 4.709209 -1.710801 1.799874 0
M  V30 8 C 3.995437 -0.919441 0.821099 0
M  V30 9 N 4.751697 -0.734703 -0.281625 0
M  V30 10 C 4.223554 0.055326 -1.258997 0
M  V30 11 C 2.968138 0.672069 -1.180845 0
M  V30 12 C 2.215796 0.466444 -0.042823 0
M  V30 13 C 2.753740 -0.331435 0.930060 0
M  V30 14 N 1.841812 -0.486762 1.993258 0
M  V30 15 C 0.540299 -0.353813 1.769801 0
M  V30 16 C -0.419911 -0.130224 0.712033 0
M  V30 17 C -1.341286 0.933422 0.650160 0
M  V30 18 C -2.239497 1.035709 -0.391252 0
M  V30 19 C -2.276501 0.108358 -1.411868 0
M  V30 20 C -3.238265 0.245890 -2.503768 0
M  V30 21 N -4.505652 -0.356597 -2.342422 0
M  V30 22 C -5.315199 0.080831 -1.253131 0
M  V30 23 C -6.168808 -1.087541 -0.825739 0
M  V30 24 C -5.708251 -2.259993 -1.624986 0
M  V30 25 C -4.403240 -1.798127 -2.243027 0
M  V30 26 C -1.405575 -0.961787 -1.421593 0
M  V30 27 C -0.522019 -1.031956 -0.365164 0
M  V30 28 N -0.041104 -0.556109 2.987205 0
M  V30 29 N 0.911744 -0.805669 3.900537 0
M  V30 30 C 2.094009 -0.765212 3.280558 0
M  V30 31 H 6.560334 -1.839920 5.838283 0
M  V30 32 H 4.506449 -1.039540 7.022907 0
M  V30 33 H 2.424590 -0.534576 5.687119 0
M  V30 34 H 6.524911 -2.131340 3.334702 0
M  V30 35 H 5.382010 -2.420458 1.484421 0
M  V30 36 H 4.856615 0.172043 -2.114603 0
M  V30 37 H 2.709386 1.271535 -2.060800 0
M  V30 38 H 1.315898 1.020810 -0.086549 0
M  V30 39 H -1.271877 1.642799 1.483578 0
M  V30 40 H -2.892722 1.892363 -0.330914 0
M  V30 41 H -3.383350 1.355871 -2.655336 0
M  V30 42 H -2.786462 -0.083648 -3.474661 0
M  V30 43 H -4.798661 0.451110 -0.369807 0
M  V30 44 H -6.024708 0.848265 -1.682333 0
M  V30 45 H -7.258685 -0.917814 -1.054674 0
M  V30 46 H -6.066428 -1.286941 0.273950 0
M  V30 47 H -5.550105 -3.115106 -0.936095 0
M  V30 48 H -6.426788 -2.550387 -2.406869 0
M  V30 49 H -4.166259 -2.293796 -3.202236 0
M  V30 50 H -3.617959 -2.045171 -1.499285 0
M  V30 51 H -1.354437 -1.735587 -2.173915 0
M  V30 52 H 0.183798 -1.860255 -0.331912 0
M  V30 END ATOM
M  V30 BEGIN BOND
M  V30 1 2 1 2
M  V30 2 1 2 3
M  V30 3 2 3 4
M  V30 4 1 4 5
M  V30 5 2 5 6
M  V30 6 1 5 7
M  V30 7 1 7 8
M  V30 8 2 8 9
M  V30 9 1 9 10
M  V30 10 2 10 11
M  V30 11 1 11 12
M  V30 12 2 12 13
M  V30 13 1 13 14
M  V30 14 1 14 15
M  V30 15 1 15 16
M  V30 16 2 16 17
M  V30 17 1 17 18
M  V30 18 2 18 19
M  V30 19 1 19 20
M  V30 20 1 20 21
M  V30 21 1 21 22
M  V30 22 1 22 23
M  V30 23 1 23 24
M  V30 24 1 24 25
M  V30 25 1 19 26
M  V30 26 2 26 27
M  V30 27 2 15 28
M  V30 28 1 28 29
M  V30 29 2 29 30
M  V30 30 1 6 1
M  V30 31 1 13 8
M  V30 32 1 30 14
M  V30 33 1 30 4
M  V30 34 1 27 16
M  V30 35 1 25 21
M  V30 36 1 1 31
M  V30 37 1 2 32
M  V30 38 1 3 33
M  V30 39 1 6 34
M  V30 40 1 7 35
M  V30 41 1 10 36
M  V30 42 1 11 37
M  V30 43 1 12 38
M  V30 44 1 17 39
M  V30 45 1 18 40
M  V30 46 1 20 41
M  V30 47 1 20 42
M  V30 48 1 22 43
M  V30 49 1 22 44
M  V30 50 1 23 45
M  V30 51 1 23 46
M  V30 52 1 24 47
M  V30 53 1 24 48
M  V30 54 1 25 49
M  V30 55 1 25 50
M  V30 56 1 26 51
M  V30 57 1 27 52
M  V30 END BOND
M  V30 END CTAB
M  END
>  <Dataset>  (100) 
ChEMBL_Kinases

>  <Ligand_Instance>  (100) 
nan

>  <PDB_ID>  (100) 
nan

>  <Standardized_SMILES>  (100) 
c1ccc2c(c1)Nc1ncccc1-n1c(-c3ccc(CN4CCCC4)cc3)nnc1-2

>  <Name>  (100) 
nan

>  <Pocket>  (100) 
nan

>  <ATP_Site>  (100) 
nan

>  <Peripheral>  (100) 
nan

>  <Num_H_Atoms_ProtBoundConf>  (100) 
nan

>  <Num_Resolved_Atoms>  (100) 
nan

>  <Num_Not_Resolved_Atoms>  (100) 
nan

$$$$
CHEMBL3684376
     RDKit          3D

  0  0  0  0  0  0  0  0  0  0999 V3000
M  V30 BEGIN CTAB
M  V30 COUNTS 55 60 0 0 0
M  V30 BEGIN ATOM
M  V30 1 C 4.119650 -2.645158 2.193185 0
M  V30 2 C 4.875212 -1.510711 2.372691 0
M  V30 3 C 5.265647 -0.751197 1.269448 0
M  V30 4 C 4.924613 -1.085296 -0.039743 0
M  V30 5 C 5.513568 -0.118947 -0.971305 0
M  V30 6 N 4.843796 1.081709 -1.175768 0
M  V30 7 C 3.605538 1.230889 -1.801131 0
M  V30 8 C 2.420312 0.698365 -1.102578 0
M  V30 9 C 1.985211 1.631576 -0.149209 0
M  V30 10 C 0.873283 1.428642 0.641440 0
M  V30 11 C 0.124047 0.246674 0.509440 0
M  V30 12 C -1.038137 -0.124773 1.284077 0
M  V30 13 N -0.771994 -0.257823 2.614702 0
M  V30 14 N -1.887119 -0.653414 3.255669 0
M  V30 15 C -2.864195 -0.774099 2.342476 0
M  V30 16 N -2.325401 -0.445537 1.160129 0
M  V30 17 C -2.935142 -0.406299 -0.110040 0
M  V30 18 C -2.277849 0.475205 -0.923392 0
M  V30 19 C -2.724787 0.585059 -2.223630 0
M  V30 20 C -3.811660 -0.205753 -2.611988 0
M  V30 21 N -4.466145 -1.082318 -1.790446 0
M  V30 22 C -4.005722 -1.166473 -0.526405 0
M  V30 23 N -4.833100 -2.066529 0.248403 0
M  V30 24 C -5.038234 -1.839222 1.666731 0
M  V30 25 C -6.304191 -2.307007 2.038828 0
M  V30 26 C -6.667626 -2.151139 3.358225 0
M  V30 27 C -5.811164 -1.553674 4.281134 0
M  V30 28 C -4.568103 -1.087867 3.946012 0
M  V30 29 C -4.212761 -1.246654 2.631893 0
M  V30 30 C 0.551742 -0.694400 -0.442765 0
M  V30 31 C 1.665470 -0.438615 -1.201327 0
M  V30 32 C 4.169307 -2.227037 -0.166887 0
M  V30 33 C 3.775989 -2.986305 0.904441 0
M  V30 34 H 3.741787 -3.333148 2.936320 0
M  V30 35 H 5.115779 -1.289947 3.399161 0
M  V30 36 H 5.857031 0.107952 1.609165 0
M  V30 37 H 5.515431 -0.675195 -1.980860 0
M  V30 38 H 6.610977 0.026197 -0.724810 0
M  V30 39 H 5.443437 1.952654 -1.171395 0
M  V30 40 H 3.410122 2.311273 -2.117924 0
M  V30 41 H 3.651261 0.639358 -2.781149 0
M  V30 42 H 2.432045 2.599320 0.096691 0
M  V30 43 H 0.482703 2.097178 1.389677 0
M  V30 44 H -1.488144 1.154432 -0.742379 0
M  V30 45 H -2.329983 1.224994 -3.007132 0
M  V30 46 H -4.204189 -0.164304 -3.617328 0
M  V30 47 H -5.290893 -2.860161 -0.208106 0
M  V30 48 H -6.908610 -2.759318 1.270626 0
M  V30 49 H -7.639590 -2.505980 3.661609 0
M  V30 50 H -6.107702 -1.432391 5.330794 0
M  V30 51 H -3.839683 -0.617563 4.575759 0
M  V30 52 H 0.073735 -1.642365 -0.650206 0
M  V30 53 H 2.103585 -1.085898 -1.977099 0
M  V30 54 H 3.959941 -2.397534 -1.224893 0
M  V30 55 H 3.185985 -3.842361 0.558414 0
M  V30 END ATOM
M  V30 BEGIN BOND
M  V30 1 2 1 2
M  V30 2 1 2 3
M  V30 3 2 3 4
M  V30 4 1 4 5
M  V30 5 1 5 6
M  V30 6 1 6 7
M  V30 7 1 7 8
M  V30 8 2 8 9
M  V30 9 1 9 10
M  V30 10 2 10 11
M  V30 11 1 11 12
M  V30 12 2 12 13
M  V30 13 1 13 14
M  V30 14 2 14 15
M  V30 15 1 15 16
M  V30 16 1 16 17
M  V30 17 2 17 18
M  V30 18 1 18 19
M  V30 19 2 19 20
M  V30 20 1 20 21
M  V30 21 2 21 22
M  V30 22 1 22 23
M  V30 23 1 23 24
M  V30 24 2 24 25
M  V30 25 1 25 26
M  V30 26 2 26 27
M  V30 27 1 27 28
M  V30 28 2 28 29
M  V30 29 1 11 30
M  V30 30 2 30 31
M  V30 31 1 4 32
M  V30 32 2 32 33
M  V30 33 1 33 1
M  V30 34 1 31 8
M  V30 35 1 16 12
M  V30 36 1 22 17
M  V30 37 1 29 24
M  V30 38 1 29 15
M  V30 39 1 1 34
M  V30 40 1 2 35
M  V30 41 1 3 36
M  V30 42 1 5 37
M  V30 43 1 5 38
M  V30 44 1 6 39
M  V30 45 1 7 40
M  V30 46 1 7 41
M  V30 47 1 9 42
M  V30 48 1 10 43
M  V30 49 1 18 44
M  V30 50 1 19 45
M  V30 51 1 20 46
M  V30 52 1 23 47
M  V30 53 1 25 48
M  V30 54 1 26 49
M  V30 55 1 27 50
M  V30 56 1 28 51
M  V30 57 1 30 52
M  V30 58 1 31 53
M  V30 59 1 32 54
M  V30 60 1 33 55
M  V30 END BOND
M  V30 END CTAB
M  END
>  <Dataset>  (101) 
ChEMBL_Kinases

>  <Ligand_Instance>  (101) 
nan

>  <PDB_ID>  (101) 
nan

>  <Standardized_SMILES>  (101) 
c1ccc(CNCc2ccc(-c3nnc4n3-c3cccnc3Nc3ccccc3-4)cc2)cc1

>  <Name>  (101) 
nan

>  <Pocket>  (101) 
nan

>  <ATP_Site>  (101) 
nan

>  <Peripheral>  (101) 
nan

>  <Num_H_Atoms_ProtBoundConf>  (101) 
nan

>  <Num_Resolved_Atoms>  (101) 
nan

>  <Num_Not_Resolved_Atoms>  (101) 
nan

$$$$
CHEMBL3684377
     RDKit          3D

  0  0  0  0  0  0  0  0  0  0999 V3000
M  V30 BEGIN CTAB
M  V30 COUNTS 64 70 0 0 0
M  V30 BEGIN ATOM
M  V30 1 F 0.812160 -0.496004 4.034550 0
M  V30 2 C 1.442129 -0.246549 5.209815 0
M  V30 3 C 1.375354 -0.991871 6.367269 0
M  V30 4 C 2.070505 -0.623054 7.497446 0
M  V30 5 C 2.862099 0.524862 7.486182 0
M  V30 6 C 2.918556 1.267540 6.306891 0
M  V30 7 C 2.217945 0.893316 5.172333 0
M  V30 8 N 2.446069 1.812389 4.118970 0
M  V30 9 C 3.023975 1.528385 2.816940 0
M  V30 10 C 1.930677 1.755002 1.794869 0
M  V30 11 N 0.850606 2.552235 2.285120 0
M  V30 12 C 0.095937 3.059731 1.166253 0
M  V30 13 C -0.507072 2.037079 0.311033 0
M  V30 14 C -1.753799 1.594871 0.618690 0
M  V30 15 C -2.382182 0.634795 -0.145480 0
M  V30 16 C -1.755829 0.074658 -1.275539 0
M  V30 17 C -2.350515 -0.910011 -2.151103 0
M  V30 18 N -3.486000 -0.471234 -2.770458 0
M  V30 19 N -3.942037 -1.423198 -3.598457 0
M  V30 20 C -3.121133 -2.460014 -3.520440 0
M  V30 21 N -2.164677 -2.136468 -2.638169 0
M  V30 22 C -1.063642 -2.895620 -2.199230 0
M  V30 23 C -0.670007 -2.492526 -0.952254 0
M  V30 24 C 0.437643 -3.110980 -0.409420 0
M  V30 25 C 1.079119 -4.100867 -1.158026 0
M  V30 26 N 0.680166 -4.503112 -2.401356 0
M  V30 27 C -0.416404 -3.877809 -2.916351 0
M  V30 28 N -0.770239 -4.451715 -4.195613 0
M  V30 29 C -2.157638 -4.508372 -4.614012 0
M  V30 30 C -2.336279 -5.633905 -5.429086 0
M  V30 31 C -3.605542 -5.862972 -5.911252 0
M  V30 32 C -4.659473 -5.000722 -5.592443 0
M  V30 33 C -4.497985 -3.888889 -4.792057 0
M  V30 34 C -3.245890 -3.671571 -4.323016 0
M  V30 35 C -0.469213 0.591535 -1.517728 0
M  V30 36 C 0.185972 1.549409 -0.774744 0
M  V30 37 C 1.249573 3.646084 3.110729 0
M  V30 38 C 2.080445 3.225821 4.299740 0
M  V30 39 H 0.736049 -1.883210 6.312671 0
M  V30 40 H 1.994908 -1.236685 8.397192 0
M  V30 41 H 3.385966 0.769598 8.396644 0
M  V30 42 H 3.565450 2.132024 6.429093 0
M  V30 43 H 3.850691 2.275697 2.666459 0
M  V30 44 H 3.414945 0.513377 2.737197 0
M  V30 45 H 1.611058 0.763759 1.423530 0
M  V30 46 H 2.449348 2.233978 0.913106 0
M  V30 47 H -0.730580 3.748804 1.504402 0
M  V30 48 H 0.743024 3.698401 0.497917 0
M  V30 49 H -2.342521 1.946630 1.463048 0
M  V30 50 H -3.383788 0.220327 0.027813 0
M  V30 51 H -1.087888 -1.801222 -0.269716 0
M  V30 52 H 0.880200 -2.910604 0.560472 0
M  V30 53 H 1.943499 -4.615655 -0.793432 0
M  V30 54 H -0.022766 -4.835764 -4.801404 0
M  V30 55 H -1.479244 -6.253420 -5.635802 0
M  V30 56 H -3.779253 -6.721955 -6.542768 0
M  V30 57 H -5.675827 -5.180121 -5.975193 0
M  V30 58 H -5.235966 -3.180053 -4.497995 0
M  V30 59 H 0.024493 0.161449 -2.394212 0
M  V30 60 H 1.176044 1.859764 -1.072518 0
M  V30 61 H 1.795076 4.363825 2.463909 0
M  V30 62 H 0.333395 4.139424 3.496401 0
M  V30 63 H 1.603720 3.428136 5.256226 0
M  V30 64 H 3.037058 3.787868 4.260080 0
M  V30 END ATOM
M  V30 BEGIN BOND
M  V30 1 1 1 2
M  V30 2 2 2 3
M  V30 3 1 3 4
M  V30 4 2 4 5
M  V30 5 1 5 6
M  V30 6 2 6 7
M  V30 7 1 7 8
M  V30 8 1 8 9
M  V30 9 1 9 10
M  V30 10 1 10 11
M  V30 11 1 11 12
M  V30 12 1 12 13
M  V30 13 2 13 14
M  V30 14 1 14 15
M  V30 15 2 15 16
M  V30 16 1 16 17
M  V30 17 2 17 18
M  V30 18 1 18 19
M  V30 19 2 19 20
M  V30 20 1 20 21
M  V30 21 1 21 22
M  V30 22 2 22 23
M  V30 23 1 23 24
M  V30 24 2 24 25
M  V30 25 1 25 26
M  V30 26 2 26 27
M  V30 27 1 27 28
M  V30 28 1 28 29
M  V30 29 2 29 30
M  V30 30 1 30 31
M  V30 31 2 31 32
M  V30 32 1 32 33
M  V30 33 2 33 34
M  V30 34 1 16 35
M  V30 35 2 35 36
M  V30 36 1 11 37
M  V30 37 1 37 38
M  V30 38 1 7 2
M  V30 39 1 38 8
M  V30 40 1 36 13
M  V30 41 1 21 17
M  V30 42 1 27 22
M  V30 43 1 34 29
M  V30 44 1 34 20
M  V30 45 1 3 39
M  V30 46 1 4 40
M  V30 47 1 5 41
M  V30 48 1 6 42
M  V30 49 1 9 43
M  V30 50 1 9 44
M  V30 51 1 10 45
M  V30 52 1 10 46
M  V30 53 1 12 47
M  V30 54 1 12 48
M  V30 55 1 14 49
M  V30 56 1 15 50
M  V30 57 1 23 51
M  V30 58 1 24 52
M  V30 59 1 25 53
M  V30 60 1 28 54
M  V30 61 1 30 55
M  V30 62 1 31 56
M  V30 63 1 32 57
M  V30 64 1 33 58
M  V30 65 1 35 59
M  V30 66 1 36 60
M  V30 67 1 37 61
M  V30 68 1 37 62
M  V30 69 1 38 63
M  V30 70 1 38 64
M  V30 END BOND
M  V30 END CTAB
M  END
>  <Dataset>  (102) 
ChEMBL_Kinases

>  <Ligand_Instance>  (102) 
nan

>  <PDB_ID>  (102) 
nan

>  <Standardized_SMILES>  (102) 
Fc1ccccc1N1CCN(Cc2ccc(-c3nnc4n3-c3cccnc3Nc3ccccc3-4)cc2)CC1

>  <Name>  (102) 
nan

>  <Pocket>  (102) 
nan

>  <ATP_Site>  (102) 
nan

>  <Peripheral>  (102) 
nan

>  <Num_H_Atoms_ProtBoundConf>  (102) 
nan

>  <Num_Resolved_Atoms>  (102) 
nan

>  <Num_Not_Resolved_Atoms>  (102) 
nan

$$$$
CHEMBL3684378
     RDKit          3D

  0  0  0  0  0  0  0  0  0  0999 V3000
M  V30 BEGIN CTAB
M  V30 COUNTS 57 61 0 0 0
M  V30 BEGIN ATOM
M  V30 1 C 4.528820 -0.137612 3.431761 0
M  V30 2 C 5.287132 -0.151412 2.143456 0
M  V30 3 C 6.585641 -0.902468 2.349294 0
M  V30 4 C 4.446111 -0.809200 1.053589 0
M  V30 5 C 5.202330 -0.825841 -0.244948 0
M  V30 6 N 4.557323 -1.413507 -1.337826 0
M  V30 7 C 3.478229 -0.873609 -2.018116 0
M  V30 8 C 2.216003 -0.582250 -1.312661 0
M  V30 9 C 1.358521 -1.672586 -1.129682 0
M  V30 10 C 0.123141 -1.565449 -0.529166 0
M  V30 11 C -0.316099 -0.309401 -0.071322 0
M  V30 12 C -1.605164 -0.264971 0.579518 0
M  V30 13 N -1.551617 0.110122 1.893011 0
M  V30 14 N -2.766862 0.075352 2.430658 0
M  V30 15 C -3.614384 -0.317248 1.487631 0
M  V30 16 N -2.897682 -0.516574 0.370628 0
M  V30 17 C -3.331528 -0.931510 -0.904248 0
M  V30 18 C -2.465865 -0.484497 -1.865416 0
M  V30 19 C -2.729313 -0.858875 -3.167627 0
M  V30 20 C -3.855423 -1.659300 -3.401769 0
M  V30 21 N -4.710394 -2.095165 -2.447740 0
M  V30 22 C -4.429682 -1.714746 -1.185483 0
M  V30 23 N -5.456287 -2.177825 -0.275192 0
M  V30 24 C -5.810872 -1.404040 0.901034 0
M  V30 25 C -7.163293 -1.602481 1.195954 0
M  V30 26 C -7.670304 -0.920714 2.282905 0
M  V30 27 C -6.881121 -0.079974 3.046857 0
M  V30 28 C -5.548148 0.131239 2.777137 0
M  V30 29 C -5.040162 -0.544807 1.698275 0
M  V30 30 C 0.535577 0.794720 -0.248756 0
M  V30 31 C 1.764528 0.660398 -0.851678 0
M  V30 32 H 3.580113 -0.720826 3.379320 0
M  V30 33 H 5.112703 -0.607758 4.248092 0
M  V30 34 H 4.244181 0.903447 3.697665 0
M  V30 35 H 5.524576 0.870806 1.826196 0
M  V30 36 H 6.500687 -1.932705 1.948010 0
M  V30 37 H 7.415627 -0.415909 1.773197 0
M  V30 38 H 6.895628 -0.906299 3.410024 0
M  V30 39 H 3.507717 -0.277505 1.040305 0
M  V30 40 H 4.222510 -1.870033 1.353741 0
M  V30 41 H 5.528477 0.248241 -0.466564 0
M  V30 42 H 6.212035 -1.317460 -0.025045 0
M  V30 43 H 4.766585 -2.429475 -1.447316 0
M  V30 44 H 3.206454 -1.600118 -2.852734 0
M  V30 45 H 3.735035 0.055099 -2.620966 0
M  V30 46 H 1.630272 -2.676381 -1.458693 0
M  V30 47 H -0.518550 -2.432917 -0.402737 0
M  V30 48 H -1.623331 0.152853 -1.822147 0
M  V30 49 H -2.146429 -0.596915 -4.063258 0
M  V30 50 H -4.102082 -1.979906 -4.405759 0
M  V30 51 H -5.951666 -3.058098 -0.472001 0
M  V30 52 H -7.720916 -2.272464 0.561577 0
M  V30 53 H -8.711841 -1.057002 2.530676 0
M  V30 54 H -7.277125 0.463378 3.909509 0
M  V30 55 H -4.845016 0.759071 3.302020 0
M  V30 56 H 0.191999 1.752946 0.104538 0
M  V30 57 H 2.445218 1.476411 -1.006639 0
M  V30 END ATOM
M  V30 BEGIN BOND
M  V30 1 1 1 2
M  V30 2 1 2 3
M  V30 3 1 2 4
M  V30 4 1 4 5
M  V30 5 1 5 6
M  V30 6 1 6 7
M  V30 7 1 7 8
M  V30 8 2 8 9
M  V30 9 1 9 10
M  V30 10 2 10 11
M  V30 11 1 11 12
M  V30 12 2 12 13
M  V30 13 1 13 14
M  V30 14 2 14 15
M  V30 15 1 15 16
M  V30 16 1 16 17
M  V30 17 2 17 18
M  V30 18 1 18 19
M  V30 19 2 19 20
M  V30 20 1 20 21
M  V30 21 2 21 22
M  V30 22 1 22 23
M  V30 23 1 23 24
M  V30 24 2 24 25
M  V30 25 1 25 26
M  V30 26 2 26 27
M  V30 27 1 27 28
M  V30 28 2 28 29
M  V30 29 1 11 30
M  V30 30 2 30 31
M  V30 31 1 31 8
M  V30 32 1 16 12
M  V30 33 1 22 17
M  V30 34 1 29 24
M  V30 35 1 29 15
M  V30 36 1 1 32
M  V30 37 1 1 33
M  V30 38 1 1 34
M  V30 39 1 2 35
M  V30 40 1 3 36
M  V30 41 1 3 37
M  V30 42 1 3 38
M  V30 43 1 4 39
M  V30 44 1 4 40
M  V30 45 1 5 41
M  V30 46 1 5 42
M  V30 47 1 6 43
M  V30 48 1 7 44
M  V30 49 1 7 45
M  V30 50 1 9 46
M  V30 51 1 10 47
M  V30 52 1 18 48
M  V30 53 1 19 49
M  V30 54 1 20 50
M  V30 55 1 23 51
M  V30 56 1 25 52
M  V30 57 1 26 53
M  V30 58 1 27 54
M  V30 59 1 28 55
M  V30 60 1 30 56
M  V30 61 1 31 57
M  V30 END BOND
M  V30 END CTAB
M  END
>  <Dataset>  (103) 
ChEMBL_Kinases

>  <Ligand_Instance>  (103) 
nan

>  <PDB_ID>  (103) 
nan

>  <Standardized_SMILES>  (103) 
CC(C)CCNCc1ccc(-c2nnc3n2-c2cccnc2Nc2ccccc2-3)cc1

>  <Name>  (103) 
nan

>  <Pocket>  (103) 
nan

>  <ATP_Site>  (103) 
nan

>  <Peripheral>  (103) 
nan

>  <Num_H_Atoms_ProtBoundConf>  (103) 
nan

>  <Num_Resolved_Atoms>  (103) 
nan

>  <Num_Not_Resolved_Atoms>  (103) 
nan

$$$$
CHEMBL3684379
     RDKit          3D

  0  0  0  0  0  0  0  0  0  0999 V3000
M  V30 BEGIN CTAB
M  V30 COUNTS 52 57 0 0 0
M  V30 BEGIN ATOM
M  V30 1 C 5.483396 0.823267 5.575102 0
M  V30 2 C 4.220284 1.155528 6.023144 0
M  V30 3 C 3.083562 0.959625 5.266591 0
M  V30 4 C 3.289405 0.407808 4.027316 0
M  V30 5 C 4.554736 0.058872 3.537641 0
M  V30 6 C 5.689936 0.269265 4.329442 0
M  V30 7 N 4.951468 -0.508011 2.263097 0
M  V30 8 C 4.190983 -0.233133 1.062100 0
M  V30 9 N 5.017614 -0.214516 -0.011931 0
M  V30 10 C 4.421334 0.105576 -1.198651 0
M  V30 11 C 3.063195 0.405529 -1.369423 0
M  V30 12 C 2.258621 0.374368 -0.248615 0
M  V30 13 C 2.855339 0.049787 0.939411 0
M  V30 14 N 1.896137 0.004145 1.967045 0
M  V30 15 C 0.619267 -0.246410 1.671239 0
M  V30 16 C -0.254052 -0.575918 0.566688 0
M  V30 17 C -1.366670 0.195658 0.181344 0
M  V30 18 C -2.198518 -0.164309 -0.857396 0
M  V30 19 C -1.932063 -1.327156 -1.548741 0
M  V30 20 C -2.838709 -1.691512 -2.658161 0
M  V30 21 N -3.954856 -2.515239 -2.229570 0
M  V30 22 C -4.789529 -1.893504 -1.247367 0
M  V30 23 C -5.941198 -2.813497 -0.842502 0
M  V30 24 C -6.809709 -2.112578 -1.866154 0
M  V30 25 C -5.840292 -0.950637 -1.794889 0
M  V30 26 C -0.870246 -2.151728 -1.251623 0
M  V30 27 C -0.077879 -1.736541 -0.204269 0
M  V30 28 N -0.029601 -0.214365 2.869243 0
M  V30 29 N 0.849714 0.046060 3.843965 0
M  V30 30 C 2.054662 0.181374 3.286614 0
M  V30 31 H 6.344598 0.996501 6.207633 0
M  V30 32 H 4.049827 1.597652 7.014594 0
M  V30 33 H 2.062886 1.179011 5.514781 0
M  V30 34 H 6.639013 -0.013959 3.919796 0
M  V30 35 H 5.799045 -1.103560 2.213293 0
M  V30 36 H 5.101525 0.111395 -2.039243 0
M  V30 37 H 2.753074 0.642394 -2.393524 0
M  V30 38 H 1.270048 0.662440 -0.493434 0
M  V30 39 H -1.526654 1.108223 0.768235 0
M  V30 40 H -3.035327 0.483932 -1.092823 0
M  V30 41 H -2.265773 -2.325430 -3.375369 0
M  V30 42 H -3.163218 -0.808252 -3.222414 0
M  V30 43 H -3.659878 -3.486604 -2.008638 0
M  V30 44 H -4.245520 -1.484295 -0.374038 0
M  V30 45 H -6.274308 -2.653898 0.201072 0
M  V30 46 H -5.787358 -3.856774 -1.115497 0
M  V30 47 H -7.805186 -1.916872 -1.451365 0
M  V30 48 H -6.855404 -2.571094 -2.862503 0
M  V30 49 H -6.164008 -0.226083 -1.027667 0
M  V30 50 H -5.615042 -0.490641 -2.776647 0
M  V30 51 H -0.631045 -3.067058 -1.769212 0
M  V30 52 H 0.776717 -2.361379 0.065971 0
M  V30 END ATOM
M  V30 BEGIN BOND
M  V30 1 2 1 2
M  V30 2 1 2 3
M  V30 3 2 3 4
M  V30 4 1 4 5
M  V30 5 2 5 6
M  V30 6 1 5 7
M  V30 7 1 7 8
M  V30 8 2 8 9
M  V30 9 1 9 10
M  V30 10 2 10 11
M  V30 11 1 11 12
M  V30 12 2 12 13
M  V30 13 1 13 14
M  V30 14 1 14 15
M  V30 15 1 15 16
M  V30 16 2 16 17
M  V30 17 1 17 18
M  V30 18 2 18 19
M  V30 19 1 19 20
M  V30 20 1 20 21
M  V30 21 1 21 22
M  V30 22 1 22 23
M  V30 23 1 23 24
M  V30 24 1 24 25
M  V30 25 1 19 26
M  V30 26 2 26 27
M  V30 27 2 15 28
M  V30 28 1 28 29
M  V30 29 2 29 30
M  V30 30 1 6 1
M  V30 31 1 13 8
M  V30 32 1 30 14
M  V30 33 1 30 4
M  V30 34 1 27 16
M  V30 35 1 25 22
M  V30 36 1 1 31
M  V30 37 1 2 32
M  V30 38 1 3 33
M  V30 39 1 6 34
M  V30 40 1 7 35
M  V30 41 1 10 36
M  V30 42 1 11 37
M  V30 43 1 12 38
M  V30 44 1 17 39
M  V30 45 1 18 40
M  V30 46 1 20 41
M  V30 47 1 20 42
M  V30 48 1 21 43
M  V30 49 1 22 44
M  V30 50 1 23 45
M  V30 51 1 23 46
M  V30 52 1 24 47
M  V30 53 1 24 48
M  V30 54 1 25 49
M  V30 55 1 25 50
M  V30 56 1 26 51
M  V30 57 1 27 52
M  V30 END BOND
M  V30 END CTAB
M  END
>  <Dataset>  (104) 
ChEMBL_Kinases

>  <Ligand_Instance>  (104) 
nan

>  <PDB_ID>  (104) 
nan

>  <Standardized_SMILES>  (104) 
c1ccc2c(c1)Nc1ncccc1-n1c(-c3ccc(CNC4CCC4)cc3)nnc1-2

>  <Name>  (104) 
nan

>  <Pocket>  (104) 
nan

>  <ATP_Site>  (104) 
nan

>  <Peripheral>  (104) 
nan

>  <Num_H_Atoms_ProtBoundConf>  (104) 
nan

>  <Num_Resolved_Atoms>  (104) 
nan

>  <Num_Not_Resolved_Atoms>  (104) 
nan

$$$$
CHEMBL3684380
     RDKit          3D

  0  0  0  0  0  0  0  0  0  0999 V3000
M  V30 BEGIN CTAB
M  V30 COUNTS 60 65 0 0 0
M  V30 BEGIN ATOM
M  V30 1 C 3.196700 -1.381495 5.338858 0
M  V30 2 C 2.839322 0.071771 5.152087 0
M  V30 3 N 2.135159 0.338169 3.914063 0
M  V30 4 C 3.003944 0.139373 2.791038 0
M  V30 5 C 4.198819 1.004467 2.823364 0
M  V30 6 C 5.394766 0.659392 3.414286 0
M  V30 7 C 6.441578 1.542999 3.384707 0
M  V30 8 N 6.375959 2.738044 2.810165 0
M  V30 9 C 5.233744 3.130763 2.216774 0
M  V30 10 C 4.155866 2.250189 2.233548 0
M  V30 11 C 0.978743 -0.499260 3.907159 0
M  V30 12 C 0.161521 -0.348234 2.659807 0
M  V30 13 C 0.540841 -1.219583 1.652688 0
M  V30 14 C -0.165381 -1.141071 0.470660 0
M  V30 15 C -1.220750 -0.265654 0.205600 0
M  V30 16 C -1.850104 -0.267894 -1.092708 0
M  V30 17 N -1.699026 0.911576 -1.761025 0
M  V30 18 N -2.265154 0.807655 -2.975961 0
M  V30 19 C -2.777056 -0.425536 -3.093023 0
M  V30 20 N -2.515056 -1.052733 -1.938873 0
M  V30 21 C -2.847525 -2.365831 -1.553087 0
M  V30 22 C -2.928798 -2.458635 -0.190835 0
M  V30 23 C -3.193872 -3.701432 0.343289 0
M  V30 24 C -3.363839 -4.778143 -0.536220 0
M  V30 25 N -3.287399 -4.686919 -1.899655 0
M  V30 26 C -3.023238 -3.440146 -2.396052 0
M  V30 27 N -3.046833 -3.468701 -3.841081 0
M  V30 28 C -3.486265 -2.312510 -4.593705 0
M  V30 29 C -4.077578 -2.730195 -5.791718 0
M  V30 30 C -4.565155 -1.737481 -6.616114 0
M  V30 31 C -4.480186 -0.401314 -6.289187 0
M  V30 32 C -3.902543 0.038236 -5.116847 0
M  V30 33 C -3.416078 -0.945635 -4.293989 0
M  V30 34 C -1.546502 0.585782 1.274759 0
M  V30 35 C -0.871053 0.545575 2.474610 0
M  V30 36 H 4.140213 -1.488215 5.936496 0
M  V30 37 H 3.215879 -1.979342 4.426754 0
M  V30 38 H 2.403172 -1.844689 5.989686 0
M  V30 39 H 2.124464 0.411739 5.960313 0
M  V30 40 H 3.723648 0.734801 5.221447 0
M  V30 41 H 3.331690 -0.913926 2.693309 0
M  V30 42 H 2.443907 0.349034 1.832678 0
M  V30 43 H 5.472865 -0.311360 3.892089 0
M  V30 44 H 7.341780 1.192663 3.869648 0
M  V30 45 H 5.106831 4.094642 1.727974 0
M  V30 46 H 3.224096 2.569256 1.749646 0
M  V30 47 H 1.249283 -1.561419 4.073726 0
M  V30 48 H 0.342443 -0.237648 4.797169 0
M  V30 49 H 1.343893 -1.944124 1.740914 0
M  V30 50 H 0.108516 -1.817748 -0.344878 0
M  V30 51 H -2.871414 -1.727044 0.570632 0
M  V30 52 H -3.289095 -3.957964 1.390987 0
M  V30 53 H -3.571872 -5.770306 -0.161103 0
M  V30 54 H -2.763116 -4.328837 -4.343449 0
M  V30 55 H -4.108912 -3.790888 -5.986222 0
M  V30 56 H -5.028410 -2.041372 -7.550801 0
M  V30 57 H -4.866226 0.377182 -6.943891 0
M  V30 58 H -3.781601 1.045639 -4.761707 0
M  V30 59 H -2.356188 1.276236 1.103122 0
M  V30 60 H -1.106748 1.183135 3.292952 0
M  V30 END ATOM
M  V30 BEGIN BOND
M  V30 1 1 1 2
M  V30 2 1 2 3
M  V30 3 1 3 4
M  V30 4 1 4 5
M  V30 5 2 5 6
M  V30 6 1 6 7
M  V30 7 2 7 8
M  V30 8 1 8 9
M  V30 9 2 9 10
M  V30 10 1 3 11
M  V30 11 1 11 12
M  V30 12 2 12 13
M  V30 13 1 13 14
M  V30 14 2 14 15
M  V30 15 1 15 16
M  V30 16 2 16 17
M  V30 17 1 17 18
M  V30 18 2 18 19
M  V30 19 1 19 20
M  V30 20 1 20 21
M  V30 21 2 21 22
M  V30 22 1 22 23
M  V30 23 2 23 24
M  V30 24 1 24 25
M  V30 25 2 25 26
M  V30 26 1 26 27
M  V30 27 1 27 28
M  V30 28 2 28 29
M  V30 29 1 29 30
M  V30 30 2 30 31
M  V30 31 1 31 32
M  V30 32 2 32 33
M  V30 33 1 15 34
M  V30 34 2 34 35
M  V30 35 1 10 5
M  V30 36 1 35 12
M  V30 37 1 20 16
M  V30 38 1 26 21
M  V30 39 1 33 28
M  V30 40 1 33 19
M  V30 41 1 1 36
M  V30 42 1 1 37
M  V30 43 1 1 38
M  V30 44 1 2 39
M  V30 45 1 2 40
M  V30 46 1 4 41
M  V30 47 1 4 42
M  V30 48 1 6 43
M  V30 49 1 7 44
M  V30 50 1 9 45
M  V30 51 1 10 46
M  V30 52 1 11 47
M  V30 53 1 11 48
M  V30 54 1 13 49
M  V30 55 1 14 50
M  V30 56 1 22 51
M  V30 57 1 23 52
M  V30 58 1 24 53
M  V30 59 1 27 54
M  V30 60 1 29 55
M  V30 61 1 30 56
M  V30 62 1 31 57
M  V30 63 1 32 58
M  V30 64 1 34 59
M  V30 65 1 35 60
M  V30 END BOND
M  V30 END CTAB
M  END
>  <Dataset>  (105) 
ChEMBL_Kinases

>  <Ligand_Instance>  (105) 
nan

>  <PDB_ID>  (105) 
nan

>  <Standardized_SMILES>  (105) 
CCN(Cc1ccncc1)Cc1ccc(-c2nnc3n2-c2cccnc2Nc2ccccc2-3)cc1

>  <Name>  (105) 
nan

>  <Pocket>  (105) 
nan

>  <ATP_Site>  (105) 
nan

>  <Peripheral>  (105) 
nan

>  <Num_H_Atoms_ProtBoundConf>  (105) 
nan

>  <Num_Resolved_Atoms>  (105) 
nan

>  <Num_Not_Resolved_Atoms>  (105) 
nan

$$$$
CHEMBL3684381
     RDKit          3D

  0  0  0  0  0  0  0  0  0  0999 V3000
M  V30 BEGIN CTAB
M  V30 COUNTS 54 58 0 0 0
M  V30 BEGIN ATOM
M  V30 1 C 3.646805 -0.418269 6.356825 0
M  V30 2 C 4.126857 0.890745 5.800457 0
M  V30 3 C 5.336029 0.641920 4.918115 0
M  V30 4 C 3.054716 1.653355 5.082751 0
M  V30 5 N 2.499280 0.949870 3.968118 0
M  V30 6 C 1.462217 1.704722 3.287450 0
M  V30 7 C 0.954916 0.885821 2.149957 0
M  V30 8 C 1.601332 1.054703 0.943658 0
M  V30 9 C 1.132225 0.297644 -0.107833 0
M  V30 10 C 0.061943 -0.612058 -0.024128 0
M  V30 11 C -0.367322 -1.405705 -1.153428 0
M  V30 12 N 0.615934 -2.230985 -1.619139 0
M  V30 13 N 0.128351 -2.969572 -2.632493 0
M  V30 14 C -1.155511 -2.625303 -2.819069 0
M  V30 15 N -1.428797 -1.676504 -1.914976 0
M  V30 16 C -2.633725 -0.979218 -1.694215 0
M  V30 17 C -2.381100 0.235348 -1.116615 0
M  V30 18 C -3.472109 1.013816 -0.787992 0
M  V30 19 C -4.744000 0.502413 -1.072691 0
M  V30 20 N -4.997542 -0.708666 -1.653183 0
M  V30 21 C -3.901156 -1.438161 -1.958741 0
M  V30 22 N -4.295883 -2.655652 -2.634298 0
M  V30 23 C -3.446888 -3.256912 -3.644937 0
M  V30 24 C -4.222449 -3.913295 -4.593908 0
M  V30 25 C -3.560557 -4.526291 -5.637189 0
M  V30 26 C -2.176842 -4.495083 -5.744514 0
M  V30 27 C -1.382298 -3.852595 -4.818415 0
M  V30 28 C -2.052902 -3.247736 -3.785971 0
M  V30 29 C -0.514089 -0.694741 1.256892 0
M  V30 30 C -0.103547 0.026609 2.355754 0
M  V30 31 H 3.927595 -1.284588 5.737010 0
M  V30 32 H 2.518135 -0.400604 6.322030 0
M  V30 33 H 3.875818 -0.546874 7.437122 0
M  V30 34 H 4.498637 1.479274 6.663758 0
M  V30 35 H 6.040011 -0.053872 5.416446 0
M  V30 36 H 5.061660 0.167527 3.944302 0
M  V30 37 H 5.881598 1.565783 4.694291 0
M  V30 38 H 2.243484 1.837034 5.838153 0
M  V30 39 H 3.439307 2.658504 4.819281 0
M  V30 40 H 3.212735 0.695675 3.269108 0
M  V30 41 H 1.859429 2.689096 2.971050 0
M  V30 42 H 0.621972 1.873848 3.966391 0
M  V30 43 H 2.424778 1.726330 0.793340 0
M  V30 44 H 1.622396 0.404122 -1.087996 0
M  V30 45 H -1.479134 0.743943 -0.898631 0
M  V30 46 H -3.455161 2.001045 -0.322774 0
M  V30 47 H -5.633771 1.069050 -0.834488 0
M  V30 48 H -5.204056 -3.104002 -2.411623 0
M  V30 49 H -5.293942 -3.901896 -4.450400 0
M  V30 50 H -4.145567 -5.038226 -6.379649 0
M  V30 51 H -1.655207 -4.979384 -6.569498 0
M  V30 52 H -0.310695 -3.768968 -4.806447 0
M  V30 53 H -1.337320 -1.404916 1.289740 0
M  V30 54 H -0.605630 -0.101571 3.301944 0
M  V30 END ATOM
M  V30 BEGIN BOND
M  V30 1 1 1 2
M  V30 2 1 2 3
M  V30 3 1 2 4
M  V30 4 1 4 5
M  V30 5 1 5 6
M  V30 6 1 6 7
M  V30 7 2 7 8
M  V30 8 1 8 9
M  V30 9 2 9 10
M  V30 10 1 10 11
M  V30 11 2 11 12
M  V30 12 1 12 13
M  V30 13 2 13 14
M  V30 14 1 14 15
M  V30 15 1 15 16
M  V30 16 2 16 17
M  V30 17 1 17 18
M  V30 18 2 18 19
M  V30 19 1 19 20
M  V30 20 2 20 21
M  V30 21 1 21 22
M  V30 22 1 22 23
M  V30 23 2 23 24
M  V30 24 1 24 25
M  V30 25 2 25 26
M  V30 26 1 26 27
M  V30 27 2 27 28
M  V30 28 1 10 29
M  V30 29 2 29 30
M  V30 30 1 30 7
M  V30 31 1 15 11
M  V30 32 1 21 16
M  V30 33 1 28 23
M  V30 34 1 28 14
M  V30 35 1 1 31
M  V30 36 1 1 32
M  V30 37 1 1 33
M  V30 38 1 2 34
M  V30 39 1 3 35
M  V30 40 1 3 36
M  V30 41 1 3 37
M  V30 42 1 4 38
M  V30 43 1 4 39
M  V30 44 1 5 40
M  V30 45 1 6 41
M  V30 46 1 6 42
M  V30 47 1 8 43
M  V30 48 1 9 44
M  V30 49 1 17 45
M  V30 50 1 18 46
M  V30 51 1 19 47
M  V30 52 1 22 48
M  V30 53 1 24 49
M  V30 54 1 25 50
M  V30 55 1 26 51
M  V30 56 1 27 52
M  V30 57 1 29 53
M  V30 58 1 30 54
M  V30 END BOND
M  V30 END CTAB
M  END
>  <Dataset>  (106) 
ChEMBL_Kinases

>  <Ligand_Instance>  (106) 
nan

>  <PDB_ID>  (106) 
nan

>  <Standardized_SMILES>  (106) 
CC(C)CNCc1ccc(-c2nnc3n2-c2cccnc2Nc2ccccc2-3)cc1

>  <Name>  (106) 
nan

>  <Pocket>  (106) 
nan

>  <ATP_Site>  (106) 
nan

>  <Peripheral>  (106) 
nan

>  <Num_H_Atoms_ProtBoundConf>  (106) 
nan

>  <Num_Resolved_Atoms>  (106) 
nan

>  <Num_Not_Resolved_Atoms>  (106) 
nan

$$$$
CHEMBL3684391
     RDKit          3D

  0  0  0  0  0  0  0  0  0  0999 V3000
M  V30 BEGIN CTAB
M  V30 COUNTS 71 76 0 0 0
M  V30 BEGIN ATOM
M  V30 1 C 3.639002 -4.991388 0.035605 0
M  V30 2 C 2.224299 -5.488863 0.184983 0
M  V30 3 N 1.252354 -4.441990 -0.060753 0
M  V30 4 C 0.766215 -3.596239 1.001013 0
M  V30 5 C -0.454680 -4.110352 1.695254 0
M  V30 6 C 0.848959 -4.340428 -1.395293 0
M  V30 7 O 1.543303 -5.263344 -1.895118 0
M  V30 8 C 0.044480 -3.706021 -2.441408 0
M  V30 9 C 0.331263 -4.371394 -3.777898 0
M  V30 10 C 1.333041 -3.587393 -4.579181 0
M  V30 11 C 2.351131 -2.862180 -3.757819 0
M  V30 12 N 1.800403 -2.083277 -2.669728 0
M  V30 13 C 2.299089 -0.751188 -2.583931 0
M  V30 14 C 1.715264 0.034579 -1.467391 0
M  V30 15 C 0.574107 0.743702 -1.777691 0
M  V30 16 C 0.008792 1.481371 -0.758502 0
M  V30 17 C 0.483140 1.573085 0.543267 0
M  V30 18 C -0.185326 2.410407 1.511682 0
M  V30 19 N 0.590821 3.440789 1.956726 0
M  V30 20 N -0.119026 4.198770 2.811692 0
M  V30 21 C -1.338432 3.664687 2.916798 0
M  V30 22 N -1.356111 2.582901 2.125433 0
M  V30 23 C -2.408612 1.673202 1.893533 0
M  V30 24 C -1.907070 0.459688 1.509229 0
M  V30 25 C -2.820398 -0.525479 1.192092 0
M  V30 26 C -4.179526 -0.214368 1.288517 0
M  V30 27 N -4.668588 0.987441 1.673273 0
M  V30 28 C -3.745923 1.942555 1.980677 0
M  V30 29 N -4.406933 3.142084 2.444423 0
M  V30 30 C -3.778460 3.994190 3.434807 0
M  V30 31 C -4.762827 4.617057 4.208101 0
M  V30 32 C -4.324554 5.453220 5.212452 0
M  V30 33 C -2.981565 5.674632 5.455303 0
M  V30 34 C -1.993459 5.071005 4.704544 0
M  V30 35 C -2.424218 4.238477 3.702925 0
M  V30 36 C 1.647941 0.824438 0.784407 0
M  V30 37 C 2.251782 0.071438 -0.198719 0
M  V30 38 C 0.381698 -2.229514 -2.649389 0
M  V30 39 H 3.789574 -4.013060 0.496354 0
M  V30 40 H 3.853828 -4.843611 -1.057861 0
M  V30 41 H 4.344317 -5.752772 0.406735 0
M  V30 42 H 2.095472 -5.758502 1.264449 0
M  V30 43 H 2.040690 -6.385311 -0.419129 0
M  V30 44 H 1.556749 -3.498888 1.800854 0
M  V30 45 H 0.646183 -2.585681 0.574605 0
M  V30 46 H -0.274833 -4.391219 2.768119 0
M  V30 47 H -1.248336 -3.334250 1.741180 0
M  V30 48 H -0.823602 -5.068934 1.239687 0
M  V30 49 H -1.047473 -3.755966 -2.289027 0
M  V30 50 H 0.727786 -5.390646 -3.627469 0
M  V30 51 H -0.591762 -4.451461 -4.397495 0
M  V30 52 H 1.897185 -4.310429 -5.214199 0
M  V30 53 H 0.797167 -2.909941 -5.291197 0
M  V30 54 H 2.898333 -2.186349 -4.479642 0
M  V30 55 H 3.124805 -3.552000 -3.367774 0
M  V30 56 H 3.398696 -0.828075 -2.337303 0
M  V30 57 H 2.185812 -0.261964 -3.570828 0
M  V30 58 H 0.109360 0.747556 -2.770344 0
M  V30 59 H -0.902836 2.059734 -0.970282 0
M  V30 60 H -0.919175 0.087163 1.442219 0
M  V30 61 H -2.592956 -1.548406 0.865919 0
M  V30 62 H -4.936557 -0.944743 1.051130 0
M  V30 63 H -5.344735 3.388631 2.078981 0
M  V30 64 H -5.795083 4.406430 3.968534 0
M  V30 65 H -5.073011 5.944143 5.821053 0
M  V30 66 H -2.634710 6.332903 6.246813 0
M  V30 67 H -0.925573 5.164629 4.797529 0
M  V30 68 H 2.048096 0.870272 1.788952 0
M  V30 69 H 3.149123 -0.496603 0.017890 0
M  V30 70 H -0.016400 -1.974063 -3.657081 0
M  V30 71 H -0.130235 -1.604321 -1.905692 0
M  V30 END ATOM
M  V30 BEGIN BOND
M  V30 1 1 1 2
M  V30 2 1 2 3
M  V30 3 1 3 4
M  V30 4 1 4 5
M  V30 5 1 3 6
M  V30 6 2 6 7
M  V30 7 1 6 8
M  V30 8 1 8 9
M  V30 9 1 9 10
M  V30 10 1 10 11
M  V30 11 1 11 12
M  V30 12 1 12 13
M  V30 13 1 13 14
M  V30 14 2 14 15
M  V30 15 1 15 16
M  V30 16 2 16 17
M  V30 17 1 17 18
M  V30 18 2 18 19
M  V30 19 1 19 20
M  V30 20 2 20 21
M  V30 21 1 21 22
M  V30 22 1 22 23
M  V30 23 2 23 24
M  V30 24 1 24 25
M  V30 25 2 25 26
M  V30 26 1 26 27
M  V30 27 2 27 28
M  V30 28 1 28 29
M  V30 29 1 29 30
M  V30 30 2 30 31
M  V30 31 1 31 32
M  V30 32 2 32 33
M  V30 33 1 33 34
M  V30 34 2 34 35
M  V30 35 1 17 36
M  V30 36 2 36 37
M  V30 37 1 12 38
M  V30 38 1 38 8
M  V30 39 1 37 14
M  V30 40 1 22 18
M  V30 41 1 28 23
M  V30 42 1 35 30
M  V30 43 1 35 21
M  V30 44 1 1 39
M  V30 45 1 1 40
M  V30 46 1 1 41
M  V30 47 1 2 42
M  V30 48 1 2 43
M  V30 49 1 4 44
M  V30 50 1 4 45
M  V30 51 1 5 46
M  V30 52 1 5 47
M  V30 53 1 5 48
M  V30 54 1 8 49
M  V30 55 1 9 50
M  V30 56 1 9 51
M  V30 57 1 10 52
M  V30 58 1 10 53
M  V30 59 1 11 54
M  V30 60 1 11 55
M  V30 61 1 13 56
M  V30 62 1 13 57
M  V30 63 1 15 58
M  V30 64 1 16 59
M  V30 65 1 24 60
M  V30 66 1 25 61
M  V30 67 1 26 62
M  V30 68 1 29 63
M  V30 69 1 31 64
M  V30 70 1 32 65
M  V30 71 1 33 66
M  V30 72 1 34 67
M  V30 73 1 36 68
M  V30 74 1 37 69
M  V30 75 1 38 70
M  V30 76 1 38 71
M  V30 END BOND
M  V30 END CTAB
M  END
>  <Dataset>  (107) 
ChEMBL_Kinases

>  <Ligand_Instance>  (107) 
nan

>  <PDB_ID>  (107) 
nan

>  <Standardized_SMILES>  (107) 
CCN(CC)C(=O)C1CCCN(Cc2ccc(-c3nnc4n3-c3cccnc3Nc3ccccc3-4)cc2)C1

>  <Name>  (107) 
nan

>  <Pocket>  (107) 
nan

>  <ATP_Site>  (107) 
nan

>  <Peripheral>  (107) 
nan

>  <Num_H_Atoms_ProtBoundConf>  (107) 
nan

>  <Num_Resolved_Atoms>  (107) 
nan

>  <Num_Not_Resolved_Atoms>  (107) 
nan

$$$$
CHEMBL3684383
     RDKit          3D

  0  0  0  0  0  0  0  0  0  0999 V3000
M  V30 BEGIN CTAB
M  V30 COUNTS 52 56 0 0 0
M  V30 BEGIN ATOM
M  V30 1 C -0.797869 -0.233448 5.422958 0
M  V30 2 O 0.053854 0.193356 6.398536 0
M  V30 3 C 0.979841 1.130820 5.994598 0
M  V30 4 C 1.855116 0.589578 4.917324 0
M  V30 5 N 2.847844 1.568270 4.480363 0
M  V30 6 C 3.678453 1.026416 3.443913 0
M  V30 7 C 2.948880 0.612484 2.228268 0
M  V30 8 C 2.481740 -0.681865 2.156229 0
M  V30 9 C 1.809883 -1.005858 0.997541 0
M  V30 10 C 1.569973 -0.138939 -0.090448 0
M  V30 11 C 0.881167 -0.580630 -1.283818 0
M  V30 12 N 1.661228 -0.516192 -2.401825 0
M  V30 13 N 0.968818 -0.989305 -3.454716 0
M  V30 14 C -0.247947 -1.355723 -3.017361 0
M  V30 15 N -0.275203 -1.095331 -1.705196 0
M  V30 16 C -1.321731 -1.291307 -0.782388 0
M  V30 17 C -1.197178 -0.430963 0.272797 0
M  V30 18 C -2.121017 -0.537818 1.292146 0
M  V30 19 C -3.120741 -1.512781 1.178364 0
M  V30 20 N -3.238170 -2.366428 0.114873 0
M  V30 21 C -2.314703 -2.238113 -0.873997 0
M  V30 22 N -2.614907 -3.150484 -1.954756 0
M  V30 23 C -2.293761 -2.791010 -3.321643 0
M  V30 24 C -3.208123 -3.382091 -4.193345 0
M  V30 25 C -3.053762 -3.126321 -5.539800 0
M  V30 26 C -2.031847 -2.314414 -6.015089 0
M  V30 27 C -1.116245 -1.719430 -5.179874 0
M  V30 28 C -1.276908 -1.979537 -3.843578 0
M  V30 29 C 2.089022 1.160303 0.084860 0
M  V30 30 C 2.768915 1.532581 1.226958 0
M  V30 31 H -0.345356 -0.729837 4.549772 0
M  V30 32 H -1.566510 -0.938915 5.834996 0
M  V30 33 H -1.396569 0.656903 5.094482 0
M  V30 34 H 0.466716 2.075102 5.714227 0
M  V30 35 H 1.631841 1.314652 6.899907 0
M  V30 36 H 1.232679 0.356050 4.027071 0
M  V30 37 H 2.401554 -0.285019 5.325316 0
M  V30 38 H 2.384892 2.457082 4.227093 0
M  V30 39 H 4.205957 0.139503 3.844357 0
M  V30 40 H 4.473089 1.777981 3.221931 0
M  V30 41 H 2.596585 -1.443538 2.914946 0
M  V30 42 H 1.415683 -2.022763 0.885035 0
M  V30 43 H -0.530606 0.369134 0.457784 0
M  V30 44 H -2.157479 0.068896 2.197487 0
M  V30 45 H -3.864970 -1.635808 1.951933 0
M  V30 46 H -3.070237 -4.046443 -1.758488 0
M  V30 47 H -3.976830 -4.004155 -3.756655 0
M  V30 48 H -3.753459 -3.576058 -6.230699 0
M  V30 49 H -1.912520 -2.113419 -7.081505 0
M  V30 50 H -0.291090 -1.077001 -5.445446 0
M  V30 51 H 1.912371 1.839920 -0.744666 0
M  V30 52 H 3.143978 2.545373 1.302917 0
M  V30 END ATOM
M  V30 BEGIN BOND
M  V30 1 1 1 2
M  V30 2 1 2 3
M  V30 3 1 3 4
M  V30 4 1 4 5
M  V30 5 1 5 6
M  V30 6 1 6 7
M  V30 7 2 7 8
M  V30 8 1 8 9
M  V30 9 2 9 10
M  V30 10 1 10 11
M  V30 11 2 11 12
M  V30 12 1 12 13
M  V30 13 2 13 14
M  V30 14 1 14 15
M  V30 15 1 15 16
M  V30 16 2 16 17
M  V30 17 1 17 18
M  V30 18 2 18 19
M  V30 19 1 19 20
M  V30 20 2 20 21
M  V30 21 1 21 22
M  V30 22 1 22 23
M  V30 23 2 23 24
M  V30 24 1 24 25
M  V30 25 2 25 26
M  V30 26 1 26 27
M  V30 27 2 27 28
M  V30 28 1 10 29
M  V30 29 2 29 30
M  V30 30 1 30 7
M  V30 31 1 15 11
M  V30 32 1 21 16
M  V30 33 1 28 23
M  V30 34 1 28 14
M  V30 35 1 1 31
M  V30 36 1 1 32
M  V30 37 1 1 33
M  V30 38 1 3 34
M  V30 39 1 3 35
M  V30 40 1 4 36
M  V30 41 1 4 37
M  V30 42 1 5 38
M  V30 43 1 6 39
M  V30 44 1 6 40
M  V30 45 1 8 41
M  V30 46 1 9 42
M  V30 47 1 17 43
M  V30 48 1 18 44
M  V30 49 1 19 45
M  V30 50 1 22 46
M  V30 51 1 24 47
M  V30 52 1 25 48
M  V30 53 1 26 49
M  V30 54 1 27 50
M  V30 55 1 29 51
M  V30 56 1 30 52
M  V30 END BOND
M  V30 END CTAB
M  END
>  <Dataset>  (108) 
ChEMBL_Kinases

>  <Ligand_Instance>  (108) 
nan

>  <PDB_ID>  (108) 
nan

>  <Standardized_SMILES>  (108) 
COCCNCc1ccc(-c2nnc3n2-c2cccnc2Nc2ccccc2-3)cc1

>  <Name>  (108) 
nan

>  <Pocket>  (108) 
nan

>  <ATP_Site>  (108) 
nan

>  <Peripheral>  (108) 
nan

>  <Num_H_Atoms_ProtBoundConf>  (108) 
nan

>  <Num_Resolved_Atoms>  (108) 
nan

>  <Num_Not_Resolved_Atoms>  (108) 
nan

$$$$
CHEMBL3684384
     RDKit          3D

  0  0  0  0  0  0  0  0  0  0999 V3000
M  V30 BEGIN CTAB
M  V30 COUNTS 66 72 0 0 0
M  V30 BEGIN ATOM
M  V30 1 C 6.044414 2.498068 6.139577 0
M  V30 2 C 4.806045 2.733503 6.698643 0
M  V30 3 C 3.622912 2.526033 6.024724 0
M  V30 4 C 3.761697 2.062597 4.741677 0
M  V30 5 C 4.995738 1.808525 4.126987 0
M  V30 6 C 6.170089 2.032903 4.848885 0
M  V30 7 N 5.312683 1.342529 2.790879 0
M  V30 8 C 4.450591 1.650338 1.668814 0
M  V30 9 N 5.187362 1.774406 0.548606 0
M  V30 10 C 4.485809 2.134855 -0.563890 0
M  V30 11 C 3.106414 2.375014 -0.610366 0
M  V30 12 C 2.391310 2.235918 0.561227 0
M  V30 13 C 3.094153 1.870473 1.676023 0
M  V30 14 N 2.221989 1.712081 2.771543 0
M  V30 15 C 0.940962 1.414108 2.554428 0
M  V30 16 C -0.001216 1.109443 1.502229 0
M  V30 17 C -1.169641 1.862099 1.281189 0
M  V30 18 C -2.088716 1.560383 0.301001 0
M  V30 19 C -1.847235 0.464761 -0.501239 0
M  V30 20 C -2.862914 0.194314 -1.537015 0
M  V30 21 N -3.943081 -0.639119 -1.143590 0
M  V30 22 C -4.909799 -0.891355 -2.162532 0
M  V30 23 C -4.798928 -2.214504 -2.844835 0
M  V30 24 N -3.643457 -2.970306 -2.404245 0
M  V30 25 C -3.845508 -4.329015 -2.920518 0
M  V30 26 C -2.759867 -5.246797 -2.562783 0
M  V30 27 C -1.637994 -5.447672 -3.320825 0
M  V30 28 C -0.633349 -6.330489 -2.940434 0
M  V30 29 N -0.751503 -7.016536 -1.794744 0
M  V30 30 C -1.837587 -6.859438 -1.004677 0
M  V30 31 C -2.822839 -5.980924 -1.396980 0
M  V30 32 C -3.657918 -3.069461 -0.972898 0
M  V30 33 C -3.649568 -1.727294 -0.280438 0
M  V30 34 C -0.730893 -0.333828 -0.361724 0
M  V30 35 C 0.153202 0.014210 0.633307 0
M  V30 36 N 0.388714 1.338184 3.800046 0
M  V30 37 N 1.328618 1.583465 4.723444 0
M  V30 38 C 2.484659 1.817340 4.082262 0
M  V30 39 H 6.943971 2.676529 6.712637 0
M  V30 40 H 4.697682 3.105924 7.729652 0
M  V30 41 H 2.614698 2.676677 6.366826 0
M  V30 42 H 7.103291 1.823731 4.345559 0
M  V30 43 H 6.181935 0.794554 2.647449 0
M  V30 44 H 5.086733 2.230848 -1.462773 0
M  V30 45 H 2.719500 2.650039 -1.565879 0
M  V30 46 H 1.374765 2.487124 0.412093 0
M  V30 47 H -1.265505 2.712655 1.974797 0
M  V30 48 H -2.962063 2.199742 0.204953 0
M  V30 49 H -3.274036 1.171876 -1.917129 0
M  V30 50 H -2.412661 -0.266773 -2.453424 0
M  V30 51 H -5.943469 -0.751275 -1.744196 0
M  V30 52 H -4.761994 -0.092577 -2.945578 0
M  V30 53 H -5.719985 -2.831483 -2.647493 0
M  V30 54 H -4.679404 -2.114848 -3.953953 0
M  V30 55 H -4.811676 -4.728418 -2.593988 0
M  V30 56 H -3.870610 -4.219623 -4.025644 0
M  V30 57 H -1.543074 -4.893251 -4.245781 0
M  V30 58 H 0.251155 -6.498896 -3.523601 0
M  V30 59 H -1.879657 -7.437321 -0.093633 0
M  V30 60 H -3.644004 -5.924574 -0.705651 0
M  V30 61 H -4.527893 -3.695339 -0.693350 0
M  V30 62 H -2.752417 -3.630024 -0.652540 0
M  V30 63 H -4.489856 -1.776727 0.472976 0
M  V30 64 H -2.753148 -1.541349 0.306145 0
M  V30 65 H -0.550292 -1.190083 -0.994901 0
M  V30 66 H 1.069445 -0.570248 0.811907 0
M  V30 END ATOM
M  V30 BEGIN BOND
M  V30 1 2 1 2
M  V30 2 1 2 3
M  V30 3 2 3 4
M  V30 4 1 4 5
M  V30 5 2 5 6
M  V30 6 1 5 7
M  V30 7 1 7 8
M  V30 8 2 8 9
M  V30 9 1 9 10
M  V30 10 2 10 11
M  V30 11 1 11 12
M  V30 12 2 12 13
M  V30 13 1 13 14
M  V30 14 1 14 15
M  V30 15 1 15 16
M  V30 16 2 16 17
M  V30 17 1 17 18
M  V30 18 2 18 19
M  V30 19 1 19 20
M  V30 20 1 20 21
M  V30 21 1 21 22
M  V30 22 1 22 23
M  V30 23 1 23 24
M  V30 24 1 24 25
M  V30 25 1 25 26
M  V30 26 2 26 27
M  V30 27 1 27 28
M  V30 28 2 28 29
M  V30 29 1 29 30
M  V30 30 2 30 31
M  V30 31 1 24 32
M  V30 32 1 32 33
M  V30 33 1 19 34
M  V30 34 2 34 35
M  V30 35 2 15 36
M  V30 36 1 36 37
M  V30 37 2 37 38
M  V30 38 1 6 1
M  V30 39 1 13 8
M  V30 40 1 38 14
M  V30 41 1 38 4
M  V30 42 1 35 16
M  V30 43 1 33 21
M  V30 44 1 31 26
M  V30 45 1 1 39
M  V30 46 1 2 40
M  V30 47 1 3 41
M  V30 48 1 6 42
M  V30 49 1 7 43
M  V30 50 1 10 44
M  V30 51 1 11 45
M  V30 52 1 12 46
M  V30 53 1 17 47
M  V30 54 1 18 48
M  V30 55 1 20 49
M  V30 56 1 20 50
M  V30 57 1 22 51
M  V30 58 1 22 52
M  V30 59 1 23 53
M  V30 60 1 23 54
M  V30 61 1 25 55
M  V30 62 1 25 56
M  V30 63 1 27 57
M  V30 64 1 28 58
M  V30 65 1 30 59
M  V30 66 1 31 60
M  V30 67 1 32 61
M  V30 68 1 32 62
M  V30 69 1 33 63
M  V30 70 1 33 64
M  V30 71 1 34 65
M  V30 72 1 35 66
M  V30 END BOND
M  V30 END CTAB
M  END
>  <Dataset>  (109) 
ChEMBL_Kinases

>  <Ligand_Instance>  (109) 
nan

>  <PDB_ID>  (109) 
nan

>  <Standardized_SMILES>  (109) 
c1ccc2c(c1)Nc1ncccc1-n1c(-c3ccc(CN4CCN(Cc5ccncc5)CC4)cc3)nnc1-2

>  <Name>  (109) 
nan

>  <Pocket>  (109) 
nan

>  <ATP_Site>  (109) 
nan

>  <Peripheral>  (109) 
nan

>  <Num_H_Atoms_ProtBoundConf>  (109) 
nan

>  <Num_Resolved_Atoms>  (109) 
nan

>  <Num_Not_Resolved_Atoms>  (109) 
nan

$$$$
CHEMBL3684385
     RDKit          3D

  0  0  0  0  0  0  0  0  0  0999 V3000
M  V30 BEGIN CTAB
M  V30 COUNTS 60 65 0 0 0
M  V30 BEGIN ATOM
M  V30 1 C 0.464276 1.650482 4.367904 0
M  V30 2 N 1.575206 0.746727 4.127070 0
M  V30 3 C 2.345430 0.667358 5.350454 0
M  V30 4 C 3.544650 -0.253702 5.225150 0
M  V30 5 C 4.495117 0.168106 4.176032 0
M  V30 6 C 5.566280 1.012266 4.339201 0
M  V30 7 C 6.394624 1.340891 3.282349 0
M  V30 8 C 6.160878 0.822402 2.026893 0
M  V30 9 C 5.082003 -0.021880 1.884311 0
M  V30 10 N 4.321981 -0.302473 2.930331 0
M  V30 11 C 1.049075 -0.553978 3.836481 0
M  V30 12 C 0.168109 -0.524103 2.620298 0
M  V30 13 C -1.184598 -0.286378 2.739135 0
M  V30 14 C -1.976146 -0.262537 1.611134 0
M  V30 15 C -1.451826 -0.474291 0.322813 0
M  V30 16 C -2.216198 -0.429494 -0.900911 0
M  V30 17 N -2.781426 0.789682 -1.132364 0
M  V30 18 N -3.427991 0.758315 -2.310506 0
M  V30 19 C -3.285403 -0.455043 -2.832629 0
M  V30 20 N -2.551175 -1.162245 -1.963082 0
M  V30 21 C -2.124132 -2.502740 -2.041314 0
M  V30 22 C -1.904398 -3.011675 -0.791068 0
M  V30 23 C -1.426804 -4.302718 -0.706355 0
M  V30 24 C -1.200582 -5.007944 -1.895692 0
M  V30 25 N -1.427634 -4.490933 -3.143426 0
M  V30 26 C -1.901391 -3.208856 -3.202551 0
M  V30 27 N -2.161670 -2.834211 -4.572370 0
M  V30 28 C -3.235520 -1.913322 -4.880511 0
M  V30 29 C -3.751591 -2.212508 -6.147219 0
M  V30 30 C -4.800004 -1.437465 -6.596603 0
M  V30 31 C -5.323009 -0.403948 -5.827381 0
M  V30 32 C -4.831899 -0.092455 -4.582426 0
M  V30 33 C -3.789875 -0.863291 -4.137914 0
M  V30 34 C -0.085043 -0.702158 0.330647 0
M  V30 35 C 0.779154 -0.743428 1.403634 0
M  V30 36 H 0.805597 2.609483 4.817460 0
M  V30 37 H -0.265593 1.240118 5.100077 0
M  V30 38 H -0.091225 1.812902 3.420903 0
M  V30 39 H 2.682595 1.637518 5.720993 0
M  V30 40 H 1.670775 0.155158 6.092818 0
M  V30 41 H 4.083546 -0.208797 6.193819 0
M  V30 42 H 3.269701 -1.314137 5.084605 0
M  V30 43 H 5.727217 1.408463 5.346883 0
M  V30 44 H 7.234824 2.004674 3.416421 0
M  V30 45 H 6.766570 1.040679 1.173823 0
M  V30 46 H 4.800597 -0.492771 0.932434 0
M  V30 47 H 1.809249 -1.316022 3.663011 0
M  V30 48 H 0.417230 -0.924936 4.680648 0
M  V30 49 H -1.657894 -0.115469 3.693336 0
M  V30 50 H -3.055741 -0.078188 1.649737 0
M  V30 51 H -2.076389 -2.612038 0.171314 0
M  V30 52 H -1.201181 -4.847349 0.190040 0
M  V30 53 H -0.824939 -6.020106 -1.872931 0
M  V30 54 H -1.589506 -3.238457 -5.329933 0
M  V30 55 H -3.297841 -3.026931 -6.694428 0
M  V30 56 H -5.217094 -1.647859 -7.571938 0
M  V30 57 H -6.152585 0.209465 -6.181620 0
M  V30 58 H -5.160344 0.682267 -3.907899 0
M  V30 59 H 0.346416 -0.870136 -0.664344 0
M  V30 60 H 1.824223 -0.934946 1.230125 0
M  V30 END ATOM
M  V30 BEGIN BOND
M  V30 1 1 1 2
M  V30 2 1 2 3
M  V30 3 1 3 4
M  V30 4 1 4 5
M  V30 5 2 5 6
M  V30 6 1 6 7
M  V30 7 2 7 8
M  V30 8 1 8 9
M  V30 9 2 9 10
M  V30 10 1 2 11
M  V30 11 1 11 12
M  V30 12 2 12 13
M  V30 13 1 13 14
M  V30 14 2 14 15
M  V30 15 1 15 16
M  V30 16 2 16 17
M  V30 17 1 17 18
M  V30 18 2 18 19
M  V30 19 1 19 20
M  V30 20 1 20 21
M  V30 21 2 21 22
M  V30 22 1 22 23
M  V30 23 2 23 24
M  V30 24 1 24 25
M  V30 25 2 25 26
M  V30 26 1 26 27
M  V30 27 1 27 28
M  V30 28 2 28 29
M  V30 29 1 29 30
M  V30 30 2 30 31
M  V30 31 1 31 32
M  V30 32 2 32 33
M  V30 33 1 15 34
M  V30 34 2 34 35
M  V30 35 1 10 5
M  V30 36 1 35 12
M  V30 37 1 20 16
M  V30 38 1 26 21
M  V30 39 1 33 28
M  V30 40 1 33 19
M  V30 41 1 1 36
M  V30 42 1 1 37
M  V30 43 1 1 38
M  V30 44 1 3 39
M  V30 45 1 3 40
M  V30 46 1 4 41
M  V30 47 1 4 42
M  V30 48 1 6 43
M  V30 49 1 7 44
M  V30 50 1 8 45
M  V30 51 1 9 46
M  V30 52 1 11 47
M  V30 53 1 11 48
M  V30 54 1 13 49
M  V30 55 1 14 50
M  V30 56 1 22 51
M  V30 57 1 23 52
M  V30 58 1 24 53
M  V30 59 1 27 54
M  V30 60 1 29 55
M  V30 61 1 30 56
M  V30 62 1 31 57
M  V30 63 1 32 58
M  V30 64 1 34 59
M  V30 65 1 35 60
M  V30 END BOND
M  V30 END CTAB
M  END
>  <Dataset>  (110) 
ChEMBL_Kinases

>  <Ligand_Instance>  (110) 
nan

>  <PDB_ID>  (110) 
nan

>  <Standardized_SMILES>  (110) 
CN(CCc1ccccn1)Cc1ccc(-c2nnc3n2-c2cccnc2Nc2ccccc2-3)cc1

>  <Name>  (110) 
nan

>  <Pocket>  (110) 
nan

>  <ATP_Site>  (110) 
nan

>  <Peripheral>  (110) 
nan

>  <Num_H_Atoms_ProtBoundConf>  (110) 
nan

>  <Num_Resolved_Atoms>  (110) 
nan

>  <Num_Not_Resolved_Atoms>  (110) 
nan

$$$$
CHEMBL3684386
     RDKit          3D

  0  0  0  0  0  0  0  0  0  0999 V3000
M  V30 BEGIN CTAB
M  V30 COUNTS 59 64 0 0 0
M  V30 BEGIN ATOM
M  V30 1 O 4.414480 -1.801165 2.890853 0
M  V30 2 C 5.067043 -1.939032 1.670860 0
M  V30 3 C 4.404072 -1.100613 0.567122 0
M  V30 4 C 4.450398 0.329305 0.981873 0
M  V30 5 C 4.666004 1.281234 -0.176171 0
M  V30 6 N 4.234149 0.693763 -1.373092 0
M  V30 7 C 3.036622 1.113402 -1.979848 0
M  V30 8 C 1.888935 0.844480 -1.077649 0
M  V30 9 C 1.365575 1.716153 -0.147506 0
M  V30 10 C 0.294280 1.369639 0.648284 0
M  V30 11 C -0.311620 0.105893 0.542809 0
M  V30 12 C -1.415623 -0.371481 1.348583 0
M  V30 13 N -1.138879 -0.439252 2.687025 0
M  V30 14 N -2.183372 -0.935100 3.343239 0
M  V30 15 C -3.146257 -1.194002 2.442227 0
M  V30 16 N -2.660700 -0.841790 1.242599 0
M  V30 17 C -3.283657 -0.910844 -0.015414 0
M  V30 18 C -2.737041 0.011390 -0.861731 0
M  V30 19 C -3.202304 0.037955 -2.161983 0
M  V30 20 C -4.200630 -0.873750 -2.530033 0
M  V30 21 N -4.736214 -1.786688 -1.662054 0
M  V30 22 C -4.257846 -1.792167 -0.379544 0
M  V30 23 N -4.979678 -2.758302 0.416373 0
M  V30 24 C -5.197240 -2.520130 1.828370 0
M  V30 25 C -6.393571 -3.122866 2.212433 0
M  V30 26 C -6.770838 -2.979659 3.546716 0
M  V30 27 C -5.978996 -2.267724 4.432327 0
M  V30 28 C -4.792279 -1.663646 4.076746 0
M  V30 29 C -4.430004 -1.810878 2.762506 0
M  V30 30 C 0.262692 -0.743548 -0.422197 0
M  V30 31 C 1.333918 -0.424463 -1.232024 0
M  V30 32 C 4.863432 -0.478872 -1.836392 0
M  V30 33 C 5.119882 -1.425820 -0.704564 0
M  V30 34 H 3.712871 -1.086815 2.847867 0
M  V30 35 H 6.097016 -1.549574 1.799106 0
M  V30 36 H 5.128740 -2.998395 1.373285 0
M  V30 37 H 3.353873 -1.465457 0.546901 0
M  V30 38 H 3.494186 0.597911 1.461580 0
M  V30 39 H 5.228373 0.456197 1.765807 0
M  V30 40 H 5.770042 1.515942 -0.253560 0
M  V30 41 H 4.154725 2.255804 -0.033448 0
M  V30 42 H 2.913928 0.567232 -2.953850 0
M  V30 43 H 2.998624 2.185178 -2.261599 0
M  V30 44 H 1.817593 2.684901 -0.060403 0
M  V30 45 H -0.125429 2.038777 1.378618 0
M  V30 46 H -2.026226 0.779216 -0.712985 0
M  V30 47 H -2.891276 0.682217 -2.947570 0
M  V30 48 H -4.597295 -0.895511 -3.535265 0
M  V30 49 H -5.354438 -3.613063 -0.031198 0
M  V30 50 H -6.949087 -3.656045 1.477638 0
M  V30 51 H -7.690551 -3.433009 3.877881 0
M  V30 52 H -6.264265 -2.145290 5.489717 0
M  V30 53 H -4.115491 -1.097256 4.682035 0
M  V30 54 H -0.196158 -1.727807 -0.516794 0
M  V30 55 H 1.679737 -1.168266 -1.934186 0
M  V30 56 H 4.185026 -0.929378 -2.618659 0
M  V30 57 H 5.824810 -0.268653 -2.352477 0
M  V30 58 H 6.211139 -1.631926 -0.533180 0
M  V30 59 H 4.723669 -2.433288 -1.026453 0
M  V30 END ATOM
M  V30 BEGIN BOND
M  V30 1 1 1 2
M  V30 2 1 2 3
M  V30 3 1 3 4
M  V30 4 1 4 5
M  V30 5 1 5 6
M  V30 6 1 6 7
M  V30 7 1 7 8
M  V30 8 2 8 9
M  V30 9 1 9 10
M  V30 10 2 10 11
M  V30 11 1 11 12
M  V30 12 2 12 13
M  V30 13 1 13 14
M  V30 14 2 14 15
M  V30 15 1 15 16
M  V30 16 1 16 17
M  V30 17 2 17 18
M  V30 18 1 18 19
M  V30 19 2 19 20
M  V30 20 1 20 21
M  V30 21 2 21 22
M  V30 22 1 22 23
M  V30 23 1 23 24
M  V30 24 2 24 25
M  V30 25 1 25 26
M  V30 26 2 26 27
M  V30 27 1 27 28
M  V30 28 2 28 29
M  V30 29 1 11 30
M  V30 30 2 30 31
M  V30 31 1 6 32
M  V30 32 1 32 33
M  V30 33 1 33 3
M  V30 34 1 31 8
M  V30 35 1 16 12
M  V30 36 1 22 17
M  V30 37 1 29 24
M  V30 38 1 29 15
M  V30 39 1 1 34
M  V30 40 1 2 35
M  V30 41 1 2 36
M  V30 42 1 3 37
M  V30 43 1 4 38
M  V30 44 1 4 39
M  V30 45 1 5 40
M  V30 46 1 5 41
M  V30 47 1 7 42
M  V30 48 1 7 43
M  V30 49 1 9 44
M  V30 50 1 10 45
M  V30 51 1 18 46
M  V30 52 1 19 47
M  V30 53 1 20 48
M  V30 54 1 23 49
M  V30 55 1 25 50
M  V30 56 1 26 51
M  V30 57 1 27 52
M  V30 58 1 28 53
M  V30 59 1 30 54
M  V30 60 1 31 55
M  V30 61 1 32 56
M  V30 62 1 32 57
M  V30 63 1 33 58
M  V30 64 1 33 59
M  V30 END BOND
M  V30 END CTAB
M  END
>  <Dataset>  (111) 
ChEMBL_Kinases

>  <Ligand_Instance>  (111) 
nan

>  <PDB_ID>  (111) 
nan

>  <Standardized_SMILES>  (111) 
OCC1CCN(Cc2ccc(-c3nnc4n3-c3cccnc3Nc3ccccc3-4)cc2)CC1

>  <Name>  (111) 
nan

>  <Pocket>  (111) 
nan

>  <ATP_Site>  (111) 
nan

>  <Peripheral>  (111) 
nan

>  <Num_H_Atoms_ProtBoundConf>  (111) 
nan

>  <Num_Resolved_Atoms>  (111) 
nan

>  <Num_Not_Resolved_Atoms>  (111) 
nan

$$$$
CHEMBL3684387
     RDKit          3D

  0  0  0  0  0  0  0  0  0  0999 V3000
M  V30 BEGIN CTAB
M  V30 COUNTS 55 59 0 0 0
M  V30 BEGIN ATOM
M  V30 1 C 6.252031 -0.147052 2.402765 0
M  V30 2 O 6.829734 -0.106632 1.142478 0
M  V30 3 C 6.193004 -0.880188 0.190261 0
M  V30 4 C 4.789785 -0.498642 -0.116868 0
M  V30 5 N 4.556992 0.799353 -0.622303 0
M  V30 6 C 4.773198 1.909388 0.232983 0
M  V30 7 C 3.384820 0.939437 -1.427305 0
M  V30 8 C 2.117634 0.600986 -0.739085 0
M  V30 9 C 1.438453 1.604633 -0.050668 0
M  V30 10 C 0.251654 1.365083 0.610410 0
M  V30 11 C -0.312279 0.078597 0.605228 0
M  V30 12 C -1.523985 -0.361433 1.263406 0
M  V30 13 N -1.481908 -0.253281 2.622123 0
M  V30 14 N -2.621763 -0.731430 3.147783 0
M  V30 15 C -3.396492 -1.147073 2.136213 0
M  V30 16 N -2.713095 -0.909333 1.008022 0
M  V30 17 C -3.096030 -1.159707 -0.324481 0
M  V30 18 C -2.443140 -0.310359 -1.174765 0
M  V30 19 C -2.675731 -0.474863 -2.522602 0
M  V30 20 C -3.553368 -1.483414 -2.938952 0
M  V30 21 N -4.207076 -2.328388 -2.082499 0
M  V30 22 C -3.958186 -2.142065 -0.750744 0
M  V30 23 N -4.768856 -3.045439 0.035477 0
M  V30 24 C -5.246014 -2.651734 1.345737 0
M  V30 25 C -6.477901 -3.272188 1.596000 0
M  V30 26 C -7.074574 -2.981718 2.806017 0
M  V30 27 C -6.504021 -2.130059 3.728826 0
M  V30 28 C -5.293248 -1.510416 3.502203 0
M  V30 29 C -4.692206 -1.792704 2.303835 0
M  V30 30 C 0.410369 -0.901037 -0.102917 0
M  V30 31 C 1.597264 -0.675034 -0.767505 0
M  V30 32 H 6.815527 0.503196 3.109183 0
M  V30 33 H 5.176121 0.059299 2.394169 0
M  V30 34 H 6.353845 -1.178362 2.857803 0
M  V30 35 H 6.132072 -1.910635 0.653323 0
M  V30 36 H 6.820664 -1.047155 -0.710052 0
M  V30 37 H 4.172313 -0.635743 0.794187 0
M  V30 38 H 4.464608 -1.221412 -0.927491 0
M  V30 39 H 4.132463 1.953361 1.139616 0
M  V30 40 H 5.818080 2.046094 0.578003 0
M  V30 41 H 4.582709 2.832805 -0.394985 0
M  V30 42 H 3.477472 0.172381 -2.252669 0
M  V30 43 H 3.272148 1.915837 -1.901834 0
M  V30 44 H 1.841692 2.617938 -0.021014 0
M  V30 45 H -0.322721 2.082696 1.157436 0
M  V30 46 H -1.802688 0.511412 -1.000284 0
M  V30 47 H -2.242559 0.106084 -3.327902 0
M  V30 48 H -3.752392 -1.637415 -3.993305 0
M  V30 49 H -5.022896 -3.973283 -0.349338 0
M  V30 50 H -6.871609 -3.931637 0.836207 0
M  V30 51 H -8.035263 -3.455066 3.021074 0
M  V30 52 H -6.979001 -1.905596 4.678968 0
M  V30 53 H -4.756788 -0.832866 4.143464 0
M  V30 54 H 0.025713 -1.930223 -0.146659 0
M  V30 55 H 2.090506 -1.485932 -1.289722 0
M  V30 END ATOM
M  V30 BEGIN BOND
M  V30 1 1 1 2
M  V30 2 1 2 3
M  V30 3 1 3 4
M  V30 4 1 4 5
M  V30 5 1 5 6
M  V30 6 1 5 7
M  V30 7 1 7 8
M  V30 8 2 8 9
M  V30 9 1 9 10
M  V30 10 2 10 11
M  V30 11 1 11 12
M  V30 12 2 12 13
M  V30 13 1 13 14
M  V30 14 2 14 15
M  V30 15 1 15 16
M  V30 16 1 16 17
M  V30 17 2 17 18
M  V30 18 1 18 19
M  V30 19 2 19 20
M  V30 20 1 20 21
M  V30 21 2 21 22
M  V30 22 1 22 23
M  V30 23 1 23 24
M  V30 24 2 24 25
M  V30 25 1 25 26
M  V30 26 2 26 27
M  V30 27 1 27 28
M  V30 28 2 28 29
M  V30 29 1 11 30
M  V30 30 2 30 31
M  V30 31 1 31 8
M  V30 32 1 16 12
M  V30 33 1 22 17
M  V30 34 1 29 24
M  V30 35 1 29 15
M  V30 36 1 1 32
M  V30 37 1 1 33
M  V30 38 1 1 34
M  V30 39 1 3 35
M  V30 40 1 3 36
M  V30 41 1 4 37
M  V30 42 1 4 38
M  V30 43 1 6 39
M  V30 44 1 6 40
M  V30 45 1 6 41
M  V30 46 1 7 42
M  V30 47 1 7 43
M  V30 48 1 9 44
M  V30 49 1 10 45
M  V30 50 1 18 46
M  V30 51 1 19 47
M  V30 52 1 20 48
M  V30 53 1 23 49
M  V30 54 1 25 50
M  V30 55 1 26 51
M  V30 56 1 27 52
M  V30 57 1 28 53
M  V30 58 1 30 54
M  V30 59 1 31 55
M  V30 END BOND
M  V30 END CTAB
M  END
>  <Dataset>  (112) 
ChEMBL_Kinases

>  <Ligand_Instance>  (112) 
nan

>  <PDB_ID>  (112) 
nan

>  <Standardized_SMILES>  (112) 
COCCN(C)Cc1ccc(-c2nnc3n2-c2cccnc2Nc2ccccc2-3)cc1

>  <Name>  (112) 
nan

>  <Pocket>  (112) 
nan

>  <ATP_Site>  (112) 
nan

>  <Peripheral>  (112) 
nan

>  <Num_H_Atoms_ProtBoundConf>  (112) 
nan

>  <Num_Resolved_Atoms>  (112) 
nan

>  <Num_Not_Resolved_Atoms>  (112) 
nan

$$$$
CHEMBL3684388
     RDKit          3D

  0  0  0  0  0  0  0  0  0  0999 V3000
M  V30 BEGIN CTAB
M  V30 COUNTS 62 67 0 0 0
M  V30 BEGIN ATOM
M  V30 1 O 5.654115 0.691248 1.490011 0
M  V30 2 C 5.680921 1.130289 2.678384 0
M  V30 3 C 6.871944 1.060169 3.586550 0
M  V30 4 C 6.239611 1.360545 4.948653 0
M  V30 5 C 5.241812 2.441502 4.532275 0
M  V30 6 N 4.605168 1.771336 3.389420 0
M  V30 7 C 3.219224 1.738480 3.026119 0
M  V30 8 C 2.826009 2.881548 2.100507 0
M  V30 9 C 1.333635 2.665537 1.838224 0
M  V30 10 N 0.766865 3.662890 0.968168 0
M  V30 11 C -0.642917 3.381840 0.775316 0
M  V30 12 C -0.894505 2.048309 0.162766 0
M  V30 13 C -0.954851 1.951254 -1.211720 0
M  V30 14 C -1.186863 0.725498 -1.799050 0
M  V30 15 C -1.366349 -0.443477 -1.036621 0
M  V30 16 C -1.579728 -1.763260 -1.585787 0
M  V30 17 N -0.548321 -2.219354 -2.360829 0
M  V30 18 N -0.796858 -3.449062 -2.785153 0
M  V30 19 C -1.977073 -3.813629 -2.302454 0
M  V30 20 N -2.440295 -2.782348 -1.581623 0
M  V30 21 C -3.651209 -2.660762 -0.869342 0
M  V30 22 C -4.007859 -1.345093 -0.753671 0
M  V30 23 C -5.146806 -1.061941 -0.032517 0
M  V30 24 C -5.860712 -2.129116 0.528296 0
M  V30 25 N -5.504820 -3.445221 0.408324 0
M  V30 26 C -4.370101 -3.696037 -0.313113 0
M  V30 27 N -4.156254 -5.123546 -0.422775 0
M  V30 28 C -3.528542 -5.673769 -1.609036 0
M  V30 29 C -4.030987 -6.962565 -1.833924 0
M  V30 30 C -3.554075 -7.635935 -2.938266 0
M  V30 31 C -2.616331 -7.057176 -3.787533 0
M  V30 32 C -2.106818 -5.792062 -3.587309 0
M  V30 33 C -2.583172 -5.126267 -2.487945 0
M  V30 34 C -1.284461 -0.225488 0.352427 0
M  V30 35 C -1.056269 0.966614 1.003977 0
M  V30 36 H 7.214104 -0.005834 3.588913 0
M  V30 37 H 7.654524 1.775733 3.321594 0
M  V30 38 H 5.691796 0.440868 5.219193 0
M  V30 39 H 6.965163 1.715533 5.681355 0
M  V30 40 H 5.842730 3.317473 4.215248 0
M  V30 41 H 4.520590 2.651840 5.338528 0
M  V30 42 H 2.527262 1.770123 3.879212 0
M  V30 43 H 3.032075 0.794457 2.461712 0
M  V30 44 H 3.370173 2.882266 1.157227 0
M  V30 45 H 2.890104 3.811389 2.697622 0
M  V30 46 H 0.851496 2.747512 2.813429 0
M  V30 47 H 1.280438 1.668411 1.355978 0
M  V30 48 H 1.248184 3.748996 0.053904 0
M  V30 49 H -1.191814 3.452477 1.724407 0
M  V30 50 H -1.099404 4.136484 0.094830 0
M  V30 51 H -0.822935 2.825423 -1.854203 0
M  V30 52 H -1.243505 0.596355 -2.880391 0
M  V30 53 H -3.593544 -0.467503 -1.158130 0
M  V30 54 H -5.574529 -0.094361 0.163032 0
M  V30 55 H -6.759481 -1.957880 1.104625 0
M  V30 56 H -4.463484 -5.737602 0.329787 0
M  V30 57 H -4.748575 -7.347324 -1.138900 0
M  V30 58 H -3.921874 -8.628063 -3.136833 0
M  V30 59 H -2.231224 -7.586400 -4.670067 0
M  V30 60 H -1.390111 -5.261094 -4.173506 0
M  V30 61 H -1.422920 -1.127678 0.941773 0
M  V30 62 H -1.019550 0.985209 2.062622 0
M  V30 END ATOM
M  V30 BEGIN BOND
M  V30 1 2 1 2
M  V30 2 1 2 3
M  V30 3 1 3 4
M  V30 4 1 4 5
M  V30 5 1 5 6
M  V30 6 1 6 7
M  V30 7 1 7 8
M  V30 8 1 8 9
M  V30 9 1 9 10
M  V30 10 1 10 11
M  V30 11 1 11 12
M  V30 12 2 12 13
M  V30 13 1 13 14
M  V30 14 2 14 15
M  V30 15 1 15 16
M  V30 16 2 16 17
M  V30 17 1 17 18
M  V30 18 2 18 19
M  V30 19 1 19 20
M  V30 20 1 20 21
M  V30 21 2 21 22
M  V30 22 1 22 23
M  V30 23 2 23 24
M  V30 24 1 24 25
M  V30 25 2 25 26
M  V30 26 1 26 27
M  V30 27 1 27 28
M  V30 28 2 28 29
M  V30 29 1 29 30
M  V30 30 2 30 31
M  V30 31 1 31 32
M  V30 32 2 32 33
M  V30 33 1 15 34
M  V30 34 2 34 35
M  V30 35 1 6 2
M  V30 36 1 35 12
M  V30 37 1 20 16
M  V30 38 1 26 21
M  V30 39 1 33 28
M  V30 40 1 33 19
M  V30 41 1 3 36
M  V30 42 1 3 37
M  V30 43 1 4 38
M  V30 44 1 4 39
M  V30 45 1 5 40
M  V30 46 1 5 41
M  V30 47 1 7 42
M  V30 48 1 7 43
M  V30 49 1 8 44
M  V30 50 1 8 45
M  V30 51 1 9 46
M  V30 52 1 9 47
M  V30 53 1 10 48
M  V30 54 1 11 49
M  V30 55 1 11 50
M  V30 56 1 13 51
M  V30 57 1 14 52
M  V30 58 1 22 53
M  V30 59 1 23 54
M  V30 60 1 24 55
M  V30 61 1 27 56
M  V30 62 1 29 57
M  V30 63 1 30 58
M  V30 64 1 31 59
M  V30 65 1 32 60
M  V30 66 1 34 61
M  V30 67 1 35 62
M  V30 END BOND
M  V30 END CTAB
M  END
>  <Dataset>  (113) 
ChEMBL_Kinases

>  <Ligand_Instance>  (113) 
nan

>  <PDB_ID>  (113) 
nan

>  <Standardized_SMILES>  (113) 
O=C1CCCN1CCCNCc1ccc(-c2nnc3n2-c2cccnc2Nc2ccccc2-3)cc1

>  <Name>  (113) 
nan

>  <Pocket>  (113) 
nan

>  <ATP_Site>  (113) 
nan

>  <Peripheral>  (113) 
nan

>  <Num_H_Atoms_ProtBoundConf>  (113) 
nan

>  <Num_Resolved_Atoms>  (113) 
nan

>  <Num_Not_Resolved_Atoms>  (113) 
nan

$$$$
CHEMBL3684389
     RDKit          3D

  0  0  0  0  0  0  0  0  0  0999 V3000
M  V30 BEGIN CTAB
M  V30 COUNTS 61 66 0 0 0
M  V30 BEGIN ATOM
M  V30 1 C 3.638713 1.721679 0.347281 0
M  V30 2 N 2.681637 2.512472 1.031502 0
M  V30 3 C 3.151026 3.729892 1.586044 0
M  V30 4 C 4.082452 3.395094 2.739131 0
M  V30 5 C 3.316627 2.610636 3.776071 0
M  V30 6 C 3.169524 1.256319 3.859257 0
M  V30 7 C 2.426346 0.714039 4.882925 0
M  V30 8 C 1.808037 1.495473 5.853030 0
M  V30 9 C 1.935633 2.886798 5.802159 0
M  V30 10 C 2.698054 3.376163 4.745343 0
M  V30 11 C 1.365825 2.557795 0.505218 0
M  V30 12 C 0.703902 1.223385 0.421468 0
M  V30 13 C -0.029311 0.705954 1.469047 0
M  V30 14 C -0.649676 -0.525283 1.394464 0
M  V30 15 C -0.541510 -1.290659 0.219307 0
M  V30 16 C -1.093518 -2.603556 -0.028206 0
M  V30 17 N -0.588501 -3.569923 0.794992 0
M  V30 18 N -1.105863 -4.756864 0.473315 0
M  V30 19 C -1.945886 -4.568724 -0.555899 0
M  V30 20 N -1.924123 -3.260017 -0.838756 0
M  V30 21 C -2.637674 -2.557023 -1.831848 0
M  V30 22 C -2.789098 -1.248299 -1.459845 0
M  V30 23 C -3.423106 -0.411258 -2.354605 0
M  V30 24 C -3.861155 -0.965246 -3.564602 0
M  V30 25 N -3.715015 -2.272451 -3.937292 0
M  V30 26 C -3.087024 -3.051735 -3.024882 0
M  V30 27 N -3.060059 -4.422502 -3.495976 0
M  V30 28 C -3.116832 -5.534191 -2.563130 0
M  V30 29 C -3.756058 -6.621691 -3.165097 0
M  V30 30 C -3.893557 -7.746551 -2.383881 0
M  V30 31 C -3.443067 -7.836887 -1.083754 0
M  V30 32 C -2.810755 -6.769525 -0.480812 0
M  V30 33 C -2.661481 -5.635964 -1.241994 0
M  V30 34 C 0.217112 -0.715640 -0.815697 0
M  V30 35 C 0.840377 0.511823 -0.751229 0
M  V30 36 H 4.514156 1.433821 0.943753 0
M  V30 37 H 4.016567 2.173583 -0.596351 0
M  V30 38 H 3.159674 0.756018 0.039562 0
M  V30 39 H 3.713723 4.375645 0.880863 0
M  V30 40 H 2.322614 4.319508 1.981446 0
M  V30 41 H 4.923318 2.756593 2.436643 0
M  V30 42 H 4.525040 4.298553 3.206325 0
M  V30 43 H 3.667518 0.697190 3.084369 0
M  V30 44 H 2.336222 -0.363343 4.909682 0
M  V30 45 H 1.223039 1.041580 6.656075 0
M  V30 46 H 1.472788 3.511319 6.532860 0
M  V30 47 H 2.767795 4.461213 4.748808 0
M  V30 48 H 1.293707 3.003334 -0.500880 0
M  V30 49 H 0.776248 3.249302 1.167844 0
M  V30 50 H -0.142706 1.257531 2.397688 0
M  V30 51 H -1.235146 -0.988940 2.169775 0
M  V30 52 H -2.549690 -0.725719 -0.571178 0
M  V30 53 H -3.629187 0.640222 -2.238621 0
M  V30 54 H -4.362844 -0.352247 -4.303103 0
M  V30 55 H -3.016558 -4.619504 -4.510130 0
M  V30 56 H -4.089132 -6.503258 -4.185407 0
M  V30 57 H -4.393156 -8.613417 -2.838832 0
M  V30 58 H -3.557911 -8.726759 -0.481573 0
M  V30 59 H -2.414444 -6.711014 0.521425 0
M  V30 60 H 0.340852 -1.254238 -1.748941 0
M  V30 61 H 1.407705 0.888877 -1.589721 0
M  V30 END ATOM
M  V30 BEGIN BOND
M  V30 1 1 1 2
M  V30 2 1 2 3
M  V30 3 1 3 4
M  V30 4 1 4 5
M  V30 5 2 5 6
M  V30 6 1 6 7
M  V30 7 2 7 8
M  V30 8 1 8 9
M  V30 9 2 9 10
M  V30 10 1 2 11
M  V30 11 1 11 12
M  V30 12 2 12 13
M  V30 13 1 13 14
M  V30 14 2 14 15
M  V30 15 1 15 16
M  V30 16 2 16 17
M  V30 17 1 17 18
M  V30 18 2 18 19
M  V30 19 1 19 20
M  V30 20 1 20 21
M  V30 21 2 21 22
M  V30 22 1 22 23
M  V30 23 2 23 24
M  V30 24 1 24 25
M  V30 25 2 25 26
M  V30 26 1 26 27
M  V30 27 1 27 28
M  V30 28 2 28 29
M  V30 29 1 29 30
M  V30 30 2 30 31
M  V30 31 1 31 32
M  V30 32 2 32 33
M  V30 33 1 15 34
M  V30 34 2 34 35
M  V30 35 1 10 5
M  V30 36 1 35 12
M  V30 37 1 20 16
M  V30 38 1 26 21
M  V30 39 1 33 28
M  V30 40 1 33 19
M  V30 41 1 1 36
M  V30 42 1 1 37
M  V30 43 1 1 38
M  V30 44 1 3 39
M  V30 45 1 3 40
M  V30 46 1 4 41
M  V30 47 1 4 42
M  V30 48 1 6 43
M  V30 49 1 7 44
M  V30 50 1 8 45
M  V30 51 1 9 46
M  V30 52 1 10 47
M  V30 53 1 11 48
M  V30 54 1 11 49
M  V30 55 1 13 50
M  V30 56 1 14 51
M  V30 57 1 22 52
M  V30 58 1 23 53
M  V30 59 1 24 54
M  V30 60 1 27 55
M  V30 61 1 29 56
M  V30 62 1 30 57
M  V30 63 1 31 58
M  V30 64 1 32 59
M  V30 65 1 34 60
M  V30 66 1 35 61
M  V30 END BOND
M  V30 END CTAB
M  END
>  <Dataset>  (114) 
ChEMBL_Kinases

>  <Ligand_Instance>  (114) 
nan

>  <PDB_ID>  (114) 
nan

>  <Standardized_SMILES>  (114) 
CN(CCc1ccccc1)Cc1ccc(-c2nnc3n2-c2cccnc2Nc2ccccc2-3)cc1

>  <Name>  (114) 
nan

>  <Pocket>  (114) 
nan

>  <ATP_Site>  (114) 
nan

>  <Peripheral>  (114) 
nan

>  <Num_H_Atoms_ProtBoundConf>  (114) 
nan

>  <Num_Resolved_Atoms>  (114) 
nan

>  <Num_Not_Resolved_Atoms>  (114) 
nan

$$$$
CHEMBL3684390
     RDKit          3D

  0  0  0  0  0  0  0  0  0  0999 V3000
M  V30 BEGIN CTAB
M  V30 COUNTS 66 72 0 0 0
M  V30 BEGIN ATOM
M  V30 1 O -3.633413 3.581504 2.972349 0
M  V30 2 C -3.689640 2.235665 3.361477 0
M  V30 3 C -4.285794 2.239080 4.722829 0
M  V30 4 C -3.453091 2.901052 5.630965 0
M  V30 5 C -3.846300 3.008179 6.968786 0
M  V30 6 C -5.055536 2.466661 7.416990 0
M  V30 7 C -5.836320 1.825280 6.478357 0
M  V30 8 C -5.479758 1.705062 5.168075 0
M  V30 9 C -4.543826 1.532152 2.342831 0
M  V30 10 C -4.327374 0.050784 2.492415 0
M  V30 11 N -3.011720 -0.249776 2.033490 0
M  V30 12 C -2.930005 -0.916608 0.775582 0
M  V30 13 C -1.560009 -1.211076 0.317670 0
M  V30 14 C -1.045574 -2.418199 0.744789 0
M  V30 15 C 0.230227 -2.774390 0.358464 0
M  V30 16 C 1.031233 -1.951731 -0.457561 0
M  V30 17 C 2.384286 -2.276712 -0.854128 0
M  V30 18 N 3.233932 -2.401523 0.199529 0
M  V30 19 N 4.476758 -2.651877 -0.243497 0
M  V30 20 C 4.422487 -2.687016 -1.578323 0
M  V30 21 N 3.148562 -2.461526 -1.932763 0
M  V30 22 C 2.574850 -2.402637 -3.209161 0
M  V30 23 C 1.242860 -2.708522 -3.151952 0
M  V30 24 C 0.522852 -2.640299 -4.326925 0
M  V30 25 C 1.201149 -2.266695 -5.494358 0
M  V30 26 N 2.535272 -1.965031 -5.549259 0
M  V30 27 C 3.221001 -2.041591 -4.370951 0
M  V30 28 N 4.624492 -1.773333 -4.592280 0
M  V30 29 C 5.629712 -2.421366 -3.772879 0
M  V30 30 C 6.790115 -2.598308 -4.512884 0
M  V30 31 C 7.852794 -3.218580 -3.893855 0
M  V30 32 C 7.769080 -3.650044 -2.583178 0
M  V30 33 C 6.631564 -3.488963 -1.820615 0
M  V30 34 C 5.579482 -2.868816 -2.448715 0
M  V30 35 C 0.417155 -0.744561 -0.839355 0
M  V30 36 C -0.852095 -0.339609 -0.482823 0
M  V30 37 C -1.994722 0.687788 2.332041 0
M  V30 38 C -2.314453 1.641437 3.443695 0
M  V30 39 H -2.831146 4.030202 3.350501 0
M  V30 40 H -2.498135 3.368648 5.445235 0
M  V30 41 H -3.269339 3.498312 7.730340 0
M  V30 42 H -5.356941 2.552887 8.459670 0
M  V30 43 H -6.795290 1.377624 6.756898 0
M  V30 44 H -6.026900 1.228463 4.394886 0
M  V30 45 H -5.590632 1.834505 2.395139 0
M  V30 46 H -4.189666 1.812960 1.330577 0
M  V30 47 H -5.034473 -0.540008 1.856496 0
M  V30 48 H -4.379984 -0.300838 3.557178 0
M  V30 49 H -3.528807 -1.841344 0.735006 0
M  V30 50 H -3.353194 -0.205225 0.007293 0
M  V30 51 H -1.587028 -3.124274 1.378575 0
M  V30 52 H 0.701627 -3.715975 0.659640 0
M  V30 53 H 0.628797 -3.045689 -2.360268 0
M  V30 54 H -0.546579 -2.851923 -4.446650 0
M  V30 55 H 0.680874 -2.196577 -6.439476 0
M  V30 56 H 4.906498 -1.134367 -5.343049 0
M  V30 57 H 6.796237 -2.237121 -5.533464 0
M  V30 58 H 8.764144 -3.365946 -4.451407 0
M  V30 59 H 8.606020 -4.145913 -2.076338 0
M  V30 60 H 6.461542 -3.786195 -0.796400 0
M  V30 61 H 1.040669 -0.110738 -1.470887 0
M  V30 62 H -1.252673 0.592266 -0.814353 0
M  V30 63 H -1.091131 0.106597 2.678508 0
M  V30 64 H -1.631397 1.244898 1.445100 0
M  V30 65 H -1.582377 2.474546 3.390954 0
M  V30 66 H -2.144168 1.160073 4.432661 0
M  V30 END ATOM
M  V30 BEGIN BOND
M  V30 1 1 1 2
M  V30 2 1 2 3
M  V30 3 2 3 4
M  V30 4 1 4 5
M  V30 5 2 5 6
M  V30 6 1 6 7
M  V30 7 2 7 8
M  V30 8 1 2 9
M  V30 9 1 9 10
M  V30 10 1 10 11
M  V30 11 1 11 12
M  V30 12 1 12 13
M  V30 13 2 13 14
M  V30 14 1 14 15
M  V30 15 2 15 16
M  V30 16 1 16 17
M  V30 17 2 17 18
M  V30 18 1 18 19
M  V30 19 2 19 20
M  V30 20 1 20 21
M  V30 21 1 21 22
M  V30 22 2 22 23
M  V30 23 1 23 24
M  V30 24 2 24 25
M  V30 25 1 25 26
M  V30 26 2 26 27
M  V30 27 1 27 28
M  V30 28 1 28 29
M  V30 29 2 29 30
M  V30 30 1 30 31
M  V30 31 2 31 32
M  V30 32 1 32 33
M  V30 33 2 33 34
M  V30 34 1 16 35
M  V30 35 2 35 36
M  V30 36 1 11 37
M  V30 37 1 37 38
M  V30 38 1 38 2
M  V30 39 1 8 3
M  V30 40 1 36 13
M  V30 41 1 21 17
M  V30 42 1 27 22
M  V30 43 1 34 29
M  V30 44 1 34 20
M  V30 45 1 1 39
M  V30 46 1 4 40
M  V30 47 1 5 41
M  V30 48 1 6 42
M  V30 49 1 7 43
M  V30 50 1 8 44
M  V30 51 1 9 45
M  V30 52 1 9 46
M  V30 53 1 10 47
M  V30 54 1 10 48
M  V30 55 1 12 49
M  V30 56 1 12 50
M  V30 57 1 14 51
M  V30 58 1 15 52
M  V30 59 1 23 53
M  V30 60 1 24 54
M  V30 61 1 25 55
M  V30 62 1 28 56
M  V30 63 1 30 57
M  V30 64 1 31 58
M  V30 65 1 32 59
M  V30 66 1 33 60
M  V30 67 1 35 61
M  V30 68 1 36 62
M  V30 69 1 37 63
M  V30 70 1 37 64
M  V30 71 1 38 65
M  V30 72 1 38 66
M  V30 END BOND
M  V30 END CTAB
M  END
>  <Dataset>  (115) 
ChEMBL_Kinases

>  <Ligand_Instance>  (115) 
nan

>  <PDB_ID>  (115) 
nan

>  <Standardized_SMILES>  (115) 
OC1(c2ccccc2)CCN(Cc2ccc(-c3nnc4n3-c3cccnc3Nc3ccccc3-4)cc2)CC1

>  <Name>  (115) 
nan

>  <Pocket>  (115) 
nan

>  <ATP_Site>  (115) 
nan

>  <Peripheral>  (115) 
nan

>  <Num_H_Atoms_ProtBoundConf>  (115) 
nan

>  <Num_Resolved_Atoms>  (115) 
nan

>  <Num_Not_Resolved_Atoms>  (115) 
nan

$$$$
CHEMBL3684382
     RDKit          3D

  0  0  0  0  0  0  0  0  0  0999 V3000
M  V30 BEGIN CTAB
M  V30 COUNTS 67 72 0 0 0
M  V30 BEGIN ATOM
M  V30 1 C 4.069340 -2.575180 3.173229 0
M  V30 2 N 4.412517 -2.245144 1.800560 0
M  V30 3 C 4.732318 -3.317282 0.868406 0
M  V30 4 C 4.335583 -0.830180 1.734084 0
M  V30 5 O 4.000228 -0.683738 2.959842 0
M  V30 6 C 4.416808 0.488482 1.098919 0
M  V30 7 N 4.788110 0.466755 -0.298437 0
M  V30 8 C 3.793732 -0.100468 -1.152529 0
M  V30 9 C 2.937594 1.025284 -1.738736 0
M  V30 10 N 2.793355 2.052060 -0.768149 0
M  V30 11 C 1.666978 2.917608 -0.907207 0
M  V30 12 C 0.401124 2.151555 -0.838972 0
M  V30 13 C -0.251818 1.659488 -1.948106 0
M  V30 14 C -1.424658 0.958373 -1.755858 0
M  V30 15 C -1.984577 0.722765 -0.483807 0
M  V30 16 C -3.233744 0.015526 -0.317657 0
M  V30 17 N -4.283209 0.636587 -0.931275 0
M  V30 18 N -5.409935 -0.046443 -0.692093 0
M  V30 19 C -5.098617 -1.102505 0.070236 0
M  V30 20 N -3.777001 -1.044882 0.280149 0
M  V30 21 C -2.953480 -1.922847 1.011866 0
M  V30 22 C -1.666882 -1.867249 0.553083 0
M  V30 23 C -0.725074 -2.633564 1.207076 0
M  V30 24 C -1.151721 -3.413901 2.290110 0
M  V30 25 N -2.438235 -3.472107 2.745821 0
M  V30 26 C -3.344862 -2.702713 2.077070 0
M  V30 27 N -4.672451 -2.915099 2.609557 0
M  V30 28 C -5.836325 -2.823094 1.749631 0
M  V30 29 C -6.823288 -3.686658 2.225309 0
M  V30 30 C -8.005581 -3.736762 1.507950 0
M  V30 31 C -8.183869 -2.954945 0.367995 0
M  V30 32 C -7.228449 -2.102423 -0.112947 0
M  V30 33 C -6.063711 -2.057489 0.600328 0
M  V30 34 C -1.254506 1.259938 0.597164 0
M  V30 35 C -0.081635 1.964533 0.448920 0
M  V30 36 C 4.047019 2.775915 -0.658398 0
M  V30 37 C 5.193123 1.789914 -0.695619 0
M  V30 38 H 3.023988 -2.257698 3.443535 0
M  V30 39 H 4.061641 -3.675648 3.331725 0
M  V30 40 H 4.815915 -2.172506 3.854102 0
M  V30 41 H 5.684710 -3.757523 1.180071 0
M  V30 42 H 4.712693 -2.949206 -0.166600 0
M  V30 43 H 3.976566 -4.130232 0.911638 0
M  V30 44 H 3.453109 1.015936 1.263776 0
M  V30 45 H 5.191596 1.099510 1.614933 0
M  V30 46 H 4.329456 -0.629543 -1.984659 0
M  V30 47 H 3.165537 -0.863741 -0.666118 0
M  V30 48 H 2.013340 0.596935 -2.147855 0
M  V30 49 H 3.513573 1.391745 -2.635951 0
M  V30 50 H 1.717490 3.725319 -0.163739 0
M  V30 51 H 1.689879 3.353355 -1.949054 0
M  V30 52 H 0.146331 1.826191 -2.938174 0
M  V30 53 H -1.923201 0.579166 -2.649605 0
M  V30 54 H -1.231098 -1.364784 -0.269710 0
M  V30 55 H 0.333626 -2.715559 0.989484 0
M  V30 56 H -0.454928 -4.028929 2.837305 0
M  V30 57 H -4.783492 -3.151053 3.612900 0
M  V30 58 H -6.613784 -4.259694 3.116903 0
M  V30 59 H -8.782717 -4.395274 1.853604 0
M  V30 60 H -9.128068 -2.999544 -0.197728 0
M  V30 61 H -7.275521 -1.467102 -0.972429 0
M  V30 62 H -1.646179 1.105842 1.607037 0
M  V30 63 H 0.402481 2.333775 1.330378 0
M  V30 64 H 4.081127 3.272389 0.344369 0
M  V30 65 H 4.170108 3.497879 -1.489911 0
M  V30 66 H 5.984414 2.100513 0.049157 0
M  V30 67 H 5.687969 1.769157 -1.682123 0
M  V30 END ATOM
M  V30 BEGIN BOND
M  V30 1 1 1 2
M  V30 2 1 2 3
M  V30 3 1 2 4
M  V30 4 2 4 5
M  V30 5 1 4 6
M  V30 6 1 6 7
M  V30 7 1 7 8
M  V30 8 1 8 9
M  V30 9 1 9 10
M  V30 10 1 10 11
M  V30 11 1 11 12
M  V30 12 2 12 13
M  V30 13 1 13 14
M  V30 14 2 14 15
M  V30 15 1 15 16
M  V30 16 2 16 17
M  V30 17 1 17 18
M  V30 18 2 18 19
M  V30 19 1 19 20
M  V30 20 1 20 21
M  V30 21 2 21 22
M  V30 22 1 22 23
M  V30 23 2 23 24
M  V30 24 1 24 25
M  V30 25 2 25 26
M  V30 26 1 26 27
M  V30 27 1 27 28
M  V30 28 2 28 29
M  V30 29 1 29 30
M  V30 30 2 30 31
M  V30 31 1 31 32
M  V30 32 2 32 33
M  V30 33 1 15 34
M  V30 34 2 34 35
M  V30 35 1 10 36
M  V30 36 1 36 37
M  V30 37 1 37 7
M  V30 38 1 35 12
M  V30 39 1 20 16
M  V30 40 1 26 21
M  V30 41 1 33 28
M  V30 42 1 33 19
M  V30 43 1 1 38
M  V30 44 1 1 39
M  V30 45 1 1 40
M  V30 46 1 3 41
M  V30 47 1 3 42
M  V30 48 1 3 43
M  V30 49 1 6 44
M  V30 50 1 6 45
M  V30 51 1 8 46
M  V30 52 1 8 47
M  V30 53 1 9 48
M  V30 54 1 9 49
M  V30 55 1 11 50
M  V30 56 1 11 51
M  V30 57 1 13 52
M  V30 58 1 14 53
M  V30 59 1 22 54
M  V30 60 1 23 55
M  V30 61 1 24 56
M  V30 62 1 27 57
M  V30 63 1 29 58
M  V30 64 1 30 59
M  V30 65 1 31 60
M  V30 66 1 32 61
M  V30 67 1 34 62
M  V30 68 1 35 63
M  V30 69 1 36 64
M  V30 70 1 36 65
M  V30 71 1 37 66
M  V30 72 1 37 67
M  V30 END BOND
M  V30 END CTAB
M  END
>  <Dataset>  (116) 
ChEMBL_Kinases

>  <Ligand_Instance>  (116) 
nan

>  <PDB_ID>  (116) 
nan

>  <Standardized_SMILES>  (116) 
CN(C)C(=O)CN1CCN(Cc2ccc(-c3nnc4n3-c3cccnc3Nc3ccccc3-4)cc2)CC1

>  <Name>  (116) 
nan

>  <Pocket>  (116) 
nan

>  <ATP_Site>  (116) 
nan

>  <Peripheral>  (116) 
nan

>  <Num_H_Atoms_ProtBoundConf>  (116) 
nan

>  <Num_Resolved_Atoms>  (116) 
nan

>  <Num_Not_Resolved_Atoms>  (116) 
nan

$$$$
CHEMBL3684439
     RDKit          3D

  0  0  0  0  0  0  0  0  0  0999 V3000
M  V30 BEGIN CTAB
M  V30 COUNTS 71 78 0 0 0
M  V30 BEGIN ATOM
M  V30 1 C -0.946503 -4.268071 8.354747 0
M  V30 2 C -0.693723 -4.231560 6.982562 0
M  V30 3 C -0.283432 -3.023630 6.441090 0
M  V30 4 C -0.117406 -1.877054 7.187356 0
M  V30 5 C 0.317210 -0.647501 6.540568 0
M  V30 6 N 0.523287 0.538735 7.120239 0
M  V30 7 N 0.912042 1.403976 6.197779 0
M  V30 8 C 0.970663 0.798231 4.977561 0
M  V30 9 C 1.348872 1.346139 3.648720 0
M  V30 10 C 0.471380 2.549502 3.368337 0
M  V30 11 C 1.023841 3.412917 2.264190 0
M  V30 12 N 2.173530 2.936494 1.634651 0
M  V30 13 C 2.250436 2.847496 0.234217 0
M  V30 14 C 1.275022 1.987142 -0.443806 0
M  V30 15 C 0.091272 2.532747 -0.895048 0
M  V30 16 C -0.766748 1.651106 -1.514984 0
M  V30 17 C -0.540216 0.278192 -1.719643 0
M  V30 18 C -1.551963 -0.534465 -2.360119 0
M  V30 19 N -2.724547 -0.544282 -1.676176 0
M  V30 20 N -3.592102 -1.356769 -2.300964 0
M  V30 21 C -2.979123 -1.866574 -3.381275 0
M  V30 22 N -1.742682 -1.349978 -3.397879 0
M  V30 23 C -0.702366 -1.560498 -4.322064 0
M  V30 24 C 0.151519 -0.492429 -4.326716 0
M  V30 25 C 1.258297 -0.581843 -5.144362 0
M  V30 26 C 1.456301 -1.712361 -5.907706 0
M  V30 27 C 0.603000 -2.802316 -5.921280 0
M  V30 28 C -0.499900 -2.679477 -5.088179 0
M  V30 29 N -1.366991 -3.832397 -5.237825 0
M  V30 30 C -2.805724 -3.719076 -5.075608 0
M  V30 31 C -3.440886 -4.654853 -5.882568 0
M  V30 32 C -4.820098 -4.668799 -5.860407 0
M  V30 33 C -5.543005 -3.784267 -5.064533 0
M  V30 34 C -4.937195 -2.847169 -4.254841 0
M  V30 35 C -3.566510 -2.846102 -4.287370 0
M  V30 36 C 0.693940 -0.186120 -1.225282 0
M  V30 37 C 1.589679 0.652003 -0.596926 0
M  V30 38 C 3.183174 2.348759 2.412343 0
M  V30 39 C 2.756402 1.902707 3.785469 0
M  V30 40 N 0.597002 -0.456505 5.242669 0
M  V30 41 N -0.366866 -1.933784 8.511272 0
M  V30 42 C -0.771014 -3.092769 9.089906 0
M  V30 43 H -1.268654 -5.194893 8.811779 0
M  V30 44 H -0.811989 -5.119884 6.345962 0
M  V30 45 H -0.085657 -2.989846 5.374985 0
M  V30 46 H 1.280065 0.557679 2.888649 0
M  V30 47 H 0.392925 3.085099 4.337156 0
M  V30 48 H -0.551729 2.163807 3.171441 0
M  V30 49 H 1.280782 4.404621 2.742991 0
M  V30 50 H 0.244482 3.673619 1.525335 0
M  V30 51 H 3.278253 2.462990 -0.031475 0
M  V30 52 H 2.220856 3.846895 -0.285068 0
M  V30 53 H -0.205954 3.567533 -0.806006 0
M  V30 54 H -1.718621 2.047927 -1.887206 0
M  V30 55 H 0.113806 0.448562 -3.844275 0
M  V30 56 H 2.028640 0.178065 -5.258354 0
M  V30 57 H 2.324824 -1.810138 -6.561305 0
M  V30 58 H 0.695825 -3.714851 -6.489996 0
M  V30 59 H -0.952588 -4.746459 -5.480772 0
M  V30 60 H -2.824221 -5.308308 -6.469792 0
M  V30 61 H -5.341621 -5.387317 -6.479147 0
M  V30 62 H -6.639149 -3.792559 -5.044962 0
M  V30 63 H -5.394584 -2.128334 -3.610464 0
M  V30 64 H 0.857131 -1.249455 -1.389703 0
M  V30 65 H 2.516747 0.253850 -0.237052 0
M  V30 66 H 3.607372 1.465951 1.890116 0
M  V30 67 H 4.049392 3.048091 2.579265 0
M  V30 68 H 3.420623 1.116666 4.181264 0
M  V30 69 H 2.682611 2.732657 4.512900 0
M  V30 70 H 0.528657 -1.208493 4.523898 0
M  V30 71 H -0.978821 -3.168404 10.151323 0
M  V30 END ATOM
M  V30 BEGIN BOND
M  V30 1 2 1 2
M  V30 2 1 2 3
M  V30 3 2 3 4
M  V30 4 1 4 5
M  V30 5 2 5 6
M  V30 6 1 6 7
M  V30 7 2 7 8
M  V30 8 1 8 9
M  V30 9 1 9 10
M  V30 10 1 10 11
M  V30 11 1 11 12
M  V30 12 1 12 13
M  V30 13 1 13 14
M  V30 14 2 14 15
M  V30 15 1 15 16
M  V30 16 2 16 17
M  V30 17 1 17 18
M  V30 18 2 18 19
M  V30 19 1 19 20
M  V30 20 2 20 21
M  V30 21 1 21 22
M  V30 22 1 22 23
M  V30 23 2 23 24
M  V30 24 1 24 25
M  V30 25 2 25 26
M  V30 26 1 26 27
M  V30 27 2 27 28
M  V30 28 1 28 29
M  V30 29 1 29 30
M  V30 30 2 30 31
M  V30 31 1 31 32
M  V30 32 2 32 33
M  V30 33 1 33 34
M  V30 34 2 34 35
M  V30 35 1 17 36
M  V30 36 2 36 37
M  V30 37 1 12 38
M  V30 38 1 38 39
M  V30 39 1 8 40
M  V30 40 1 4 41
M  V30 41 2 41 42
M  V30 42 1 42 1
M  V30 43 1 40 5
M  V30 44 1 39 9
M  V30 45 1 37 14
M  V30 46 1 22 18
M  V30 47 1 28 23
M  V30 48 1 35 30
M  V30 49 1 35 21
M  V30 50 1 1 43
M  V30 51 1 2 44
M  V30 52 1 3 45
M  V30 53 1 9 46
M  V30 54 1 10 47
M  V30 55 1 10 48
M  V30 56 1 11 49
M  V30 57 1 11 50
M  V30 58 1 13 51
M  V30 59 1 13 52
M  V30 60 1 15 53
M  V30 61 1 16 54
M  V30 62 1 24 55
M  V30 63 1 25 56
M  V30 64 1 26 57
M  V30 65 1 27 58
M  V30 66 1 29 59
M  V30 67 1 31 60
M  V30 68 1 32 61
M  V30 69 1 33 62
M  V30 70 1 34 63
M  V30 71 1 36 64
M  V30 72 1 37 65
M  V30 73 1 38 66
M  V30 74 1 38 67
M  V30 75 1 39 68
M  V30 76 1 39 69
M  V30 77 1 40 70
M  V30 78 1 42 71
M  V30 END BOND
M  V30 END CTAB
M  END
>  <Dataset>  (117) 
ChEMBL_Kinases

>  <Ligand_Instance>  (117) 
nan

>  <PDB_ID>  (117) 
nan

>  <Standardized_SMILES>  (117) 
c1ccc(-c2nnc(C3CCN(Cc4ccc(-c5nnc6n5-c5ccccc5Nc5ccccc5-6)cc4)CC3)[nH]2)nc1

>  <Name>  (117) 
nan

>  <Pocket>  (117) 
nan

>  <ATP_Site>  (117) 
nan

>  <Peripheral>  (117) 
nan

>  <Num_H_Atoms_ProtBoundConf>  (117) 
nan

>  <Num_Resolved_Atoms>  (117) 
nan

>  <Num_Not_Resolved_Atoms>  (117) 
nan

$$$$
CHEMBL3684438
     RDKit          3D

  0  0  0  0  0  0  0  0  0  0999 V3000
M  V30 BEGIN CTAB
M  V30 COUNTS 70 77 0 0 0
M  V30 BEGIN ATOM
M  V30 1 O 1.347682 -3.451846 -1.598640 0
M  V30 2 C 2.427705 -2.934975 -1.214092 0
M  V30 3 N 2.988624 -3.449494 -0.107641 0
M  V30 4 C 4.115583 -2.764564 0.122984 0
M  V30 5 C 5.069642 -2.872806 1.112181 0
M  V30 6 C 6.162366 -2.032074 1.126716 0
M  V30 7 C 6.261852 -1.084767 0.118374 0
M  V30 8 C 5.295977 -1.017583 -0.833785 0
M  V30 9 C 4.178361 -1.831854 -0.901024 0
M  V30 10 N 3.139382 -1.915666 -1.747797 0
M  V30 11 C 2.847245 -1.138399 -2.910491 0
M  V30 12 C 1.356599 -1.339637 -3.165321 0
M  V30 13 C 0.724004 -0.335486 -4.064842 0
M  V30 14 N 1.079832 0.994410 -3.834180 0
M  V30 15 C 0.147383 1.943358 -3.414950 0
M  V30 16 C -0.546327 1.725810 -2.144428 0
M  V30 17 C 0.058348 2.234481 -1.012892 0
M  V30 18 C -0.567993 2.053509 0.200203 0
M  V30 19 C -1.793795 1.375822 0.343679 0
M  V30 20 C -2.473193 1.213349 1.607785 0
M  V30 21 N -2.823855 2.397450 2.194100 0
M  V30 22 N -3.487073 2.172557 3.324399 0
M  V30 23 C -3.574230 0.850772 3.483795 0
M  V30 24 N -2.953103 0.286910 2.438851 0
M  V30 25 C -2.764444 -1.076681 2.140238 0
M  V30 26 C -1.661416 -1.240826 1.348358 0
M  V30 27 C -1.387086 -2.524746 0.926457 0
M  V30 28 C -2.204342 -3.563136 1.306258 0
M  V30 29 C -3.322818 -3.420992 2.110159 0
M  V30 30 C -3.572902 -2.123494 2.518047 0
M  V30 31 N -4.710368 -2.087490 3.418426 0
M  V30 32 C -4.798383 -1.105210 4.485694 0
M  V30 33 C -5.509340 -1.650745 5.553891 0
M  V30 34 C -5.668841 -0.850246 6.663479 0
M  V30 35 C -5.153928 0.426509 6.720709 0
M  V30 36 C -4.448449 0.988814 5.678789 0
M  V30 37 C -4.287401 0.196465 4.571927 0
M  V30 38 C -2.314650 0.903706 -0.864697 0
M  V30 39 C -1.746327 1.046656 -2.112013 0
M  V30 40 C 2.453406 1.230284 -3.724541 0
M  V30 41 C 3.270747 0.265164 -2.918817 0
M  V30 42 H 2.675628 -4.229928 0.512905 0
M  V30 43 H 4.963164 -3.631302 1.895255 0
M  V30 44 H 6.868157 -2.171474 1.927332 0
M  V30 45 H 7.129445 -0.440760 0.156994 0
M  V30 46 H 5.462863 -0.263778 -1.562929 0
M  V30 47 H 3.326811 -1.702145 -3.768392 0
M  V30 48 H 0.800205 -1.303427 -2.202351 0
M  V30 49 H 1.176021 -2.341560 -3.604362 0
M  V30 50 H -0.370116 -0.473515 -3.975152 0
M  V30 51 H 0.985379 -0.633494 -5.117580 0
M  V30 52 H -0.601371 2.089367 -4.248637 0
M  V30 53 H 0.668385 2.945559 -3.382863 0
M  V30 54 H 1.000825 2.764450 -1.061606 0
M  V30 55 H -0.160778 2.421473 1.137386 0
M  V30 56 H -0.919990 -0.562518 1.015626 0
M  V30 57 H -0.543773 -2.814429 0.289153 0
M  V30 58 H -2.001657 -4.587014 0.977809 0
M  V30 59 H -4.006588 -4.184440 2.446215 0
M  V30 60 H -5.460902 -2.788783 3.301838 0
M  V30 61 H -5.889288 -2.656560 5.445898 0
M  V30 62 H -6.216756 -1.246821 7.509397 0
M  V30 63 H -5.276462 1.068372 7.599665 0
M  V30 64 H -4.004027 1.969292 5.612530 0
M  V30 65 H -3.265357 0.369497 -0.812386 0
M  V30 66 H -2.240304 0.640064 -2.982278 0
M  V30 67 H 2.592854 2.266355 -3.293763 0
M  V30 68 H 2.846579 1.363733 -4.780054 0
M  V30 69 H 3.324345 0.697450 -1.898865 0
M  V30 70 H 4.264008 0.308704 -3.463626 0
M  V30 END ATOM
M  V30 BEGIN BOND
M  V30 1 2 1 2
M  V30 2 1 2 3
M  V30 3 1 3 4
M  V30 4 2 4 5
M  V30 5 1 5 6
M  V30 6 2 6 7
M  V30 7 1 7 8
M  V30 8 2 8 9
M  V30 9 1 9 10
M  V30 10 1 10 11
M  V30 11 1 11 12
M  V30 12 1 12 13
M  V30 13 1 13 14
M  V30 14 1 14 15
M  V30 15 1 15 16
M  V30 16 2 16 17
M  V30 17 1 17 18
M  V30 18 2 18 19
M  V30 19 1 19 20
M  V30 20 2 20 21
M  V30 21 1 21 22
M  V30 22 2 22 23
M  V30 23 1 23 24
M  V30 24 1 24 25
M  V30 25 2 25 26
M  V30 26 1 26 27
M  V30 27 2 27 28
M  V30 28 1 28 29
M  V30 29 2 29 30
M  V30 30 1 30 31
M  V30 31 1 31 32
M  V30 32 2 32 33
M  V30 33 1 33 34
M  V30 34 2 34 35
M  V30 35 1 35 36
M  V30 36 2 36 37
M  V30 37 1 19 38
M  V30 38 2 38 39
M  V30 39 1 14 40
M  V30 40 1 40 41
M  V30 41 1 10 2
M  V30 42 1 41 11
M  V30 43 1 9 4
M  V30 44 1 39 16
M  V30 45 1 24 20
M  V30 46 1 30 25
M  V30 47 1 37 32
M  V30 48 1 37 23
M  V30 49 1 3 42
M  V30 50 1 5 43
M  V30 51 1 6 44
M  V30 52 1 7 45
M  V30 53 1 8 46
M  V30 54 1 11 47
M  V30 55 1 12 48
M  V30 56 1 12 49
M  V30 57 1 13 50
M  V30 58 1 13 51
M  V30 59 1 15 52
M  V30 60 1 15 53
M  V30 61 1 17 54
M  V30 62 1 18 55
M  V30 63 1 26 56
M  V30 64 1 27 57
M  V30 65 1 28 58
M  V30 66 1 29 59
M  V30 67 1 31 60
M  V30 68 1 33 61
M  V30 69 1 34 62
M  V30 70 1 35 63
M  V30 71 1 36 64
M  V30 72 1 38 65
M  V30 73 1 39 66
M  V30 74 1 40 67
M  V30 75 1 40 68
M  V30 76 1 41 69
M  V30 77 1 41 70
M  V30 END BOND
M  V30 END CTAB
M  END
>  <Dataset>  (118) 
ChEMBL_Kinases

>  <Ligand_Instance>  (118) 
nan

>  <PDB_ID>  (118) 
nan

>  <Standardized_SMILES>  (118) 
O=c1[nH]c2ccccc2n1C1CCN(Cc2ccc(-c3nnc4n3-c3ccccc3Nc3ccccc3-4)cc2)CC1

>  <Name>  (118) 
nan

>  <Pocket>  (118) 
nan

>  <ATP_Site>  (118) 
nan

>  <Peripheral>  (118) 
nan

>  <Num_H_Atoms_ProtBoundConf>  (118) 
nan

>  <Num_Resolved_Atoms>  (118) 
nan

>  <Num_Not_Resolved_Atoms>  (118) 
nan

$$$$
CHEMBL3684437
     RDKit          3D

  0  0  0  0  0  0  0  0  0  0999 V3000
M  V30 BEGIN CTAB
M  V30 COUNTS 40 44 0 0 0
M  V30 BEGIN ATOM
M  V30 1 Cl 6.981378 -2.741895 0.366636 0
M  V30 2 C 6.320484 -1.151487 -0.012681 0
M  V30 3 C 4.829280 -1.243715 0.028763 0
M  V30 4 C 4.130578 -1.569287 -1.114201 0
M  V30 5 C 2.756535 -1.651191 -1.063363 0
M  V30 6 C 2.029836 -1.414145 0.117572 0
M  V30 7 C 0.592325 -1.520014 0.230381 0
M  V30 8 N 0.127698 -2.775847 -0.038307 0
M  V30 9 N -1.206201 -2.805902 0.136732 0
M  V30 10 C -1.597122 -1.577258 0.515762 0
M  V30 11 N -0.493401 -0.816961 0.562024 0
M  V30 12 C -0.370155 0.540461 0.897587 0
M  V30 13 C 0.745182 1.073406 0.309665 0
M  V30 14 C 1.039354 2.394073 0.586208 0
M  V30 15 C 0.175178 3.089504 1.443898 0
M  V30 16 N -0.934997 2.546050 2.019189 0
M  V30 17 C -1.192980 1.255289 1.728066 0
M  V30 18 N -2.435821 0.842885 2.345161 0
M  V30 19 C -3.287533 -0.143382 1.708213 0
M  V30 20 C -4.621589 0.106668 2.029467 0
M  V30 21 C -5.566725 -0.737369 1.485512 0
M  V30 22 C -5.207131 -1.782225 0.660485 0
M  V30 23 C -3.900493 -2.061281 0.320842 0
M  V30 24 C -2.967255 -1.217422 0.866554 0
M  V30 25 C 2.844108 -1.091059 1.217780 0
M  V30 26 C 4.213920 -0.992755 1.235694 0
M  V30 27 H 6.682947 -0.862495 -1.028548 0
M  V30 28 H 6.683930 -0.385222 0.702856 0
M  V30 29 H 4.653682 -1.756841 -2.034014 0
M  V30 30 H 2.150359 -1.904620 -1.935373 0
M  V30 31 H 1.442441 0.679081 -0.382350 0
M  V30 32 H 1.878604 2.998060 0.220271 0
M  V30 33 H 0.349689 4.119641 1.700765 0
M  V30 34 H -2.731781 1.264940 3.241903 0
M  V30 35 H -4.826224 0.941094 2.683000 0
M  V30 36 H -6.605744 -0.561361 1.721498 0
M  V30 37 H -5.959046 -2.458526 0.223510 0
M  V30 38 H -3.519091 -2.841532 -0.305820 0
M  V30 39 H 2.299674 -0.902112 2.149400 0
M  V30 40 H 4.699587 -0.733695 2.165091 0
M  V30 END ATOM
M  V30 BEGIN BOND
M  V30 1 1 1 2
M  V30 2 1 2 3
M  V30 3 2 3 4
M  V30 4 1 4 5
M  V30 5 2 5 6
M  V30 6 1 6 7
M  V30 7 2 7 8
M  V30 8 1 8 9
M  V30 9 2 9 10
M  V30 10 1 10 11
M  V30 11 1 11 12
M  V30 12 2 12 13
M  V30 13 1 13 14
M  V30 14 2 14 15
M  V30 15 1 15 16
M  V30 16 2 16 17
M  V30 17 1 17 18
M  V30 18 1 18 19
M  V30 19 2 19 20
M  V30 20 1 20 21
M  V30 21 2 21 22
M  V30 22 1 22 23
M  V30 23 2 23 24
M  V30 24 1 6 25
M  V30 25 2 25 26
M  V30 26 1 26 3
M  V30 27 1 11 7
M  V30 28 1 17 12
M  V30 29 1 24 19
M  V30 30 1 24 10
M  V30 31 1 2 27
M  V30 32 1 2 28
M  V30 33 1 4 29
M  V30 34 1 5 30
M  V30 35 1 13 31
M  V30 36 1 14 32
M  V30 37 1 15 33
M  V30 38 1 18 34
M  V30 39 1 20 35
M  V30 40 1 21 36
M  V30 41 1 22 37
M  V30 42 1 23 38
M  V30 43 1 25 39
M  V30 44 1 26 40
M  V30 END BOND
M  V30 END CTAB
M  END
>  <Dataset>  (119) 
ChEMBL_Kinases

>  <Ligand_Instance>  (119) 
nan

>  <PDB_ID>  (119) 
nan

>  <Standardized_SMILES>  (119) 
ClCc1ccc(-c2nnc3n2-c2cccnc2Nc2ccccc2-3)cc1

>  <Name>  (119) 
nan

>  <Pocket>  (119) 
nan

>  <ATP_Site>  (119) 
nan

>  <Peripheral>  (119) 
nan

>  <Num_H_Atoms_ProtBoundConf>  (119) 
nan

>  <Num_Resolved_Atoms>  (119) 
nan

>  <Num_Not_Resolved_Atoms>  (119) 
nan

$$$$
CHEMBL3684436
     RDKit          3D

  0  0  0  0  0  0  0  0  0  0999 V3000
M  V30 BEGIN CTAB
M  V30 COUNTS 49 54 0 0 0
M  V30 BEGIN ATOM
M  V30 1 N -3.410806 -1.907089 -3.880266 0
M  V30 2 C -3.576760 -1.585081 -2.478134 0
M  V30 3 C -2.302959 -1.471886 -1.735190 0
M  V30 4 C -1.203335 -0.977738 -2.405453 0
M  V30 5 C -0.002959 -0.861101 -1.738133 0
M  V30 6 C 0.150855 -1.228190 -0.388412 0
M  V30 7 C 1.388631 -1.160217 0.351067 0
M  V30 8 N 2.370895 -1.951418 -0.168796 0
M  V30 9 N 3.467749 -1.869267 0.604552 0
M  V30 10 C 3.197953 -1.032506 1.616088 0
M  V30 11 N 1.937893 -0.617724 1.435261 0
M  V30 12 C 1.184248 0.275875 2.222618 0
M  V30 13 C 0.209943 0.872405 1.470301 0
M  V30 14 C -0.650766 1.737875 2.113520 0
M  V30 15 C -0.482642 1.959591 3.485113 0
M  V30 16 N 0.506350 1.349796 4.211331 0
M  V30 17 C 1.343962 0.504299 3.571870 0
M  V30 18 N 2.365477 0.013115 4.466742 0
M  V30 19 C 3.688332 -0.295715 3.963771 0
M  V30 20 C 4.627413 -0.071364 4.978885 0
M  V30 21 C 5.948577 -0.301412 4.664910 0
M  V30 22 C 6.330473 -0.736592 3.397344 0
M  V30 23 C 5.427396 -0.962104 2.392257 0
M  V30 24 C 4.119558 -0.734436 2.704805 0
M  V30 25 C -1.034160 -1.717413 0.190554 0
M  V30 26 C -2.264201 -1.861246 -0.412834 0
M  V30 27 C -4.355877 -0.278072 -2.317532 0
M  V30 28 C -5.266617 -0.980488 -1.304525 0
M  V30 29 C -4.696908 -2.288731 -1.804775 0
M  V30 30 H -4.346117 -2.276235 -4.207933 0
M  V30 31 H -3.258476 -1.032972 -4.444072 0
M  V30 32 H -1.243047 -0.671102 -3.454945 0
M  V30 33 H 0.898835 -0.479968 -2.208061 0
M  V30 34 H -0.002388 0.837966 0.435535 0
M  V30 35 H -1.470531 2.285366 1.665560 0
M  V30 36 H -1.141528 2.629965 4.019260 0
M  V30 37 H 2.146463 -0.098770 5.468124 0
M  V30 38 H 4.265432 0.260388 5.931438 0
M  V30 39 H 6.693045 -0.137069 5.426303 0
M  V30 40 H 7.386953 -0.919830 3.146922 0
M  V30 41 H 5.616962 -1.297251 1.384858 0
M  V30 42 H -0.940150 -2.007454 1.232739 0
M  V30 43 H -3.083712 -2.246438 0.142703 0
M  V30 44 H -3.829269 0.525469 -1.794620 0
M  V30 45 H -4.860401 0.027823 -3.241668 0
M  V30 46 H -6.315778 -0.796581 -1.563694 0
M  V30 47 H -5.040477 -0.761177 -0.245023 0
M  V30 48 H -4.497538 -3.069420 -1.075704 0
M  V30 49 H -5.403092 -2.703326 -2.579059 0
M  V30 END ATOM
M  V30 BEGIN BOND
M  V30 1 1 1 2
M  V30 2 1 2 3
M  V30 3 2 3 4
M  V30 4 1 4 5
M  V30 5 2 5 6
M  V30 6 1 6 7
M  V30 7 2 7 8
M  V30 8 1 8 9
M  V30 9 2 9 10
M  V30 10 1 10 11
M  V30 11 1 11 12
M  V30 12 2 12 13
M  V30 13 1 13 14
M  V30 14 2 14 15
M  V30 15 1 15 16
M  V30 16 2 16 17
M  V30 17 1 17 18
M  V30 18 1 18 19
M  V30 19 2 19 20
M  V30 20 1 20 21
M  V30 21 2 21 22
M  V30 22 1 22 23
M  V30 23 2 23 24
M  V30 24 1 6 25
M  V30 25 2 25 26
M  V30 26 1 2 27
M  V30 27 1 27 28
M  V30 28 1 28 29
M  V30 29 1 29 2
M  V30 30 1 26 3
M  V30 31 1 11 7
M  V30 32 1 17 12
M  V30 33 1 24 19
M  V30 34 1 24 10
M  V30 35 1 1 30
M  V30 36 1 1 31
M  V30 37 1 4 32
M  V30 38 1 5 33
M  V30 39 1 13 34
M  V30 40 1 14 35
M  V30 41 1 15 36
M  V30 42 1 18 37
M  V30 43 1 20 38
M  V30 44 1 21 39
M  V30 45 1 22 40
M  V30 46 1 23 41
M  V30 47 1 25 42
M  V30 48 1 26 43
M  V30 49 1 27 44
M  V30 50 1 27 45
M  V30 51 1 28 46
M  V30 52 1 28 47
M  V30 53 1 29 48
M  V30 54 1 29 49
M  V30 END BOND
M  V30 END CTAB
M  END
>  <Dataset>  (120) 
ChEMBL_Kinases

>  <Ligand_Instance>  (120) 
nan

>  <PDB_ID>  (120) 
nan

>  <Standardized_SMILES>  (120) 
NC1(c2ccc(-c3nnc4n3-c3cccnc3Nc3ccccc3-4)cc2)CCC1

>  <Name>  (120) 
nan

>  <Pocket>  (120) 
nan

>  <ATP_Site>  (120) 
nan

>  <Peripheral>  (120) 
nan

>  <Num_H_Atoms_ProtBoundConf>  (120) 
nan

>  <Num_Resolved_Atoms>  (120) 
nan

>  <Num_Not_Resolved_Atoms>  (120) 
nan

$$$$
CHEMBL3684435
     RDKit          3D

  0  0  0  0  0  0  0  0  0  0999 V3000
M  V30 BEGIN CTAB
M  V30 COUNTS 59 64 0 0 0
M  V30 BEGIN ATOM
M  V30 1 C 6.321341 -3.398249 3.718856 0
M  V30 2 C 6.624327 -2.127428 3.003206 0
M  V30 3 C 7.872751 -1.916347 2.456973 0
M  V30 4 C 8.094245 -0.734224 1.813411 0
M  V30 5 C 7.116141 0.223127 1.705429 0
M  V30 6 C 5.855882 0.055285 2.235359 0
M  V30 7 N 4.916590 1.099716 2.073783 0
M  V30 8 C 3.573178 1.169801 2.511793 0
M  V30 9 O 3.092442 0.195749 3.135784 0
M  V30 10 N 2.732974 2.263088 2.295041 0
M  V30 11 C 1.354700 2.389397 2.713018 0
M  V30 12 C 0.511760 1.595788 1.782962 0
M  V30 13 C 0.096842 2.283671 0.655281 0
M  V30 14 C -0.693215 1.752069 -0.334743 0
M  V30 15 C -1.118795 0.417669 -0.209280 0
M  V30 16 C -1.923116 -0.262941 -1.197433 0
M  V30 17 N -1.315804 -0.356774 -2.415073 0
M  V30 18 N -2.104019 -1.043282 -3.258481 0
M  V30 19 C -3.198895 -1.387258 -2.601200 0
M  V30 20 N -3.080004 -0.906514 -1.355138 0
M  V30 21 C -3.975225 -0.996923 -0.269995 0
M  V30 22 C -3.782649 0.042476 0.597531 0
M  V30 23 C -4.549439 0.063494 1.744277 0
M  V30 24 C -5.467506 -0.978587 1.931302 0
M  V30 25 N -5.666729 -2.018519 1.064246 0
M  V30 26 C -4.889776 -2.006476 -0.060770 0
M  V30 27 N -5.251702 -3.110105 -0.924098 0
M  V30 28 C -5.141839 -2.968479 -2.364574 0
M  V30 29 C -6.111781 -3.750049 -2.981949 0
M  V30 30 C -6.182754 -3.737890 -4.355845 0
M  V30 31 C -5.297067 -2.956498 -5.091966 0
M  V30 32 C -4.330521 -2.176592 -4.515044 0
M  V30 33 C -4.272160 -2.199436 -3.153381 0
M  V30 34 C -0.686650 -0.247393 0.932990 0
M  V30 35 C 0.105417 0.287119 1.924843 0
M  V30 36 C 5.671531 -1.145966 2.874620 0
M  V30 37 H 6.769099 -4.286668 3.250759 0
M  V30 38 H 5.214193 -3.547775 3.642920 0
M  V30 39 H 6.526638 -3.306975 4.809849 0
M  V30 40 H 8.663130 -2.649307 2.525029 0
M  V30 41 H 9.060114 -0.539008 1.375194 0
M  V30 42 H 7.371599 1.151789 1.170887 0
M  V30 43 H 5.207530 1.961934 1.566510 0
M  V30 44 H 3.135964 3.095112 1.769285 0
M  V30 45 H 1.314847 1.944464 3.734318 0
M  V30 46 H 1.026021 3.439141 2.700488 0
M  V30 47 H 0.374745 3.326928 0.465015 0
M  V30 48 H -1.007883 2.303607 -1.208868 0
M  V30 49 H -3.166631 0.899266 0.544642 0
M  V30 50 H -4.525052 0.800816 2.528048 0
M  V30 51 H -6.094260 -1.016376 2.811418 0
M  V30 52 H -5.598338 -3.977939 -0.517845 0
M  V30 53 H -6.770942 -4.340044 -2.339648 0
M  V30 54 H -6.923394 -4.333073 -4.856732 0
M  V30 55 H -5.342530 -2.936248 -6.192507 0
M  V30 56 H -3.606641 -1.544518 -5.003365 0
M  V30 57 H -1.012545 -1.291202 1.042777 0
M  V30 58 H 0.428637 -0.221583 2.794812 0
M  V30 59 H 4.724094 -1.359795 3.314826 0
M  V30 END ATOM
M  V30 BEGIN BOND
M  V30 1 1 1 2
M  V30 2 2 2 3
M  V30 3 1 3 4
M  V30 4 2 4 5
M  V30 5 1 5 6
M  V30 6 1 6 7
M  V30 7 1 7 8
M  V30 8 2 8 9
M  V30 9 1 8 10
M  V30 10 1 10 11
M  V30 11 1 11 12
M  V30 12 2 12 13
M  V30 13 1 13 14
M  V30 14 2 14 15
M  V30 15 1 15 16
M  V30 16 2 16 17
M  V30 17 1 17 18
M  V30 18 2 18 19
M  V30 19 1 19 20
M  V30 20 1 20 21
M  V30 21 2 21 22
M  V30 22 1 22 23
M  V30 23 2 23 24
M  V30 24 1 24 25
M  V30 25 2 25 26
M  V30 26 1 26 27
M  V30 27 1 27 28
M  V30 28 2 28 29
M  V30 29 1 29 30
M  V30 30 2 30 31
M  V30 31 1 31 32
M  V30 32 2 32 33
M  V30 33 1 15 34
M  V30 34 2 34 35
M  V30 35 2 6 36
M  V30 36 1 36 2
M  V30 37 1 35 12
M  V30 38 1 20 16
M  V30 39 1 26 21
M  V30 40 1 33 28
M  V30 41 1 33 19
M  V30 42 1 1 37
M  V30 43 1 1 38
M  V30 44 1 1 39
M  V30 45 1 3 40
M  V30 46 1 4 41
M  V30 47 1 5 42
M  V30 48 1 7 43
M  V30 49 1 10 44
M  V30 50 1 11 45
M  V30 51 1 11 46
M  V30 52 1 13 47
M  V30 53 1 14 48
M  V30 54 1 22 49
M  V30 55 1 23 50
M  V30 56 1 24 51
M  V30 57 1 27 52
M  V30 58 1 29 53
M  V30 59 1 30 54
M  V30 60 1 31 55
M  V30 61 1 32 56
M  V30 62 1 34 57
M  V30 63 1 35 58
M  V30 64 1 36 59
M  V30 END BOND
M  V30 END CTAB
M  END
>  <Dataset>  (121) 
ChEMBL_Kinases

>  <Ligand_Instance>  (121) 
nan

>  <PDB_ID>  (121) 
nan

>  <Standardized_SMILES>  (121) 
Cc1cccc(NC(=O)NCc2ccc(-c3nnc4n3-c3cccnc3Nc3ccccc3-4)cc2)c1

>  <Name>  (121) 
nan

>  <Pocket>  (121) 
nan

>  <ATP_Site>  (121) 
nan

>  <Peripheral>  (121) 
nan

>  <Num_H_Atoms_ProtBoundConf>  (121) 
nan

>  <Num_Resolved_Atoms>  (121) 
nan

>  <Num_Not_Resolved_Atoms>  (121) 
nan

$$$$
CHEMBL3684434
     RDKit          3D

  0  0  0  0  0  0  0  0  0  0999 V3000
M  V30 BEGIN CTAB
M  V30 COUNTS 56 61 0 0 0
M  V30 BEGIN ATOM
M  V30 1 O 2.218542 -3.308767 -0.274161 0
M  V30 2 C 3.239060 -3.971524 -0.003523 0
M  V30 3 N 4.291984 -3.565449 0.844533 0
M  V30 4 C 4.253655 -2.270648 1.497157 0
M  V30 5 C 3.023279 -1.515382 1.147845 0
M  V30 6 C 1.919907 -1.693488 1.956877 0
M  V30 7 C 0.802911 -0.971406 1.591993 0
M  V30 8 C 0.686637 -0.092515 0.499555 0
M  V30 9 C -0.556953 0.583701 0.202058 0
M  V30 10 N -1.077617 0.234996 -1.003921 0
M  V30 11 N -2.238456 0.854425 -1.183763 0
M  V30 12 C -2.483170 1.609259 -0.100009 0
M  V30 13 N -1.443204 1.430323 0.728319 0
M  V30 14 C -1.206736 1.998524 1.997420 0
M  V30 15 C 0.136364 2.028080 2.253524 0
M  V30 16 C 0.528903 2.508335 3.485889 0
M  V30 17 C -0.471496 2.927686 4.371746 0
M  V30 18 N -1.811531 2.896559 4.101521 0
M  V30 19 C -2.159457 2.421453 2.887690 0
M  V30 20 N -3.593726 2.517194 2.709798 0
M  V30 21 C -4.156499 2.751460 1.393651 0
M  V30 22 C -5.350638 3.470547 1.511994 0
M  V30 23 C -6.003668 3.789208 0.338543 0
M  V30 24 C -5.510272 3.420359 -0.899938 0
M  V30 25 C -4.337253 2.711227 -1.049433 0
M  V30 26 C -3.692024 2.396324 0.119792 0
M  V30 27 C 1.863941 0.021547 -0.264063 0
M  V30 28 C 3.011196 -0.675990 0.052854 0
M  V30 29 N 3.271491 -5.231292 -0.641415 0
M  V30 30 C 2.119626 -5.489076 -1.471844 0
M  V30 31 C 0.974932 -6.098660 -0.985020 0
M  V30 32 C -0.075952 -6.301499 -1.862785 0
M  V30 33 C 0.027989 -5.903295 -3.179943 0
M  V30 34 F -1.013866 -6.114542 -4.012475 0
M  V30 35 C 1.175825 -5.291906 -3.668593 0
M  V30 36 C 2.235322 -5.086603 -2.786608 0
M  V30 37 H 5.132289 -4.150365 1.046917 0
M  V30 38 H 5.128305 -1.671729 1.141038 0
M  V30 39 H 4.303871 -2.345957 2.592802 0
M  V30 40 H 1.851575 -2.330103 2.827732 0
M  V30 41 H -0.102025 -1.079723 2.205972 0
M  V30 42 H 0.980176 1.789266 1.661888 0
M  V30 43 H 1.531301 2.608551 3.873410 0
M  V30 44 H -0.233163 3.309929 5.347543 0
M  V30 45 H -4.216205 2.436069 3.514367 0
M  V30 46 H -5.674174 3.719992 2.494764 0
M  V30 47 H -6.929167 4.345266 0.408256 0
M  V30 48 H -6.028549 3.673539 -1.835621 0
M  V30 49 H -3.866673 2.375176 -1.956254 0
M  V30 50 H 1.770401 0.698709 -1.103756 0
M  V30 51 H 3.890578 -0.553134 -0.566906 0
M  V30 52 H 4.093156 -5.888165 -0.487840 0
M  V30 53 H 0.999643 -6.368987 0.057007 0
M  V30 54 H -0.948079 -6.772537 -1.467347 0
M  V30 55 H 1.237036 -4.983005 -4.720499 0
M  V30 56 H 3.104161 -4.607822 -3.215890 0
M  V30 END ATOM
M  V30 BEGIN BOND
M  V30 1 2 1 2
M  V30 2 1 2 3
M  V30 3 1 3 4
M  V30 4 1 4 5
M  V30 5 2 5 6
M  V30 6 1 6 7
M  V30 7 2 7 8
M  V30 8 1 8 9
M  V30 9 2 9 10
M  V30 10 1 10 11
M  V30 11 2 11 12
M  V30 12 1 12 13
M  V30 13 1 13 14
M  V30 14 2 14 15
M  V30 15 1 15 16
M  V30 16 2 16 17
M  V30 17 1 17 18
M  V30 18 2 18 19
M  V30 19 1 19 20
M  V30 20 1 20 21
M  V30 21 2 21 22
M  V30 22 1 22 23
M  V30 23 2 23 24
M  V30 24 1 24 25
M  V30 25 2 25 26
M  V30 26 1 8 27
M  V30 27 2 27 28
M  V30 28 1 2 29
M  V30 29 1 29 30
M  V30 30 2 30 31
M  V30 31 1 31 32
M  V30 32 2 32 33
M  V30 33 1 33 34
M  V30 34 1 33 35
M  V30 35 2 35 36
M  V30 36 1 28 5
M  V30 37 1 36 30
M  V30 38 1 13 9
M  V30 39 1 19 14
M  V30 40 1 26 21
M  V30 41 1 26 12
M  V30 42 1 3 37
M  V30 43 1 4 38
M  V30 44 1 4 39
M  V30 45 1 6 40
M  V30 46 1 7 41
M  V30 47 1 15 42
M  V30 48 1 16 43
M  V30 49 1 17 44
M  V30 50 1 20 45
M  V30 51 1 22 46
M  V30 52 1 23 47
M  V30 53 1 24 48
M  V30 54 1 25 49
M  V30 55 1 27 50
M  V30 56 1 28 51
M  V30 57 1 29 52
M  V30 58 1 31 53
M  V30 59 1 32 54
M  V30 60 1 35 55
M  V30 61 1 36 56
M  V30 END BOND
M  V30 END CTAB
M  END
>  <Dataset>  (122) 
ChEMBL_Kinases

>  <Ligand_Instance>  (122) 
nan

>  <PDB_ID>  (122) 
nan

>  <Standardized_SMILES>  (122) 
O=C(NCc1ccc(-c2nnc3n2-c2cccnc2Nc2ccccc2-3)cc1)Nc1ccc(F)cc1

>  <Name>  (122) 
nan

>  <Pocket>  (122) 
nan

>  <ATP_Site>  (122) 
nan

>  <Peripheral>  (122) 
nan

>  <Num_H_Atoms_ProtBoundConf>  (122) 
nan

>  <Num_Resolved_Atoms>  (122) 
nan

>  <Num_Not_Resolved_Atoms>  (122) 
nan

$$$$
CHEMBL3684433
     RDKit          3D

  0  0  0  0  0  0  0  0  0  0999 V3000
M  V30 BEGIN CTAB
M  V30 COUNTS 60 65 0 0 0
M  V30 BEGIN ATOM
M  V30 1 C 6.387523 -4.607933 1.352328 0
M  V30 2 O 5.910696 -3.329731 1.032372 0
M  V30 3 C 6.057294 -2.259015 1.903236 0
M  V30 4 C 6.649142 -2.246083 3.144414 0
M  V30 5 C 6.713255 -1.088920 3.888902 0
M  V30 6 C 6.201125 0.100606 3.448832 0
M  V30 7 C 5.603321 0.109870 2.206907 0
M  V30 8 N 5.050225 1.346738 1.705836 0
M  V30 9 C 3.689654 1.491317 2.089074 0
M  V30 10 O 3.262726 0.545190 2.761887 0
M  V30 11 N 2.899087 2.592679 1.744825 0
M  V30 12 C 1.502889 2.791939 2.109373 0
M  V30 13 C 0.582525 1.964626 1.291868 0
M  V30 14 C 0.136299 2.553471 0.127261 0
M  V30 15 C -0.721880 1.846197 -0.680611 0
M  V30 16 C -1.174178 0.547630 -0.385756 0
M  V30 17 C -2.052230 -0.213861 -1.247082 0
M  V30 18 N -1.533612 -0.460218 -2.488136 0
M  V30 19 N -2.376219 -1.203735 -3.196397 0
M  V30 20 C -3.433951 -1.445940 -2.438754 0
M  V30 21 N -3.230720 -0.839155 -1.259606 0
M  V30 22 C -4.056128 -0.792241 -0.125905 0
M  V30 23 C -3.788632 0.331318 0.611558 0
M  V30 24 C -4.484891 0.493856 1.791731 0
M  V30 25 C -5.408633 -0.494189 2.143676 0
M  V30 26 N -5.682060 -1.613871 1.410370 0
M  V30 27 C -4.979830 -1.738720 0.259103 0
M  V30 28 N -5.413694 -2.919465 -0.461953 0
M  V30 29 C -5.396340 -2.942224 -1.913909 0
M  V30 30 C -6.429919 -3.766758 -2.375319 0
M  V30 31 C -6.568454 -3.887181 -3.741696 0
M  V30 32 C -5.724777 -3.223710 -4.609072 0
M  V30 33 C -4.705830 -2.412061 -4.191024 0
M  V30 34 C -4.559962 -2.286508 -2.830588 0
M  V30 35 C -0.667069 0.026986 0.822000 0
M  V30 36 C 0.194692 0.696315 1.665035 0
M  V30 37 C 5.537396 -1.059681 1.452022 0
M  V30 38 H 5.875441 -5.416636 0.799740 0
M  V30 39 H 7.462825 -4.627041 1.051855 0
M  V30 40 H 6.340671 -4.821029 2.434629 0
M  V30 41 H 7.046244 -3.207622 3.465276 0
M  V30 42 H 7.183277 -1.116073 4.854748 0
M  V30 43 H 6.245923 1.013899 4.024669 0
M  V30 44 H 5.517887 2.103793 1.124403 0
M  V30 45 H 3.366803 3.342344 1.168013 0
M  V30 46 H 1.204447 3.842405 2.042394 0
M  V30 47 H 1.402766 2.448853 3.178239 0
M  V30 48 H 0.384086 3.537646 -0.246447 0
M  V30 49 H -1.122650 2.228526 -1.612847 0
M  V30 50 H -3.158186 1.161871 0.430563 0
M  V30 51 H -4.414268 1.313686 2.515646 0
M  V30 52 H -5.981595 -0.422504 3.056970 0
M  V30 53 H -5.747912 -3.732370 0.054001 0
M  V30 54 H -7.045926 -4.253413 -1.636373 0
M  V30 55 H -7.359734 -4.518712 -4.118185 0
M  V30 56 H -5.832486 -3.316681 -5.699999 0
M  V30 57 H -3.995784 -1.853547 -4.778313 0
M  V30 58 H -0.988949 -0.976265 1.092757 0
M  V30 59 H 0.542953 0.253336 2.563307 0
M  V30 60 H 5.042001 -0.936971 0.483024 0
M  V30 END ATOM
M  V30 BEGIN BOND
M  V30 1 1 1 2
M  V30 2 1 2 3
M  V30 3 2 3 4
M  V30 4 1 4 5
M  V30 5 2 5 6
M  V30 6 1 6 7
M  V30 7 1 7 8
M  V30 8 1 8 9
M  V30 9 2 9 10
M  V30 10 1 9 11
M  V30 11 1 11 12
M  V30 12 1 12 13
M  V30 13 2 13 14
M  V30 14 1 14 15
M  V30 15 2 15 16
M  V30 16 1 16 17
M  V30 17 2 17 18
M  V30 18 1 18 19
M  V30 19 2 19 20
M  V30 20 1 20 21
M  V30 21 1 21 22
M  V30 22 2 22 23
M  V30 23 1 23 24
M  V30 24 2 24 25
M  V30 25 1 25 26
M  V30 26 2 26 27
M  V30 27 1 27 28
M  V30 28 1 28 29
M  V30 29 2 29 30
M  V30 30 1 30 31
M  V30 31 2 31 32
M  V30 32 1 32 33
M  V30 33 2 33 34
M  V30 34 1 16 35
M  V30 35 2 35 36
M  V30 36 2 7 37
M  V30 37 1 37 3
M  V30 38 1 36 13
M  V30 39 1 21 17
M  V30 40 1 27 22
M  V30 41 1 34 29
M  V30 42 1 34 20
M  V30 43 1 1 38
M  V30 44 1 1 39
M  V30 45 1 1 40
M  V30 46 1 4 41
M  V30 47 1 5 42
M  V30 48 1 6 43
M  V30 49 1 8 44
M  V30 50 1 11 45
M  V30 51 1 12 46
M  V30 52 1 12 47
M  V30 53 1 14 48
M  V30 54 1 15 49
M  V30 55 1 23 50
M  V30 56 1 24 51
M  V30 57 1 25 52
M  V30 58 1 28 53
M  V30 59 1 30 54
M  V30 60 1 31 55
M  V30 61 1 32 56
M  V30 62 1 33 57
M  V30 63 1 35 58
M  V30 64 1 36 59
M  V30 65 1 37 60
M  V30 END BOND
M  V30 END CTAB
M  END
>  <Dataset>  (123) 
ChEMBL_Kinases

>  <Ligand_Instance>  (123) 
nan

>  <PDB_ID>  (123) 
nan

>  <Standardized_SMILES>  (123) 
COc1cccc(NC(=O)NCc2ccc(-c3nnc4n3-c3cccnc3Nc3ccccc3-4)cc2)c1

>  <Name>  (123) 
nan

>  <Pocket>  (123) 
nan

>  <ATP_Site>  (123) 
nan

>  <Peripheral>  (123) 
nan

>  <Num_H_Atoms_ProtBoundConf>  (123) 
nan

>  <Num_Resolved_Atoms>  (123) 
nan

>  <Num_Not_Resolved_Atoms>  (123) 
nan

$$$$
CHEMBL3684432
     RDKit          3D

  0  0  0  0  0  0  0  0  0  0999 V3000
M  V30 BEGIN CTAB
M  V30 COUNTS 56 61 0 0 0
M  V30 BEGIN ATOM
M  V30 1 O 2.243768 -3.309959 -0.103039 0
M  V30 2 C 3.236380 -3.985884 0.212781 0
M  V30 3 N 4.257460 -3.539045 1.110168 0
M  V30 4 C 4.195180 -2.229817 1.725354 0
M  V30 5 C 2.977743 -1.481192 1.297897 0
M  V30 6 C 1.842195 -1.640916 2.064573 0
M  V30 7 C 0.744510 -0.929644 1.629943 0
M  V30 8 C 0.671387 -0.080104 0.511519 0
M  V30 9 C -0.558641 0.585028 0.144619 0
M  V30 10 N -1.021894 0.198034 -1.073017 0
M  V30 11 N -2.185066 0.816075 -1.320177 0
M  V30 12 C -2.470640 1.595581 -0.270725 0
M  V30 13 N -1.468089 1.443636 0.607390 0
M  V30 14 C -1.287894 2.044984 1.864800 0
M  V30 15 C 0.042912 2.086658 2.182041 0
M  V30 16 C 0.382686 2.601934 3.416613 0
M  V30 17 C -0.660733 3.042194 4.242661 0
M  V30 18 N -1.986346 3.002332 3.920368 0
M  V30 19 C -2.279153 2.491889 2.704519 0
M  V30 20 N -3.704327 2.578387 2.461080 0
M  V30 21 C -4.209109 2.775144 1.115062 0
M  V30 22 C -5.408122 3.495728 1.163006 0
M  V30 23 C -6.015368 3.784965 -0.040352 0
M  V30 24 C -5.462928 3.379725 -1.248582 0
M  V30 25 C -4.285584 2.669398 -1.328182 0
M  V30 26 C -3.688033 2.385245 -0.126212 0
M  V30 27 C 1.880495 0.014903 -0.202938 0
M  V30 28 C 3.013003 -0.671673 0.181308 0
M  V30 29 N 3.338775 -5.279538 -0.368140 0
M  V30 30 C 2.229863 -5.560548 -1.240328 0
M  V30 31 C 1.075088 -6.150336 -0.797945 0
M  V30 32 C 0.021430 -6.411139 -1.654872 0
M  V30 33 C 0.208326 -6.041984 -2.970490 0
M  V30 34 C 1.349001 -5.452522 -3.438722 0
M  V30 35 F 1.516559 -5.094362 -4.741854 0
M  V30 36 C 2.396203 -5.198021 -2.565666 0
M  V30 37 H 5.090917 -4.109754 1.373760 0
M  V30 38 H 5.065325 -1.643878 1.354277 0
M  V30 39 H 4.212323 -2.242469 2.818846 0
M  V30 40 H 1.735347 -2.252446 2.946869 0
M  V30 41 H -0.195877 -1.011015 2.195710 0
M  V30 42 H 0.912590 1.833511 1.634378 0
M  V30 43 H 1.379149 2.721822 3.861235 0
M  V30 44 H -0.462008 3.452870 5.219478 0
M  V30 45 H -4.361824 2.516955 3.240795 0
M  V30 46 H -5.777258 3.774011 2.135325 0
M  V30 47 H -6.942931 4.341208 -0.023895 0
M  V30 48 H -5.945935 3.610460 -2.203615 0
M  V30 49 H -3.780396 2.312471 -2.199699 0
M  V30 50 H 1.875405 0.659778 -1.076397 0
M  V30 51 H 3.916728 -0.565299 -0.400700 0
M  V30 52 H 4.157552 -5.891864 -0.135087 0
M  V30 53 H 0.998367 -6.414885 0.255778 0
M  V30 54 H -0.895741 -6.874524 -1.326477 0
M  V30 55 H -0.588326 -6.229100 -3.664163 0
M  V30 56 H 3.299061 -4.728870 -2.948033 0
M  V30 END ATOM
M  V30 BEGIN BOND
M  V30 1 2 1 2
M  V30 2 1 2 3
M  V30 3 1 3 4
M  V30 4 1 4 5
M  V30 5 2 5 6
M  V30 6 1 6 7
M  V30 7 2 7 8
M  V30 8 1 8 9
M  V30 9 2 9 10
M  V30 10 1 10 11
M  V30 11 2 11 12
M  V30 12 1 12 13
M  V30 13 1 13 14
M  V30 14 2 14 15
M  V30 15 1 15 16
M  V30 16 2 16 17
M  V30 17 1 17 18
M  V30 18 2 18 19
M  V30 19 1 19 20
M  V30 20 1 20 21
M  V30 21 2 21 22
M  V30 22 1 22 23
M  V30 23 2 23 24
M  V30 24 1 24 25
M  V30 25 2 25 26
M  V30 26 1 8 27
M  V30 27 2 27 28
M  V30 28 1 2 29
M  V30 29 1 29 30
M  V30 30 2 30 31
M  V30 31 1 31 32
M  V30 32 2 32 33
M  V30 33 1 33 34
M  V30 34 1 34 35
M  V30 35 2 34 36
M  V30 36 1 28 5
M  V30 37 1 36 30
M  V30 38 1 13 9
M  V30 39 1 19 14
M  V30 40 1 26 21
M  V30 41 1 26 12
M  V30 42 1 3 37
M  V30 43 1 4 38
M  V30 44 1 4 39
M  V30 45 1 6 40
M  V30 46 1 7 41
M  V30 47 1 15 42
M  V30 48 1 16 43
M  V30 49 1 17 44
M  V30 50 1 20 45
M  V30 51 1 22 46
M  V30 52 1 23 47
M  V30 53 1 24 48
M  V30 54 1 25 49
M  V30 55 1 27 50
M  V30 56 1 28 51
M  V30 57 1 29 52
M  V30 58 1 31 53
M  V30 59 1 32 54
M  V30 60 1 33 55
M  V30 61 1 36 56
M  V30 END BOND
M  V30 END CTAB
M  END
>  <Dataset>  (124) 
ChEMBL_Kinases

>  <Ligand_Instance>  (124) 
nan

>  <PDB_ID>  (124) 
nan

>  <Standardized_SMILES>  (124) 
O=C(NCc1ccc(-c2nnc3n2-c2cccnc2Nc2ccccc2-3)cc1)Nc1cccc(F)c1

>  <Name>  (124) 
nan

>  <Pocket>  (124) 
nan

>  <ATP_Site>  (124) 
nan

>  <Peripheral>  (124) 
nan

>  <Num_H_Atoms_ProtBoundConf>  (124) 
nan

>  <Num_Resolved_Atoms>  (124) 
nan

>  <Num_Not_Resolved_Atoms>  (124) 
nan

$$$$
CHEMBL3684431
     RDKit          3D

  0  0  0  0  0  0  0  0  0  0999 V3000
M  V30 BEGIN CTAB
M  V30 COUNTS 56 61 0 0 0
M  V30 BEGIN ATOM
M  V30 1 O 2.258752 -3.247483 -0.085899 0
M  V30 2 C 3.282992 -3.871677 0.218441 0
M  V30 3 N 4.329707 -3.369122 1.038661 0
M  V30 4 C 4.256635 -2.038922 1.591031 0
M  V30 5 C 3.002066 -1.337813 1.190619 0
M  V30 6 C 1.908705 -1.487809 2.018098 0
M  V30 7 C 0.774218 -0.821348 1.605928 0
M  V30 8 C 0.628956 -0.026270 0.456058 0
M  V30 9 C -0.630610 0.595230 0.117566 0
M  V30 10 N -1.156359 0.153398 -1.063881 0
M  V30 11 N -2.332564 0.726138 -1.288927 0
M  V30 12 C -2.584614 1.545016 -0.258542 0
M  V30 13 N -1.541302 1.453825 0.579577 0
M  V30 14 C -1.320323 2.116219 1.802313 0
M  V30 15 C 0.023014 2.200516 2.053352 0
M  V30 16 C 0.400149 2.778545 3.248818 0
M  V30 17 C -0.620472 3.229006 4.096428 0
M  V30 18 N -1.953884 3.150869 3.849394 0
M  V30 19 C -2.281509 2.578206 2.667630 0
M  V30 20 N -3.717104 2.618597 2.476662 0
M  V30 21 C -4.288066 2.745609 1.150138 0
M  V30 22 C -5.500372 3.441128 1.226626 0
M  V30 23 C -6.163945 3.661651 0.039278 0
M  V30 24 C -5.666047 3.222623 -1.168536 0
M  V30 25 C -4.476012 2.534863 -1.276320 0
M  V30 26 C -3.812493 2.312902 -0.095123 0
M  V30 27 C 1.800150 0.062677 -0.319528 0
M  V30 28 C 2.966383 -0.580047 0.038679 0
M  V30 29 N 3.410272 -5.183785 -0.294959 0
M  V30 30 C 2.326110 -5.624013 -1.108710 0
M  V30 31 C 1.213627 -6.275463 -0.619108 0
M  V30 32 C 0.214931 -6.663051 -1.487792 0
M  V30 33 C 0.335854 -6.398330 -2.827198 0
M  V30 34 C 1.440868 -5.750520 -3.318376 0
M  V30 35 C 2.450138 -5.355850 -2.460251 0
M  V30 36 F 3.498932 -4.723834 -3.040316 0
M  V30 37 H 5.192873 -3.901625 1.292223 0
M  V30 38 H 4.325378 -2.002986 2.684766 0
M  V30 39 H 5.103138 -1.446955 1.185912 0
M  V30 40 H 1.859855 -2.061661 2.931748 0
M  V30 41 H -0.124681 -0.904574 2.224252 0
M  V30 42 H 0.873154 1.942510 1.477793 0
M  V30 43 H 1.409428 2.929190 3.618594 0
M  V30 44 H -0.373954 3.689618 5.050363 0
M  V30 45 H -4.344257 2.572709 3.294327 0
M  V30 46 H -5.831022 3.751646 2.194759 0
M  V30 47 H -7.104127 4.197014 0.067150 0
M  V30 48 H -6.188751 3.394718 -2.120329 0
M  V30 49 H -3.994878 2.147120 -2.159328 0
M  V30 50 H 1.691390 0.680284 -1.215048 0
M  V30 51 H 3.836297 -0.478098 -0.592831 0
M  V30 52 H 4.227323 -5.791759 -0.101291 0
M  V30 53 H 1.159132 -6.464119 0.444584 0
M  V30 54 H -0.626023 -7.169112 -1.027437 0
M  V30 55 H -0.449363 -6.706625 -3.486546 0
M  V30 56 H 1.505808 -5.554842 -4.392650 0
M  V30 END ATOM
M  V30 BEGIN BOND
M  V30 1 2 1 2
M  V30 2 1 2 3
M  V30 3 1 3 4
M  V30 4 1 4 5
M  V30 5 2 5 6
M  V30 6 1 6 7
M  V30 7 2 7 8
M  V30 8 1 8 9
M  V30 9 2 9 10
M  V30 10 1 10 11
M  V30 11 2 11 12
M  V30 12 1 12 13
M  V30 13 1 13 14
M  V30 14 2 14 15
M  V30 15 1 15 16
M  V30 16 2 16 17
M  V30 17 1 17 18
M  V30 18 2 18 19
M  V30 19 1 19 20
M  V30 20 1 20 21
M  V30 21 2 21 22
M  V30 22 1 22 23
M  V30 23 2 23 24
M  V30 24 1 24 25
M  V30 25 2 25 26
M  V30 26 1 8 27
M  V30 27 2 27 28
M  V30 28 1 2 29
M  V30 29 1 29 30
M  V30 30 2 30 31
M  V30 31 1 31 32
M  V30 32 2 32 33
M  V30 33 1 33 34
M  V30 34 2 34 35
M  V30 35 1 35 36
M  V30 36 1 28 5
M  V30 37 1 35 30
M  V30 38 1 13 9
M  V30 39 1 19 14
M  V30 40 1 26 21
M  V30 41 1 26 12
M  V30 42 1 3 37
M  V30 43 1 4 38
M  V30 44 1 4 39
M  V30 45 1 6 40
M  V30 46 1 7 41
M  V30 47 1 15 42
M  V30 48 1 16 43
M  V30 49 1 17 44
M  V30 50 1 20 45
M  V30 51 1 22 46
M  V30 52 1 23 47
M  V30 53 1 24 48
M  V30 54 1 25 49
M  V30 55 1 27 50
M  V30 56 1 28 51
M  V30 57 1 29 52
M  V30 58 1 31 53
M  V30 59 1 32 54
M  V30 60 1 33 55
M  V30 61 1 34 56
M  V30 END BOND
M  V30 END CTAB
M  END
>  <Dataset>  (125) 
ChEMBL_Kinases

>  <Ligand_Instance>  (125) 
nan

>  <PDB_ID>  (125) 
nan

>  <Standardized_SMILES>  (125) 
O=C(NCc1ccc(-c2nnc3n2-c2cccnc2Nc2ccccc2-3)cc1)Nc1ccccc1F

>  <Name>  (125) 
nan

>  <Pocket>  (125) 
nan

>  <ATP_Site>  (125) 
nan

>  <Peripheral>  (125) 
nan

>  <Num_H_Atoms_ProtBoundConf>  (125) 
nan

>  <Num_Resolved_Atoms>  (125) 
nan

>  <Num_Not_Resolved_Atoms>  (125) 
nan

$$$$
CHEMBL3684430
     RDKit          3D

  0  0  0  0  0  0  0  0  0  0999 V3000
M  V30 BEGIN CTAB
M  V30 COUNTS 62 67 0 0 0
M  V30 BEGIN ATOM
M  V30 1 C -4.231708 -5.156130 6.665427 0
M  V30 2 C -3.219833 -5.141217 5.580185 0
M  V30 3 O -3.491222 -5.842667 4.576816 0
M  V30 4 N -2.013200 -4.406589 5.616250 0
M  V30 5 C -0.990915 -4.322868 4.645935 0
M  V30 6 C -0.945984 -4.948613 3.425338 0
M  V30 7 C 0.075718 -4.837913 2.507457 0
M  V30 8 C 1.152503 -4.036588 2.821453 0
M  V30 9 S 2.503853 -3.821286 1.733740 0
M  V30 10 O 2.813423 -5.083133 0.985438 0
M  V30 11 O 3.708639 -3.488280 2.568444 0
M  V30 12 N 2.252722 -2.480391 0.678638 0
M  V30 13 C 1.092342 -2.636110 -0.177080 0
M  V30 14 C 1.037557 -1.387562 -1.012055 0
M  V30 15 C 1.690399 -1.366272 -2.205970 0
M  V30 16 C 1.657436 -0.234472 -2.993216 0
M  V30 17 C 0.960510 0.921942 -2.600781 0
M  V30 18 C 0.906123 2.154030 -3.352194 0
M  V30 19 N 2.135096 2.715221 -3.526533 0
M  V30 20 N 1.997389 3.876548 -4.186937 0
M  V30 21 C 0.693300 4.067249 -4.438398 0
M  V30 22 N 0.055434 3.006054 -3.924185 0
M  V30 23 C -1.323096 2.712320 -3.922008 0
M  V30 24 C -1.523887 1.362384 -3.830346 0
M  V30 25 C -2.831811 0.928530 -3.761799 0
M  V30 26 C -3.839614 1.901454 -3.794240 0
M  V30 27 N -3.651792 3.233638 -3.888425 0
M  V30 28 C -2.351884 3.628700 -3.954334 0
M  V30 29 N -2.279160 5.063700 -4.130013 0
M  V30 30 C -1.196575 5.660051 -4.889848 0
M  V30 31 C -1.639859 6.826327 -5.512335 0
M  V30 32 C -0.730289 7.508670 -6.292165 0
M  V30 33 C 0.573461 7.057819 -6.454061 0
M  V30 34 C 1.038272 5.914119 -5.853497 0
M  V30 35 C 0.128184 5.246306 -5.082569 0
M  V30 36 C 0.329041 0.776550 -1.352475 0
M  V30 37 C 0.332180 -0.328137 -0.531769 0
M  V30 38 C 1.141405 -3.392001 4.040130 0
M  V30 39 C 0.096271 -3.533464 4.926268 0
M  V30 40 H -3.869293 -5.784638 7.525399 0
M  V30 41 H -5.230140 -5.416756 6.313756 0
M  V30 42 H -4.322113 -4.122831 7.108873 0
M  V30 43 H -1.932041 -3.877312 6.510112 0
M  V30 44 H -1.764427 -5.585168 3.135229 0
M  V30 45 H 0.037388 -5.364228 1.564484 0
M  V30 46 H 3.091931 -2.238560 0.147966 0
M  V30 47 H 0.162467 -2.685464 0.425183 0
M  V30 48 H 1.184170 -3.537282 -0.814586 0
M  V30 49 H 2.264001 -2.195301 -2.621092 0
M  V30 50 H 2.168143 -0.184525 -3.951925 0
M  V30 51 H -0.853286 0.545186 -3.845257 0
M  V30 52 H -3.168888 -0.108247 -3.683824 0
M  V30 53 H -4.883202 1.605154 -3.740696 0
M  V30 54 H -3.004796 5.672077 -3.730344 0
M  V30 55 H -2.660111 7.118993 -5.342358 0
M  V30 56 H -1.051190 8.416192 -6.785207 0
M  V30 57 H 1.295113 7.604398 -7.076902 0
M  V30 58 H 2.024516 5.483337 -5.915012 0
M  V30 59 H -0.215641 1.679144 -1.044951 0
M  V30 60 H -0.199077 -0.280755 0.391583 0
M  V30 61 H 1.960563 -2.757669 4.325381 0
M  V30 62 H 0.144188 -3.001846 5.868428 0
M  V30 END ATOM
M  V30 BEGIN BOND
M  V30 1 1 1 2
M  V30 2 2 2 3
M  V30 3 1 2 4
M  V30 4 1 4 5
M  V30 5 2 5 6
M  V30 6 1 6 7
M  V30 7 2 7 8
M  V30 8 1 8 9
M  V30 9 2 9 10
M  V30 10 2 9 11
M  V30 11 1 9 12
M  V30 12 1 12 13
M  V30 13 1 13 14
M  V30 14 2 14 15
M  V30 15 1 15 16
M  V30 16 2 16 17
M  V30 17 1 17 18
M  V30 18 2 18 19
M  V30 19 1 19 20
M  V30 20 2 20 21
M  V30 21 1 21 22
M  V30 22 1 22 23
M  V30 23 2 23 24
M  V30 24 1 24 25
M  V30 25 2 25 26
M  V30 26 1 26 27
M  V30 27 2 27 28
M  V30 28 1 28 29
M  V30 29 1 29 30
M  V30 30 2 30 31
M  V30 31 1 31 32
M  V30 32 2 32 33
M  V30 33 1 33 34
M  V30 34 2 34 35
M  V30 35 1 17 36
M  V30 36 2 36 37
M  V30 37 1 8 38
M  V30 38 2 38 39
M  V30 39 1 39 5
M  V30 40 1 37 14
M  V30 41 1 22 18
M  V30 42 1 28 23
M  V30 43 1 35 30
M  V30 44 1 35 21
M  V30 45 1 1 40
M  V30 46 1 1 41
M  V30 47 1 1 42
M  V30 48 1 4 43
M  V30 49 1 6 44
M  V30 50 1 7 45
M  V30 51 1 12 46
M  V30 52 1 13 47
M  V30 53 1 13 48
M  V30 54 1 15 49
M  V30 55 1 16 50
M  V30 56 1 24 51
M  V30 57 1 25 52
M  V30 58 1 26 53
M  V30 59 1 29 54
M  V30 60 1 31 55
M  V30 61 1 32 56
M  V30 62 1 33 57
M  V30 63 1 34 58
M  V30 64 1 36 59
M  V30 65 1 37 60
M  V30 66 1 38 61
M  V30 67 1 39 62
M  V30 END BOND
M  V30 END CTAB
M  END
>  <Dataset>  (126) 
ChEMBL_Kinases

>  <Ligand_Instance>  (126) 
nan

>  <PDB_ID>  (126) 
nan

>  <Standardized_SMILES>  (126) 
CC(=O)Nc1ccc(S(=O)(=O)NCc2ccc(-c3nnc4n3-c3cccnc3Nc3ccccc3-4)cc2)cc1

>  <Name>  (126) 
nan

>  <Pocket>  (126) 
nan

>  <ATP_Site>  (126) 
nan

>  <Peripheral>  (126) 
nan

>  <Num_H_Atoms_ProtBoundConf>  (126) 
nan

>  <Num_Resolved_Atoms>  (126) 
nan

>  <Num_Not_Resolved_Atoms>  (126) 
nan

$$$$
CHEMBL3684429
     RDKit          3D

  0  0  0  0  0  0  0  0  0  0999 V3000
M  V30 BEGIN CTAB
M  V30 COUNTS 55 60 0 0 0
M  V30 BEGIN ATOM
M  V30 1 O -7.008062 -0.632387 -0.571778 0
M  V30 2 S -6.075103 -1.740176 -0.134752 0
M  V30 3 O -6.495509 -2.171520 1.238153 0
M  V30 4 N -4.498717 -1.070237 -0.068163 0
M  V30 5 C -3.487512 -2.006896 0.340073 0
M  V30 6 C -2.132856 -1.368918 0.380793 0
M  V30 7 C -1.339001 -1.384848 -0.745010 0
M  V30 8 C -0.107021 -0.776172 -0.624331 0
M  V30 9 C 0.387359 -0.157558 0.528037 0
M  V30 10 C 1.671960 0.443995 0.666799 0
M  V30 11 N 2.437941 -0.165997 1.614380 0
M  V30 12 N 3.649103 0.414203 1.663728 0
M  V30 13 C 3.664125 1.389913 0.755562 0
M  V30 14 N 2.460201 1.397373 0.163336 0
M  V30 15 C 1.971471 2.232346 -0.853441 0
M  V30 16 C 0.606996 2.311290 -0.790603 0
M  V30 17 C -0.033450 3.054828 -1.760632 0
M  V30 18 C 0.769006 3.670872 -2.730469 0
M  V30 19 N 2.132788 3.598913 -2.796125 0
M  V30 20 C 2.716239 2.863692 -1.830428 0
M  V30 21 N 4.160565 2.924274 -1.958415 0
M  V30 22 C 5.010709 2.857799 -0.782104 0
M  V30 23 C 6.169849 3.595038 -1.007707 0
M  V30 24 C 7.087948 3.655550 0.020508 0
M  V30 25 C 6.872745 3.006884 1.242302 0
M  V30 26 C 5.724947 2.273247 1.472037 0
M  V30 27 C 4.830999 2.220813 0.454263 0
M  V30 28 C -0.523285 -0.213590 1.600484 0
M  V30 29 C -1.772100 -0.795514 1.581517 0
M  V30 30 C -6.207936 -3.047627 -1.290594 0
M  V30 31 C -5.980358 -4.388101 -0.987315 0
M  V30 32 C -6.125674 -5.300502 -2.008952 0
M  V30 33 C -6.472380 -5.018691 -3.295163 0
M  V30 34 Cl -6.637496 -6.219974 -4.533121 0
M  V30 35 C -6.697326 -3.685828 -3.591193 0
M  V30 36 C -6.565405 -2.730926 -2.604502 0
M  V30 37 H -4.252368 -0.766382 -1.048469 0
M  V30 38 H -3.432310 -2.804606 -0.429438 0
M  V30 39 H -3.720332 -2.505788 1.302542 0
M  V30 40 H -1.634385 -1.838191 -1.680475 0
M  V30 41 H 0.570275 -0.756322 -1.486200 0
M  V30 42 H -0.093484 1.935990 -0.091752 0
M  V30 43 H -1.102117 3.226200 -1.869474 0
M  V30 44 H 0.322548 4.266305 -3.519523 0
M  V30 45 H 4.580619 3.030458 -2.881783 0
M  V30 46 H 6.282793 4.069582 -1.965097 0
M  V30 47 H 7.998299 4.221424 -0.126147 0
M  V30 48 H 7.596879 3.055846 2.051847 0
M  V30 49 H 5.464185 1.739677 2.369103 0
M  V30 50 H -0.195554 0.249329 2.520204 0
M  V30 51 H -2.375985 -0.774257 2.465143 0
M  V30 52 H -5.708780 -4.607938 0.020668 0
M  V30 53 H -5.938332 -6.333636 -1.726646 0
M  V30 54 H -6.977679 -3.385556 -4.597304 0
M  V30 55 H -6.750893 -1.688827 -2.875331 0
M  V30 END ATOM
M  V30 BEGIN BOND
M  V30 1 2 1 2
M  V30 2 2 2 3
M  V30 3 1 2 4
M  V30 4 1 4 5
M  V30 5 1 5 6
M  V30 6 2 6 7
M  V30 7 1 7 8
M  V30 8 2 8 9
M  V30 9 1 9 10
M  V30 10 2 10 11
M  V30 11 1 11 12
M  V30 12 2 12 13
M  V30 13 1 13 14
M  V30 14 1 14 15
M  V30 15 2 15 16
M  V30 16 1 16 17
M  V30 17 2 17 18
M  V30 18 1 18 19
M  V30 19 2 19 20
M  V30 20 1 20 21
M  V30 21 1 21 22
M  V30 22 2 22 23
M  V30 23 1 23 24
M  V30 24 2 24 25
M  V30 25 1 25 26
M  V30 26 2 26 27
M  V30 27 1 9 28
M  V30 28 2 28 29
M  V30 29 1 2 30
M  V30 30 2 30 31
M  V30 31 1 31 32
M  V30 32 2 32 33
M  V30 33 1 33 34
M  V30 34 1 33 35
M  V30 35 2 35 36
M  V30 36 1 29 6
M  V30 37 1 36 30
M  V30 38 1 14 10
M  V30 39 1 20 15
M  V30 40 1 27 22
M  V30 41 1 27 13
M  V30 42 1 4 37
M  V30 43 1 5 38
M  V30 44 1 5 39
M  V30 45 1 7 40
M  V30 46 1 8 41
M  V30 47 1 16 42
M  V30 48 1 17 43
M  V30 49 1 18 44
M  V30 50 1 21 45
M  V30 51 1 23 46
M  V30 52 1 24 47
M  V30 53 1 25 48
M  V30 54 1 26 49
M  V30 55 1 28 50
M  V30 56 1 29 51
M  V30 57 1 31 52
M  V30 58 1 32 53
M  V30 59 1 35 54
M  V30 60 1 36 55
M  V30 END BOND
M  V30 END CTAB
M  END
>  <Dataset>  (127) 
ChEMBL_Kinases

>  <Ligand_Instance>  (127) 
nan

>  <PDB_ID>  (127) 
nan

>  <Standardized_SMILES>  (127) 
O=S(=O)(NCc1ccc(-c2nnc3n2-c2cccnc2Nc2ccccc2-3)cc1)c1ccc(Cl)cc1

>  <Name>  (127) 
nan

>  <Pocket>  (127) 
nan

>  <ATP_Site>  (127) 
nan

>  <Peripheral>  (127) 
nan

>  <Num_H_Atoms_ProtBoundConf>  (127) 
nan

>  <Num_Resolved_Atoms>  (127) 
nan

>  <Num_Not_Resolved_Atoms>  (127) 
nan

$$$$
CHEMBL3684428
     RDKit          3D

  0  0  0  0  0  0  0  0  0  0999 V3000
M  V30 BEGIN CTAB
M  V30 COUNTS 58 63 0 0 0
M  V30 BEGIN ATOM
M  V30 1 C -7.791429 1.950885 -2.899115 0
M  V30 2 C -7.168231 1.008693 -1.933651 0
M  V30 3 C -6.696638 1.551323 -0.757895 0
M  V30 4 C -6.112041 0.690851 0.155984 0
M  V30 5 C -5.969517 -0.683033 -0.033987 0
M  V30 6 S -5.205588 -1.659189 1.212817 0
M  V30 7 O -5.790253 -3.027663 1.274557 0
M  V30 8 O -5.346862 -0.917475 2.520406 0
M  V30 9 N -3.506370 -1.696673 0.872623 0
M  V30 10 C -3.030309 -0.338366 0.939871 0
M  V30 11 C -1.568600 -0.234815 0.663358 0
M  V30 12 C -1.140515 -0.048799 -0.633644 0
M  V30 13 C 0.212116 0.046188 -0.882728 0
M  V30 14 C 1.178236 -0.039475 0.138191 0
M  V30 15 C 2.601461 0.087903 -0.074986 0
M  V30 16 N 2.964224 1.300608 -0.587022 0
M  V30 17 N 4.296688 1.357992 -0.708208 0
M  V30 18 C 4.796052 0.203974 -0.283026 0
M  V30 19 N 3.757142 -0.555459 0.093755 0
M  V30 20 C 3.748527 -1.866355 0.611789 0
M  V30 21 C 2.553714 -2.477294 0.348609 0
M  V30 22 C 2.371935 -3.752276 0.843152 0
M  V30 23 C 3.420977 -4.326124 1.573331 0
M  V30 24 N 4.619910 -3.721803 1.836546 0
M  V30 25 C 4.763453 -2.459672 1.330450 0
M  V30 26 N 6.092355 -1.959954 1.606728 0
M  V30 27 C 6.744440 -1.057288 0.684874 0
M  V30 28 C 8.128679 -1.262268 0.744554 0
M  V30 29 C 8.911112 -0.490174 -0.089644 0
M  V30 30 C 8.353308 0.452250 -0.954009 0
M  V30 31 C 6.987043 0.664529 -1.021672 0
M  V30 32 C 6.220467 -0.099313 -0.196357 0
M  V30 33 C 0.625620 -0.229257 1.419465 0
M  V30 34 C -0.707861 -0.331985 1.736110 0
M  V30 35 C -6.459488 -1.190085 -1.235453 0
M  V30 36 C -7.043600 -0.331002 -2.148811 0
M  V30 37 H -8.881314 1.935208 -2.676161 0
M  V30 38 H -7.604942 1.634214 -3.935292 0
M  V30 39 H -7.411230 2.979822 -2.770438 0
M  V30 40 H -6.747697 2.616626 -0.486614 0
M  V30 41 H -5.731373 1.109583 1.098206 0
M  V30 42 H -3.056854 -2.214092 1.666009 0
M  V30 43 H -3.232697 0.153677 1.931055 0
M  V30 44 H -3.529617 0.323180 0.196457 0
M  V30 45 H -1.854108 0.021589 -1.443407 0
M  V30 46 H 0.569538 0.192336 -1.893935 0
M  V30 47 H 1.716473 -2.174058 -0.221027 0
M  V30 48 H 1.498453 -4.392360 0.740272 0
M  V30 49 H 3.331273 -5.320864 1.985062 0
M  V30 50 H 6.580976 -2.268420 2.466639 0
M  V30 51 H 8.498416 -2.000356 1.431833 0
M  V30 52 H 9.984760 -0.623928 -0.068139 0
M  V30 53 H 8.968618 1.058465 -1.609831 0
M  V30 54 H 6.461687 1.355094 -1.642312 0
M  V30 55 H 1.370827 -0.297965 2.227608 0
M  V30 56 H -0.984985 -0.477034 2.768067 0
M  V30 57 H -6.356118 -2.254101 -1.397197 0
M  V30 58 H -7.422426 -0.729640 -3.080135 0
M  V30 END ATOM
M  V30 BEGIN BOND
M  V30 1 1 1 2
M  V30 2 2 2 3
M  V30 3 1 3 4
M  V30 4 2 4 5
M  V30 5 1 5 6
M  V30 6 2 6 7
M  V30 7 2 6 8
M  V30 8 1 6 9
M  V30 9 1 9 10
M  V30 10 1 10 11
M  V30 11 2 11 12
M  V30 12 1 12 13
M  V30 13 2 13 14
M  V30 14 1 14 15
M  V30 15 2 15 16
M  V30 16 1 16 17
M  V30 17 2 17 18
M  V30 18 1 18 19
M  V30 19 1 19 20
M  V30 20 2 20 21
M  V30 21 1 21 22
M  V30 22 2 22 23
M  V30 23 1 23 24
M  V30 24 2 24 25
M  V30 25 1 25 26
M  V30 26 1 26 27
M  V30 27 2 27 28
M  V30 28 1 28 29
M  V30 29 2 29 30
M  V30 30 1 30 31
M  V30 31 2 31 32
M  V30 32 1 14 33
M  V30 33 2 33 34
M  V30 34 1 5 35
M  V30 35 2 35 36
M  V30 36 1 36 2
M  V30 37 1 34 11
M  V30 38 1 19 15
M  V30 39 1 25 20
M  V30 40 1 32 27
M  V30 41 1 32 18
M  V30 42 1 1 37
M  V30 43 1 1 38
M  V30 44 1 1 39
M  V30 45 1 3 40
M  V30 46 1 4 41
M  V30 47 1 9 42
M  V30 48 1 10 43
M  V30 49 1 10 44
M  V30 50 1 12 45
M  V30 51 1 13 46
M  V30 52 1 21 47
M  V30 53 1 22 48
M  V30 54 1 23 49
M  V30 55 1 26 50
M  V30 56 1 28 51
M  V30 57 1 29 52
M  V30 58 1 30 53
M  V30 59 1 31 54
M  V30 60 1 33 55
M  V30 61 1 34 56
M  V30 62 1 35 57
M  V30 63 1 36 58
M  V30 END BOND
M  V30 END CTAB
M  END
>  <Dataset>  (128) 
ChEMBL_Kinases

>  <Ligand_Instance>  (128) 
nan

>  <PDB_ID>  (128) 
nan

>  <Standardized_SMILES>  (128) 
Cc1ccc(S(=O)(=O)NCc2ccc(-c3nnc4n3-c3cccnc3Nc3ccccc3-4)cc2)cc1

>  <Name>  (128) 
nan

>  <Pocket>  (128) 
nan

>  <ATP_Site>  (128) 
nan

>  <Peripheral>  (128) 
nan

>  <Num_H_Atoms_ProtBoundConf>  (128) 
nan

>  <Num_Resolved_Atoms>  (128) 
nan

>  <Num_Not_Resolved_Atoms>  (128) 
nan

$$$$
CHEMBL3684427
     RDKit          3D

  0  0  0  0  0  0  0  0  0  0999 V3000
M  V30 BEGIN CTAB
M  V30 COUNTS 55 60 0 0 0
M  V30 BEGIN ATOM
M  V30 1 O -7.026779 -0.857853 -0.427712 0
M  V30 2 S -6.036752 -1.921208 -0.056289 0
M  V30 3 O -6.447081 -2.456535 1.284020 0
M  V30 4 N -4.486913 -1.169804 -0.003787 0
M  V30 5 C -3.428299 -2.103895 0.341615 0
M  V30 6 C -2.090624 -1.435521 0.382667 0
M  V30 7 C -1.330829 -1.387379 -0.766598 0
M  V30 8 C -0.111165 -0.752317 -0.639307 0
M  V30 9 C 0.413647 -0.171176 0.504054 0
M  V30 10 C 1.686498 0.448406 0.619234 0
M  V30 11 N 2.501212 -0.186225 1.508480 0
M  V30 12 N 3.702544 0.415593 1.536915 0
M  V30 13 C 3.661545 1.436607 0.666741 0
M  V30 14 N 2.434046 1.438508 0.127686 0
M  V30 15 C 1.891100 2.313542 -0.834647 0
M  V30 16 C 0.528755 2.355464 -0.712441 0
M  V30 17 C -0.163143 3.128694 -1.622493 0
M  V30 18 C 0.577701 3.811299 -2.596826 0
M  V30 19 N 1.941184 3.767807 -2.710564 0
M  V30 20 C 2.589537 2.995731 -1.796236 0
M  V30 21 N 4.023100 3.099952 -1.984112 0
M  V30 22 C 4.918614 2.998015 -0.848209 0
M  V30 23 C 6.058228 3.774277 -1.091231 0
M  V30 24 C 7.011540 3.800587 -0.093218 0
M  V30 25 C 6.862230 3.093397 1.105928 0
M  V30 26 C 5.742608 2.326839 1.350685 0
M  V30 27 C 4.795119 2.299230 0.360163 0
M  V30 28 C -0.466921 -0.294640 1.596825 0
M  V30 29 C -1.703624 -0.902826 1.594142 0
M  V30 30 C -6.126143 -3.182163 -1.266607 0
M  V30 31 C -5.812584 -4.498908 -0.996520 0
M  V30 32 C -5.918409 -5.420385 -2.032907 0
M  V30 33 C -6.314403 -5.105293 -3.306698 0
M  V30 34 F -6.411967 -6.005980 -4.297452 0
M  V30 35 C -6.622020 -3.795437 -3.559158 0
M  V30 36 C -6.531063 -2.841162 -2.556140 0
M  V30 37 H -4.308319 -0.864348 -1.003883 0
M  V30 38 H -3.615000 -2.614892 1.294019 0
M  V30 39 H -3.415467 -2.876708 -0.460043 0
M  V30 40 H -1.635154 -1.805035 -1.714688 0
M  V30 41 H 0.501927 -0.708808 -1.550015 0
M  V30 42 H -0.137734 1.934239 -0.007609 0
M  V30 43 H -1.234348 3.277120 -1.678600 0
M  V30 44 H 0.088231 4.428636 -3.335309 0
M  V30 45 H 4.401522 3.262863 -2.926021 0
M  V30 46 H 6.119259 4.288946 -2.022059 0
M  V30 47 H 7.906291 4.391061 -0.247251 0
M  V30 48 H 7.610184 3.115830 1.886696 0
M  V30 49 H 5.518220 1.744852 2.224831 0
M  V30 50 H -0.135249 0.136572 2.545469 0
M  V30 51 H -2.282230 -0.933034 2.492109 0
M  V30 52 H -5.506450 -4.723743 0.000963 0
M  V30 53 H -5.668246 -6.465529 -1.813471 0
M  V30 54 H -6.943863 -3.429425 -4.518316 0
M  V30 55 H -6.774922 -1.804958 -2.757779 0
M  V30 END ATOM
M  V30 BEGIN BOND
M  V30 1 2 1 2
M  V30 2 2 2 3
M  V30 3 1 2 4
M  V30 4 1 4 5
M  V30 5 1 5 6
M  V30 6 2 6 7
M  V30 7 1 7 8
M  V30 8 2 8 9
M  V30 9 1 9 10
M  V30 10 2 10 11
M  V30 11 1 11 12
M  V30 12 2 12 13
M  V30 13 1 13 14
M  V30 14 1 14 15
M  V30 15 2 15 16
M  V30 16 1 16 17
M  V30 17 2 17 18
M  V30 18 1 18 19
M  V30 19 2 19 20
M  V30 20 1 20 21
M  V30 21 1 21 22
M  V30 22 2 22 23
M  V30 23 1 23 24
M  V30 24 2 24 25
M  V30 25 1 25 26
M  V30 26 2 26 27
M  V30 27 1 9 28
M  V30 28 2 28 29
M  V30 29 1 2 30
M  V30 30 2 30 31
M  V30 31 1 31 32
M  V30 32 2 32 33
M  V30 33 1 33 34
M  V30 34 1 33 35
M  V30 35 2 35 36
M  V30 36 1 29 6
M  V30 37 1 36 30
M  V30 38 1 14 10
M  V30 39 1 20 15
M  V30 40 1 27 22
M  V30 41 1 27 13
M  V30 42 1 4 37
M  V30 43 1 5 38
M  V30 44 1 5 39
M  V30 45 1 7 40
M  V30 46 1 8 41
M  V30 47 1 16 42
M  V30 48 1 17 43
M  V30 49 1 18 44
M  V30 50 1 21 45
M  V30 51 1 23 46
M  V30 52 1 24 47
M  V30 53 1 25 48
M  V30 54 1 26 49
M  V30 55 1 28 50
M  V30 56 1 29 51
M  V30 57 1 31 52
M  V30 58 1 32 53
M  V30 59 1 35 54
M  V30 60 1 36 55
M  V30 END BOND
M  V30 END CTAB
M  END
>  <Dataset>  (129) 
ChEMBL_Kinases

>  <Ligand_Instance>  (129) 
nan

>  <PDB_ID>  (129) 
nan

>  <Standardized_SMILES>  (129) 
O=S(=O)(NCc1ccc(-c2nnc3n2-c2cccnc2Nc2ccccc2-3)cc1)c1ccc(F)cc1

>  <Name>  (129) 
nan

>  <Pocket>  (129) 
nan

>  <ATP_Site>  (129) 
nan

>  <Peripheral>  (129) 
nan

>  <Num_H_Atoms_ProtBoundConf>  (129) 
nan

>  <Num_Resolved_Atoms>  (129) 
nan

>  <Num_Not_Resolved_Atoms>  (129) 
nan

$$$$
CHEMBL3684426
     RDKit          3D

  0  0  0  0  0  0  0  0  0  0999 V3000
M  V30 BEGIN CTAB
M  V30 COUNTS 55 60 0 0 0
M  V30 BEGIN ATOM
M  V30 1 O -3.361289 0.709718 -0.123434 0
M  V30 2 S -4.228638 -0.797790 -0.403308 0
M  V30 3 O -5.247957 -0.451225 0.846529 0
M  V30 4 N -3.046353 -1.619226 0.471828 0
M  V30 5 C -3.450523 -2.578870 1.654919 0
M  V30 6 C -1.863518 -2.230298 1.880280 0
M  V30 7 C -0.653266 -2.584131 1.454123 0
M  V30 8 C 0.203041 -1.491697 1.583253 0
M  V30 9 C 0.035801 -0.214110 2.046438 0
M  V30 10 C 1.129456 0.626178 1.678641 0
M  V30 11 N 1.617114 1.466794 2.551874 0
M  V30 12 N 2.736517 2.113083 2.019113 0
M  V30 13 C 2.951482 1.639357 0.800934 0
M  V30 14 N 1.922461 0.722379 0.543851 0
M  V30 15 C 1.653877 0.078700 -0.735121 0
M  V30 16 C 0.308473 -0.048196 -0.882372 0
M  V30 17 C -0.083459 -0.871426 -1.932952 0
M  V30 18 C 0.816756 -1.451869 -2.736231 0
M  V30 19 N 2.213646 -1.298306 -2.609757 0
M  V30 20 C 2.551185 -0.510307 -1.565939 0
M  V30 21 N 3.863712 0.082745 -1.863264 0
M  V30 22 C 4.376167 1.321972 -1.270048 0
M  V30 23 C 5.158369 2.063138 -2.182101 0
M  V30 24 C 5.483914 3.361597 -1.853988 0
M  V30 25 C 5.083004 3.944591 -0.697927 0
M  V30 26 C 4.373874 3.247772 0.217930 0
M  V30 27 C 4.036823 1.954085 -0.101893 0
M  V30 28 C -1.133574 0.242789 2.533742 0
M  V30 29 C -2.162583 -0.867648 2.429788 0
M  V30 30 C -4.866071 -0.659637 -1.781425 0
M  V30 31 C -4.323423 0.294666 -2.693956 0
M  V30 32 C -4.767916 0.426912 -3.942937 0
M  V30 33 C -5.818932 -0.362368 -4.408846 0
M  V30 34 C -6.335756 -1.272748 -3.471690 0
M  V30 35 Cl -7.666531 -2.300395 -4.027350 0
M  V30 36 C -5.878182 -1.417033 -2.208349 0
M  V30 37 H -3.485894 -2.732950 -0.341849 0
M  V30 38 H -4.136933 -1.974339 2.084841 0
M  V30 39 H -3.407555 -3.607656 1.459995 0
M  V30 40 H -0.732654 -3.504488 1.220680 0
M  V30 41 H 1.195049 -1.801838 1.257964 0
M  V30 42 H -0.404142 0.462323 -0.239872 0
M  V30 43 H -1.159116 -1.005237 -2.196117 0
M  V30 44 H 0.535587 -2.158951 -3.534279 0
M  V30 45 H 4.464242 -0.296831 -2.612321 0
M  V30 46 H 5.512744 1.582689 -3.068262 0
M  V30 47 H 5.992281 3.966973 -2.619404 0
M  V30 48 H 5.293456 5.006463 -0.511313 0
M  V30 49 H 4.160053 3.640850 1.181900 0
M  V30 50 H -1.226544 1.227659 2.874237 0
M  V30 51 H -3.068203 -0.445267 2.966399 0
M  V30 52 H -3.564772 1.012991 -2.387507 0
M  V30 53 H -4.363699 1.136942 -4.675421 0
M  V30 54 H -6.199659 -0.274277 -5.396434 0
M  V30 55 H -6.232803 -2.135371 -1.494553 0
M  V30 END ATOM
M  V30 BEGIN BOND
M  V30 1 2 1 2
M  V30 2 2 2 3
M  V30 3 1 2 4
M  V30 4 1 4 5
M  V30 5 1 5 6
M  V30 6 2 6 7
M  V30 7 1 7 8
M  V30 8 2 8 9
M  V30 9 1 9 10
M  V30 10 2 10 11
M  V30 11 1 11 12
M  V30 12 2 12 13
M  V30 13 1 13 14
M  V30 14 1 14 15
M  V30 15 2 15 16
M  V30 16 1 16 17
M  V30 17 2 17 18
M  V30 18 1 18 19
M  V30 19 2 19 20
M  V30 20 1 20 21
M  V30 21 1 21 22
M  V30 22 2 22 23
M  V30 23 1 23 24
M  V30 24 2 24 25
M  V30 25 1 25 26
M  V30 26 2 26 27
M  V30 27 1 9 28
M  V30 28 2 28 29
M  V30 29 1 2 30
M  V30 30 2 30 31
M  V30 31 1 31 32
M  V30 32 2 32 33
M  V30 33 1 33 34
M  V30 34 1 34 35
M  V30 35 2 34 36
M  V30 36 1 29 6
M  V30 37 1 36 30
M  V30 38 1 14 10
M  V30 39 1 20 15
M  V30 40 1 27 22
M  V30 41 1 27 13
M  V30 42 1 4 37
M  V30 43 1 5 38
M  V30 44 1 5 39
M  V30 45 1 7 40
M  V30 46 1 8 41
M  V30 47 1 16 42
M  V30 48 1 17 43
M  V30 49 1 18 44
M  V30 50 1 21 45
M  V30 51 1 23 46
M  V30 52 1 24 47
M  V30 53 1 25 48
M  V30 54 1 26 49
M  V30 55 1 28 50
M  V30 56 1 29 51
M  V30 57 1 31 52
M  V30 58 1 32 53
M  V30 59 1 33 54
M  V30 60 1 36 55
M  V30 END BOND
M  V30 END CTAB
M  END
>  <Dataset>  (130) 
ChEMBL_Kinases

>  <Ligand_Instance>  (130) 
nan

>  <PDB_ID>  (130) 
nan

>  <Standardized_SMILES>  (130) 
O=S(=O)(NCc1ccc(-c2nnc3n2-c2cccnc2Nc2ccccc2-3)cc1)c1cccc(Cl)c1

>  <Name>  (130) 
nan

>  <Pocket>  (130) 
nan

>  <ATP_Site>  (130) 
nan

>  <Peripheral>  (130) 
nan

>  <Num_H_Atoms_ProtBoundConf>  (130) 
nan

>  <Num_Resolved_Atoms>  (130) 
nan

>  <Num_Not_Resolved_Atoms>  (130) 
nan

$$$$
CHEMBL3684425
     RDKit          3D

  0  0  0  0  0  0  0  0  0  0999 V3000
M  V30 BEGIN CTAB
M  V30 COUNTS 58 63 0 0 0
M  V30 BEGIN ATOM
M  V30 1 C 5.053585 1.181077 6.044734 0
M  V30 2 C 5.409382 0.499897 4.780414 0
M  V30 3 C 5.960378 -0.763144 4.864497 0
M  V30 4 C 6.306152 -1.430434 3.687065 0
M  V30 5 C 6.088167 -0.810264 2.471167 0
M  V30 6 C 5.541319 0.446035 2.360629 0
M  V30 7 S 5.279801 1.200789 0.796305 0
M  V30 8 O 6.326685 0.689501 -0.139763 0
M  V30 9 O 5.328909 2.676694 0.971054 0
M  V30 10 N 3.694187 0.767041 0.257722 0
M  V30 11 C 2.696439 1.257148 1.174135 0
M  V30 12 C 1.315854 0.903744 0.745267 0
M  V30 13 C 0.645485 1.788099 -0.073176 0
M  V30 14 C -0.632270 1.479180 -0.480487 0
M  V30 15 C -1.291202 0.296224 -0.098993 0
M  V30 16 C -2.641588 -0.043667 -0.479938 0
M  V30 17 N -3.570273 0.849348 -0.024492 0
M  V30 18 N -4.798949 0.436866 -0.375631 0
M  V30 19 C -4.670441 -0.702314 -1.046138 0
M  V30 20 N -3.359415 -0.979861 -1.104911 0
M  V30 21 C -2.706724 -2.063414 -1.705605 0
M  V30 22 C -1.423154 -1.729651 -2.040086 0
M  V30 23 C -0.626612 -2.710658 -2.594933 0
M  V30 24 C -1.183544 -3.982777 -2.782084 0
M  V30 25 N -2.470343 -4.311612 -2.449598 0
M  V30 26 C -3.232530 -3.319170 -1.903087 0
M  V30 27 N -4.581706 -3.793508 -1.677582 0
M  V30 28 C -5.702717 -2.880591 -1.783289 0
M  V30 29 C -6.824717 -3.576037 -2.213535 0
M  V30 30 C -7.990781 -2.858833 -2.387894 0
M  V30 31 C -8.040407 -1.483147 -2.140424 0
M  V30 32 C -6.936748 -0.775407 -1.712018 0
M  V30 33 C -5.784048 -1.501414 -1.542259 0
M  V30 34 C -0.511452 -0.499782 0.718575 0
M  V30 35 C 0.761806 -0.270353 1.169783 0
M  V30 36 C 5.204391 1.091972 3.549894 0
M  V30 37 H 4.260619 0.615799 6.565077 0
M  V30 38 H 5.924428 1.214357 6.748468 0
M  V30 39 H 4.726015 2.224400 5.823446 0
M  V30 40 H 6.150507 -1.290152 5.788839 0
M  V30 41 H 6.742434 -2.430893 3.757497 0
M  V30 42 H 6.370897 -1.363478 1.582893 0
M  V30 43 H 3.587518 -0.220308 0.010323 0
M  V30 44 H 2.932826 0.862394 2.182270 0
M  V30 45 H 2.744118 2.361503 1.254789 0
M  V30 46 H 1.097852 2.729530 -0.409836 0
M  V30 47 H -1.187566 2.161982 -1.129659 0
M  V30 48 H -0.900636 -0.810825 -1.998704 0
M  V30 49 H 0.408257 -2.609220 -2.911654 0
M  V30 50 H -0.600908 -4.785383 -3.210359 0
M  V30 51 H -4.740306 -4.783757 -1.458321 0
M  V30 52 H -6.725474 -4.637755 -2.385616 0
M  V30 53 H -8.880210 -3.375542 -2.722446 0
M  V30 54 H -8.953508 -0.910514 -2.275376 0
M  V30 55 H -6.864638 0.269023 -1.494367 0
M  V30 56 H -1.001376 -1.435053 1.034484 0
M  V30 57 H 1.251505 -0.990100 1.810279 0
M  V30 58 H 4.769337 2.088565 3.489923 0
M  V30 END ATOM
M  V30 BEGIN BOND
M  V30 1 1 1 2
M  V30 2 2 2 3
M  V30 3 1 3 4
M  V30 4 2 4 5
M  V30 5 1 5 6
M  V30 6 1 6 7
M  V30 7 2 7 8
M  V30 8 2 7 9
M  V30 9 1 7 10
M  V30 10 1 10 11
M  V30 11 1 11 12
M  V30 12 2 12 13
M  V30 13 1 13 14
M  V30 14 2 14 15
M  V30 15 1 15 16
M  V30 16 2 16 17
M  V30 17 1 17 18
M  V30 18 2 18 19
M  V30 19 1 19 20
M  V30 20 1 20 21
M  V30 21 2 21 22
M  V30 22 1 22 23
M  V30 23 2 23 24
M  V30 24 1 24 25
M  V30 25 2 25 26
M  V30 26 1 26 27
M  V30 27 1 27 28
M  V30 28 2 28 29
M  V30 29 1 29 30
M  V30 30 2 30 31
M  V30 31 1 31 32
M  V30 32 2 32 33
M  V30 33 1 15 34
M  V30 34 2 34 35
M  V30 35 2 6 36
M  V30 36 1 36 2
M  V30 37 1 35 12
M  V30 38 1 20 16
M  V30 39 1 26 21
M  V30 40 1 33 28
M  V30 41 1 33 19
M  V30 42 1 1 37
M  V30 43 1 1 38
M  V30 44 1 1 39
M  V30 45 1 3 40
M  V30 46 1 4 41
M  V30 47 1 5 42
M  V30 48 1 10 43
M  V30 49 1 11 44
M  V30 50 1 11 45
M  V30 51 1 13 46
M  V30 52 1 14 47
M  V30 53 1 22 48
M  V30 54 1 23 49
M  V30 55 1 24 50
M  V30 56 1 27 51
M  V30 57 1 29 52
M  V30 58 1 30 53
M  V30 59 1 31 54
M  V30 60 1 32 55
M  V30 61 1 34 56
M  V30 62 1 35 57
M  V30 63 1 36 58
M  V30 END BOND
M  V30 END CTAB
M  END
>  <Dataset>  (131) 
ChEMBL_Kinases

>  <Ligand_Instance>  (131) 
nan

>  <PDB_ID>  (131) 
nan

>  <Standardized_SMILES>  (131) 
Cc1cccc(S(=O)(=O)NCc2ccc(-c3nnc4n3-c3cccnc3Nc3ccccc3-4)cc2)c1

>  <Name>  (131) 
nan

>  <Pocket>  (131) 
nan

>  <ATP_Site>  (131) 
nan

>  <Peripheral>  (131) 
nan

>  <Num_H_Atoms_ProtBoundConf>  (131) 
nan

>  <Num_Resolved_Atoms>  (131) 
nan

>  <Num_Not_Resolved_Atoms>  (131) 
nan

$$$$
CHEMBL3684407
     RDKit          3D

  0  0  0  0  0  0  0  0  0  0999 V3000
M  V30 BEGIN CTAB
M  V30 COUNTS 51 56 0 0 0
M  V30 BEGIN ATOM
M  V30 1 O 2.156428 -5.256021 2.069982 0
M  V30 2 C 2.704695 -5.385317 0.947747 0
M  V30 3 N 3.508189 -4.365477 0.417425 0
M  V30 4 C 3.830604 -3.075754 1.013131 0
M  V30 5 C 2.639814 -2.197868 0.849304 0
M  V30 6 C 2.644762 -1.500421 -0.316761 0
M  V30 7 C 1.614700 -0.637294 -0.623594 0
M  V30 8 C 0.525701 -0.442344 0.245892 0
M  V30 9 C -0.596345 0.426035 -0.040607 0
M  V30 10 N -1.292504 0.060393 -1.157789 0
M  V30 11 N -2.338102 0.876504 -1.325661 0
M  V30 12 C -2.324871 1.770004 -0.323632 0
M  V30 13 N -1.260463 1.479349 0.438298 0
M  V30 14 C -0.803915 2.123457 1.606111 0
M  V30 15 C 0.541626 1.922867 1.755401 0
M  V30 16 C 1.129756 2.448197 2.887844 0
M  V30 17 C 0.308569 3.141820 3.785873 0
M  V30 18 N -1.035381 3.348234 3.638910 0
M  V30 19 C -1.571338 2.811870 2.506653 0
M  V30 20 N -2.974234 3.160621 2.423318 0
M  V30 21 C -3.610947 3.363872 1.136000 0
M  V30 22 C -4.633407 4.308016 1.258854 0
M  V30 23 C -5.323982 4.621505 0.107272 0
M  V30 24 C -5.041674 4.047326 -1.120591 0
M  V30 25 C -4.029860 3.107408 -1.260068 0
M  V30 26 C -3.341951 2.793720 -0.115468 0
M  V30 27 C 0.601803 -1.202669 1.427504 0
M  V30 28 C 1.616290 -2.062579 1.746444 0
M  V30 29 C 2.495616 -6.620218 0.192176 0
M  V30 30 C 2.985747 -6.979112 -1.045810 0
M  V30 31 C 2.541153 -8.241071 -1.390407 0
M  V30 32 C 1.773231 -8.606607 -0.308575 0
M  V30 33 O 1.780753 -7.651757 0.560089 0
M  V30 34 H 3.940090 -4.542607 -0.534059 0
M  V30 35 H 3.944069 -3.216696 2.128867 0
M  V30 36 H 4.740187 -2.646641 0.585226 0
M  V30 37 H 3.396476 -1.529420 -1.092466 0
M  V30 38 H 1.525983 -0.034475 -1.528979 0
M  V30 39 H 1.267147 1.465708 1.134916 0
M  V30 40 H 2.174882 2.382743 3.164778 0
M  V30 41 H 0.710649 3.573156 4.689314 0
M  V30 42 H -3.529769 3.283501 3.286298 0
M  V30 43 H -4.810972 4.719945 2.236804 0
M  V30 44 H -6.124213 5.355012 0.182349 0
M  V30 45 H -5.583085 4.294860 -2.019624 0
M  V30 46 H -3.719168 2.595725 -2.149743 0
M  V30 47 H -0.201500 -1.112007 2.157412 0
M  V30 48 H 1.655222 -2.631505 2.654613 0
M  V30 49 H 3.629818 -6.328464 -1.635795 0
M  V30 50 H 2.769438 -8.776856 -2.307900 0
M  V30 51 H 1.241986 -9.565377 -0.212613 0
M  V30 END ATOM
M  V30 BEGIN BOND
M  V30 1 2 1 2
M  V30 2 1 2 3
M  V30 3 1 3 4
M  V30 4 1 4 5
M  V30 5 2 5 6
M  V30 6 1 6 7
M  V30 7 2 7 8
M  V30 8 1 8 9
M  V30 9 2 9 10
M  V30 10 1 10 11
M  V30 11 2 11 12
M  V30 12 1 12 13
M  V30 13 1 13 14
M  V30 14 2 14 15
M  V30 15 1 15 16
M  V30 16 2 16 17
M  V30 17 1 17 18
M  V30 18 2 18 19
M  V30 19 1 19 20
M  V30 20 1 20 21
M  V30 21 2 21 22
M  V30 22 1 22 23
M  V30 23 2 23 24
M  V30 24 1 24 25
M  V30 25 2 25 26
M  V30 26 1 8 27
M  V30 27 2 27 28
M  V30 28 1 2 29
M  V30 29 2 29 30
M  V30 30 1 30 31
M  V30 31 2 31 32
M  V30 32 1 32 33
M  V30 33 1 28 5
M  V30 34 1 33 29
M  V30 35 1 13 9
M  V30 36 1 19 14
M  V30 37 1 26 21
M  V30 38 1 26 12
M  V30 39 1 3 34
M  V30 40 1 4 35
M  V30 41 1 4 36
M  V30 42 1 6 37
M  V30 43 1 7 38
M  V30 44 1 15 39
M  V30 45 1 16 40
M  V30 46 1 17 41
M  V30 47 1 20 42
M  V30 48 1 22 43
M  V30 49 1 23 44
M  V30 50 1 24 45
M  V30 51 1 25 46
M  V30 52 1 27 47
M  V30 53 1 28 48
M  V30 54 1 30 49
M  V30 55 1 31 50
M  V30 56 1 32 51
M  V30 END BOND
M  V30 END CTAB
M  END
>  <Dataset>  (132) 
ChEMBL_Kinases

>  <Ligand_Instance>  (132) 
nan

>  <PDB_ID>  (132) 
nan

>  <Standardized_SMILES>  (132) 
O=C(NCc1ccc(-c2nnc3n2-c2cccnc2Nc2ccccc2-3)cc1)c1ccco1

>  <Name>  (132) 
nan

>  <Pocket>  (132) 
nan

>  <ATP_Site>  (132) 
nan

>  <Peripheral>  (132) 
nan

>  <Num_H_Atoms_ProtBoundConf>  (132) 
nan

>  <Num_Resolved_Atoms>  (132) 
nan

>  <Num_Not_Resolved_Atoms>  (132) 
nan

$$$$
CHEMBL3684408
     RDKit          3D

  0  0  0  0  0  0  0  0  0  0999 V3000
M  V30 BEGIN CTAB
M  V30 COUNTS 62 67 0 0 0
M  V30 BEGIN ATOM
M  V30 1 C 7.355027 -2.622079 5.358868 0
M  V30 2 N 7.516850 -1.799637 4.150743 0
M  V30 3 C 8.751169 -1.705289 3.435881 0
M  V30 4 C 6.360637 -1.066148 3.692311 0
M  V30 5 C 6.441203 -0.262148 2.545680 0
M  V30 6 C 5.312534 0.446820 2.110873 0
M  V30 7 C 4.119788 0.362916 2.799419 0
M  V30 8 C 2.981551 1.124439 2.304076 0
M  V30 9 O 3.135198 1.816742 1.266380 0
M  V30 10 N 1.691854 1.154536 2.900774 0
M  V30 11 C 0.554552 1.889391 2.447027 0
M  V30 12 C -0.129456 1.267342 1.283937 0
M  V30 13 C 0.127318 1.517946 -0.029203 0
M  V30 14 C -0.552796 0.899045 -1.055721 0
M  V30 15 C -1.561333 -0.036605 -0.778913 0
M  V30 16 C -2.359827 -0.809495 -1.701413 0
M  V30 17 N -1.627606 -1.658177 -2.474407 0
M  V30 18 N -2.458863 -2.370740 -3.253912 0
M  V30 19 C -3.717739 -1.985541 -2.986407 0
M  V30 20 N -3.627196 -1.035053 -2.043818 0
M  V30 21 C -4.657789 -0.311850 -1.434401 0
M  V30 22 C -4.194490 0.898029 -0.988174 0
M  V30 23 C -5.084964 1.709523 -0.312186 0
M  V30 24 C -6.394773 1.252841 -0.127572 0
M  V30 25 N -6.848388 0.046198 -0.580007 0
M  V30 26 C -5.954448 -0.737261 -1.243636 0
M  V30 27 N -6.601141 -1.937296 -1.722474 0
M  V30 28 C -6.161486 -2.550781 -2.959344 0
M  V30 29 C -7.243151 -3.187994 -3.578149 0
M  V30 30 C -7.002585 -3.811504 -4.780837 0
M  V30 31 C -5.751314 -3.816322 -5.364344 0
M  V30 32 C -4.654625 -3.194205 -4.777396 0
M  V30 33 C -4.908617 -2.579932 -3.583493 0
M  V30 34 C -1.828245 -0.297257 0.576923 0
M  V30 35 C -1.132673 0.336181 1.584395 0
M  V30 36 C 4.065890 -0.434507 3.923671 0
M  V30 37 C 5.161821 -1.143067 4.373792 0
M  V30 38 H 6.564581 -3.363890 5.140944 0
M  V30 39 H 8.297070 -3.018291 5.731207 0
M  V30 40 H 6.904798 -1.932091 6.128928 0
M  V30 41 H 9.187013 -0.699778 3.709278 0
M  V30 42 H 9.453726 -2.451534 3.888192 0
M  V30 43 H 8.671498 -1.787494 2.349777 0
M  V30 44 H 7.383464 -0.202112 2.010591 0
M  V30 45 H 5.411356 1.066838 1.209408 0
M  V30 46 H 1.607694 0.557581 3.767526 0
M  V30 47 H -0.185445 1.958701 3.269213 0
M  V30 48 H 0.925358 2.914329 2.198699 0
M  V30 49 H 0.890843 2.226707 -0.267242 0
M  V30 50 H -0.388642 1.061993 -2.108867 0
M  V30 51 H -3.260638 1.381015 -1.098693 0
M  V30 52 H -4.897000 2.679577 0.105094 0
M  V30 53 H -7.128923 1.848341 0.395986 0
M  V30 54 H -7.381398 -2.344822 -1.195976 0
M  V30 55 H -8.195512 -3.150208 -3.069208 0
M  V30 56 H -7.833950 -4.298669 -5.251111 0
M  V30 57 H -5.553674 -4.309020 -6.318857 0
M  V30 58 H -3.647729 -3.137773 -5.141034 0
M  V30 59 H -2.601063 -1.015029 0.886198 0
M  V30 60 H -1.366819 0.108542 2.610096 0
M  V30 61 H 3.153725 -0.528718 4.491306 0
M  V30 62 H 5.066600 -1.755497 5.263311 0
M  V30 END ATOM
M  V30 BEGIN BOND
M  V30 1 1 1 2
M  V30 2 1 2 3
M  V30 3 1 2 4
M  V30 4 2 4 5
M  V30 5 1 5 6
M  V30 6 2 6 7
M  V30 7 1 7 8
M  V30 8 2 8 9
M  V30 9 1 8 10
M  V30 10 1 10 11
M  V30 11 1 11 12
M  V30 12 2 12 13
M  V30 13 1 13 14
M  V30 14 2 14 15
M  V30 15 1 15 16
M  V30 16 2 16 17
M  V30 17 1 17 18
M  V30 18 2 18 19
M  V30 19 1 19 20
M  V30 20 1 20 21
M  V30 21 2 21 22
M  V30 22 1 22 23
M  V30 23 2 23 24
M  V30 24 1 24 25
M  V30 25 2 25 26
M  V30 26 1 26 27
M  V30 27 1 27 28
M  V30 28 2 28 29
M  V30 29 1 29 30
M  V30 30 2 30 31
M  V30 31 1 31 32
M  V30 32 2 32 33
M  V30 33 1 15 34
M  V30 34 2 34 35
M  V30 35 1 7 36
M  V30 36 2 36 37
M  V30 37 1 37 4
M  V30 38 1 35 12
M  V30 39 1 20 16
M  V30 40 1 26 21
M  V30 41 1 33 28
M  V30 42 1 33 19
M  V30 43 1 1 38
M  V30 44 1 1 39
M  V30 45 1 1 40
M  V30 46 1 3 41
M  V30 47 1 3 42
M  V30 48 1 3 43
M  V30 49 1 5 44
M  V30 50 1 6 45
M  V30 51 1 10 46
M  V30 52 1 11 47
M  V30 53 1 11 48
M  V30 54 1 13 49
M  V30 55 1 14 50
M  V30 56 1 22 51
M  V30 57 1 23 52
M  V30 58 1 24 53
M  V30 59 1 27 54
M  V30 60 1 29 55
M  V30 61 1 30 56
M  V30 62 1 31 57
M  V30 63 1 32 58
M  V30 64 1 34 59
M  V30 65 1 35 60
M  V30 66 1 36 61
M  V30 67 1 37 62
M  V30 END BOND
M  V30 END CTAB
M  END
>  <Dataset>  (133) 
ChEMBL_Kinases

>  <Ligand_Instance>  (133) 
nan

>  <PDB_ID>  (133) 
nan

>  <Standardized_SMILES>  (133) 
CN(C)c1ccc(C(=O)NCc2ccc(-c3nnc4n3-c3cccnc3Nc3ccccc3-4)cc2)cc1

>  <Name>  (133) 
nan

>  <Pocket>  (133) 
nan

>  <ATP_Site>  (133) 
nan

>  <Peripheral>  (133) 
nan

>  <Num_H_Atoms_ProtBoundConf>  (133) 
nan

>  <Num_Resolved_Atoms>  (133) 
nan

>  <Num_Not_Resolved_Atoms>  (133) 
nan

$$$$
CHEMBL3684409
     RDKit          3D

  0  0  0  0  0  0  0  0  0  0999 V3000
M  V30 BEGIN CTAB
M  V30 COUNTS 54 59 0 0 0
M  V30 BEGIN ATOM
M  V30 1 O 1.385215 -5.021509 -0.100950 0
M  V30 2 C 2.081662 -4.872722 0.949126 0
M  V30 3 N 3.190111 -4.011363 0.824848 0
M  V30 4 C 3.660225 -3.262757 -0.325635 0
M  V30 5 C 2.772317 -2.084729 -0.492336 0
M  V30 6 C 3.185006 -0.989940 0.220599 0
M  V30 7 C 2.499563 0.209355 0.201743 0
M  V30 8 C 1.328447 0.338450 -0.572004 0
M  V30 9 C 0.531219 1.537506 -0.711333 0
M  V30 10 N 1.213015 2.576801 -1.273092 0
M  V30 11 N 0.385916 3.629399 -1.412653 0
M  V30 12 C -0.820955 3.268432 -0.943249 0
M  V30 13 N -0.702239 2.008759 -0.525961 0
M  V30 14 C -1.680012 1.176145 0.054575 0
M  V30 15 C -1.095328 0.218028 0.835311 0
M  V30 16 C -1.920526 -0.719672 1.436081 0
M  V30 17 C -3.298678 -0.616897 1.202036 0
M  V30 18 N -3.871264 0.350643 0.420861 0
M  V30 19 C -3.038733 1.257952 -0.156436 0
M  V30 20 N -3.796087 2.250939 -0.880623 0
M  V30 21 C -3.307208 3.609839 -0.979038 0
M  V30 22 C -4.397777 4.484948 -1.064875 0
M  V30 23 C -4.113818 5.841036 -1.149692 0
M  V30 24 C -2.797616 6.283440 -1.147640 0
M  V30 25 C -1.710204 5.457120 -1.065862 0
M  V30 26 C -2.003151 4.121409 -0.983210 0
M  V30 27 C 0.924247 -0.801422 -1.296693 0
M  V30 28 C 1.631072 -1.983174 -1.256016 0
M  V30 29 C 1.737315 -5.550010 2.166593 0
M  V30 30 C 2.416981 -5.472182 3.358468 0
M  V30 31 C 2.010551 -6.163549 4.491732 0
M  V30 32 C 0.879115 -6.973338 4.455042 0
M  V30 33 C 0.159854 -7.085483 3.278895 0
M  V30 34 C 0.614227 -6.374246 2.188486 0
M  V30 35 H 3.777938 -3.880043 1.693330 0
M  V30 36 H 4.713956 -3.001154 -0.261011 0
M  V30 37 H 3.475692 -3.901083 -1.233855 0
M  V30 38 H 4.068315 -0.953071 0.855862 0
M  V30 39 H 2.764765 1.112788 0.737022 0
M  V30 40 H -0.090949 0.062683 1.127026 0
M  V30 41 H -1.641257 -1.555778 2.088106 0
M  V30 42 H -3.988535 -1.321849 1.643350 0
M  V30 43 H -4.697791 1.989685 -1.314565 0
M  V30 44 H -5.379566 4.061927 -1.062746 0
M  V30 45 H -4.929496 6.531390 -1.216094 0
M  V30 46 H -2.576400 7.361466 -1.215093 0
M  V30 47 H -0.670664 5.710554 -1.058461 0
M  V30 48 H 0.030839 -0.810809 -1.928389 0
M  V30 49 H 1.357199 -2.875988 -1.796620 0
M  V30 50 H 3.285236 -4.857925 3.406709 0
M  V30 51 H 2.549166 -6.100167 5.430603 0
M  V30 52 H 0.492022 -7.547047 5.291087 0
M  V30 53 H -0.723188 -7.701303 3.203924 0
M  V30 54 H 0.021211 -6.484938 1.271420 0
M  V30 END ATOM
M  V30 BEGIN BOND
M  V30 1 2 1 2
M  V30 2 1 2 3
M  V30 3 1 3 4
M  V30 4 1 4 5
M  V30 5 2 5 6
M  V30 6 1 6 7
M  V30 7 2 7 8
M  V30 8 1 8 9
M  V30 9 2 9 10
M  V30 10 1 10 11
M  V30 11 2 11 12
M  V30 12 1 12 13
M  V30 13 1 13 14
M  V30 14 2 14 15
M  V30 15 1 15 16
M  V30 16 2 16 17
M  V30 17 1 17 18
M  V30 18 2 18 19
M  V30 19 1 19 20
M  V30 20 1 20 21
M  V30 21 2 21 22
M  V30 22 1 22 23
M  V30 23 2 23 24
M  V30 24 1 24 25
M  V30 25 2 25 26
M  V30 26 1 8 27
M  V30 27 2 27 28
M  V30 28 1 2 29
M  V30 29 2 29 30
M  V30 30 1 30 31
M  V30 31 2 31 32
M  V30 32 1 32 33
M  V30 33 2 33 34
M  V30 34 1 28 5
M  V30 35 1 34 29
M  V30 36 1 13 9
M  V30 37 1 19 14
M  V30 38 1 26 21
M  V30 39 1 26 12
M  V30 40 1 3 35
M  V30 41 1 4 36
M  V30 42 1 4 37
M  V30 43 1 6 38
M  V30 44 1 7 39
M  V30 45 1 15 40
M  V30 46 1 16 41
M  V30 47 1 17 42
M  V30 48 1 20 43
M  V30 49 1 22 44
M  V30 50 1 23 45
M  V30 51 1 24 46
M  V30 52 1 25 47
M  V30 53 1 27 48
M  V30 54 1 28 49
M  V30 55 1 30 50
M  V30 56 1 31 51
M  V30 57 1 32 52
M  V30 58 1 33 53
M  V30 59 1 34 54
M  V30 END BOND
M  V30 END CTAB
M  END
>  <Dataset>  (134) 
ChEMBL_Kinases

>  <Ligand_Instance>  (134) 
nan

>  <PDB_ID>  (134) 
nan

>  <Standardized_SMILES>  (134) 
O=C(NCc1ccc(-c2nnc3n2-c2cccnc2Nc2ccccc2-3)cc1)c1ccccc1

>  <Name>  (134) 
nan

>  <Pocket>  (134) 
nan

>  <ATP_Site>  (134) 
nan

>  <Peripheral>  (134) 
nan

>  <Num_H_Atoms_ProtBoundConf>  (134) 
nan

>  <Num_Resolved_Atoms>  (134) 
nan

>  <Num_Not_Resolved_Atoms>  (134) 
nan

$$$$
CHEMBL3684410
     RDKit          3D

  0  0  0  0  0  0  0  0  0  0999 V3000
M  V30 BEGIN CTAB
M  V30 COUNTS 54 59 0 0 0
M  V30 BEGIN ATOM
M  V30 1 O 1.700338 -5.298173 0.979099 0
M  V30 2 C 2.372513 -5.340487 -0.083745 0
M  V30 3 N 3.257229 -4.305094 -0.410180 0
M  V30 4 C 3.540593 -3.101432 0.343777 0
M  V30 5 C 2.471979 -2.075489 0.240426 0
M  V30 6 C 2.513357 -1.134248 -0.768418 0
M  V30 7 C 1.547483 -0.157980 -0.907978 0
M  V30 8 C 0.469637 -0.092731 -0.006640 0
M  V30 9 C -0.627690 0.852727 -0.052314 0
M  V30 10 N -1.381219 0.763776 -1.191469 0
M  V30 11 N -2.392289 1.621649 -1.137160 0
M  V30 12 C -2.306377 2.274688 0.034244 0
M  V30 13 N -1.229313 1.796453 0.673994 0
M  V30 14 C -0.711250 2.156885 1.925052 0
M  V30 15 C 0.630158 1.887385 1.974656 0
M  V30 16 C 1.280981 2.137964 3.165562 0
M  V30 17 C 0.518810 2.649075 4.224706 0
M  V30 18 N -0.820185 2.923842 4.179606 0
M  V30 19 C -1.415355 2.661614 2.988911 0
M  V30 20 N -2.807109 3.063478 3.037417 0
M  V30 21 C -3.485422 3.559143 1.853346 0
M  V30 22 C -4.462442 4.477249 2.224615 0
M  V30 23 C -5.184280 5.049740 1.198197 0
M  V30 24 C -4.968866 4.745630 -0.131776 0
M  V30 25 C -4.004097 3.836863 -0.513813 0
M  V30 26 C -3.277701 3.258303 0.499140 0
M  V30 27 C 0.494390 -1.083774 0.994004 0
M  V30 28 C 1.443776 -2.069298 1.158113 0
M  V30 29 C 2.176792 -6.531785 -0.957373 0
M  V30 30 C 1.690353 -6.283672 -2.341340 0
M  V30 31 C 0.462891 -7.129277 -2.088645 0
M  V30 32 C 0.919100 -7.311528 -0.659135 0
M  V30 33 H 3.771062 -4.446401 -1.330193 0
M  V30 34 H 3.601433 -3.402176 1.421234 0
M  V30 35 H 4.528443 -2.704264 0.041319 0
M  V30 36 H 3.335090 -1.137612 -1.502733 0
M  V30 37 H 1.541566 0.598286 -1.683571 0
M  V30 38 H 1.315822 1.551072 1.242135 0
M  V30 39 H 2.314294 1.986643 3.381966 0
M  V30 40 H 0.971275 2.863437 5.183064 0
M  V30 41 H -3.325382 3.012210 3.935202 0
M  V30 42 H -4.590995 4.676443 3.276310 0
M  V30 43 H -5.954296 5.771414 1.461388 0
M  V30 44 H -5.534773 5.194893 -0.936098 0
M  V30 45 H -3.737964 3.514006 -1.508024 0
M  V30 46 H -0.341085 -1.050419 1.710853 0
M  V30 47 H 1.342606 -2.766640 1.969854 0
M  V30 48 H 3.064558 -7.187773 -0.831635 0
M  V30 49 H 2.377695 -6.703739 -3.124076 0
M  V30 50 H 1.451377 -5.218792 -2.495003 0
M  V30 51 H 0.523341 -8.078052 -2.688829 0
M  V30 52 H -0.502999 -6.589837 -2.224739 0
M  V30 53 H 1.096548 -8.397135 -0.399940 0
M  V30 54 H 0.226556 -6.810508 0.065338 0
M  V30 END ATOM
M  V30 BEGIN BOND
M  V30 1 2 1 2
M  V30 2 1 2 3
M  V30 3 1 3 4
M  V30 4 1 4 5
M  V30 5 2 5 6
M  V30 6 1 6 7
M  V30 7 2 7 8
M  V30 8 1 8 9
M  V30 9 2 9 10
M  V30 10 1 10 11
M  V30 11 2 11 12
M  V30 12 1 12 13
M  V30 13 1 13 14
M  V30 14 2 14 15
M  V30 15 1 15 16
M  V30 16 2 16 17
M  V30 17 1 17 18
M  V30 18 2 18 19
M  V30 19 1 19 20
M  V30 20 1 20 21
M  V30 21 2 21 22
M  V30 22 1 22 23
M  V30 23 2 23 24
M  V30 24 1 24 25
M  V30 25 2 25 26
M  V30 26 1 8 27
M  V30 27 2 27 28
M  V30 28 1 2 29
M  V30 29 1 29 30
M  V30 30 1 30 31
M  V30 31 1 31 32
M  V30 32 1 28 5
M  V30 33 1 32 29
M  V30 34 1 13 9
M  V30 35 1 19 14
M  V30 36 1 26 21
M  V30 37 1 26 12
M  V30 38 1 3 33
M  V30 39 1 4 34
M  V30 40 1 4 35
M  V30 41 1 6 36
M  V30 42 1 7 37
M  V30 43 1 15 38
M  V30 44 1 16 39
M  V30 45 1 17 40
M  V30 46 1 20 41
M  V30 47 1 22 42
M  V30 48 1 23 43
M  V30 49 1 24 44
M  V30 50 1 25 45
M  V30 51 1 27 46
M  V30 52 1 28 47
M  V30 53 1 29 48
M  V30 54 1 30 49
M  V30 55 1 30 50
M  V30 56 1 31 51
M  V30 57 1 31 52
M  V30 58 1 32 53
M  V30 59 1 32 54
M  V30 END BOND
M  V30 END CTAB
M  END
>  <Dataset>  (135) 
ChEMBL_Kinases

>  <Ligand_Instance>  (135) 
nan

>  <PDB_ID>  (135) 
nan

>  <Standardized_SMILES>  (135) 
O=C(NCc1ccc(-c2nnc3n2-c2cccnc2Nc2ccccc2-3)cc1)C1CCC1

>  <Name>  (135) 
nan

>  <Pocket>  (135) 
nan

>  <ATP_Site>  (135) 
nan

>  <Peripheral>  (135) 
nan

>  <Num_H_Atoms_ProtBoundConf>  (135) 
nan

>  <Num_Resolved_Atoms>  (135) 
nan

>  <Num_Not_Resolved_Atoms>  (135) 
nan

$$$$
CHEMBL3684411
     RDKit          3D

  0  0  0  0  0  0  0  0  0  0999 V3000
M  V30 BEGIN CTAB
M  V30 COUNTS 55 60 0 0 0
M  V30 BEGIN ATOM
M  V30 1 O -5.930033 -3.456346 1.380164 0
M  V30 2 S -6.093231 -2.007534 0.994106 0
M  V30 3 O -6.986392 -1.280173 1.959748 0
M  V30 4 N -4.543329 -1.251665 1.051259 0
M  V30 5 C -3.563518 -1.872422 0.216518 0
M  V30 6 C -2.236651 -1.171738 0.308015 0
M  V30 7 C -1.956262 -0.151220 -0.543736 0
M  V30 8 C -0.729088 0.412506 -0.375094 0
M  V30 9 C 0.264055 0.064249 0.564569 0
M  V30 10 C 1.525512 0.762963 0.670297 0
M  V30 11 N 1.696706 1.380056 1.877703 0
M  V30 12 N 2.866787 2.045655 1.874376 0
M  V30 13 C 3.444444 1.860417 0.678041 0
M  V30 14 N 2.616804 1.081890 -0.025059 0
M  V30 15 C 2.765617 0.592925 -1.338039 0
M  V30 16 C 2.051439 -0.561259 -1.505864 0
M  V30 17 C 2.054712 -1.133156 -2.761026 0
M  V30 18 C 2.782255 -0.508154 -3.778426 0
M  V30 19 N 3.495257 0.645948 -3.590232 0
M  V30 20 C 3.479750 1.191559 -2.351541 0
M  V30 21 N 4.335525 2.353958 -2.299292 0
M  V30 22 C 5.034570 2.696777 -1.078631 0
M  V30 23 C 6.239504 3.335936 -1.394517 0
M  V30 24 C 7.036540 3.714949 -0.339305 0
M  V30 25 C 6.670402 3.478368 0.982151 0
M  V30 26 C 5.491336 2.852826 1.315870 0
M  V30 27 C 4.699784 2.477203 0.263786 0
M  V30 28 C -0.127747 -1.003666 1.397278 0
M  V30 29 C -1.358416 -1.614070 1.273143 0
M  V30 30 C -6.774643 -1.952746 -0.607151 0
M  V30 31 C -7.561764 -0.880006 -0.970532 0
M  V30 32 C -8.148879 -0.751450 -2.230418 0
M  V30 33 C -7.912526 -1.774938 -3.153980 0
M  V30 34 C -7.128000 -2.844114 -2.791759 0
M  V30 35 C -6.542194 -2.971852 -1.533894 0
M  V30 36 H -4.244301 -1.022745 2.002072 0
M  V30 37 H -3.926316 -1.877742 -0.831455 0
M  V30 38 H -3.433409 -2.950772 0.496052 0
M  V30 39 H -2.613025 0.212297 -1.298121 0
M  V30 40 H -0.408720 1.247788 -1.018080 0
M  V30 41 H 1.505361 -1.157901 -0.824762 0
M  V30 42 H 1.536024 -2.051869 -3.065250 0
M  V30 43 H 2.808698 -0.922462 -4.775497 0
M  V30 44 H 4.460496 2.934509 -3.146838 0
M  V30 45 H 6.460776 3.489903 -2.429384 0
M  V30 46 H 7.976623 4.212308 -0.549499 0
M  V30 47 H 7.304771 3.779438 1.823342 0
M  V30 48 H 5.111901 2.621691 2.298464 0
M  V30 49 H 0.608695 -1.316023 2.148138 0
M  V30 50 H -1.544851 -2.426660 1.973314 0
M  V30 51 H -7.751164 -0.074558 -0.252111 0
M  V30 52 H -8.760106 0.068619 -2.531666 0
M  V30 53 H -8.345769 -1.722531 -4.146183 0
M  V30 54 H -6.976585 -3.614087 -3.551695 0
M  V30 55 H -5.928282 -3.822001 -1.270325 0
M  V30 END ATOM
M  V30 BEGIN BOND
M  V30 1 2 1 2
M  V30 2 2 2 3
M  V30 3 1 2 4
M  V30 4 1 4 5
M  V30 5 1 5 6
M  V30 6 2 6 7
M  V30 7 1 7 8
M  V30 8 2 8 9
M  V30 9 1 9 10
M  V30 10 2 10 11
M  V30 11 1 11 12
M  V30 12 2 12 13
M  V30 13 1 13 14
M  V30 14 1 14 15
M  V30 15 2 15 16
M  V30 16 1 16 17
M  V30 17 2 17 18
M  V30 18 1 18 19
M  V30 19 2 19 20
M  V30 20 1 20 21
M  V30 21 1 21 22
M  V30 22 2 22 23
M  V30 23 1 23 24
M  V30 24 2 24 25
M  V30 25 1 25 26
M  V30 26 2 26 27
M  V30 27 1 9 28
M  V30 28 2 28 29
M  V30 29 1 2 30
M  V30 30 2 30 31
M  V30 31 1 31 32
M  V30 32 2 32 33
M  V30 33 1 33 34
M  V30 34 2 34 35
M  V30 35 1 29 6
M  V30 36 1 35 30
M  V30 37 1 14 10
M  V30 38 1 20 15
M  V30 39 1 27 22
M  V30 40 1 27 13
M  V30 41 1 4 36
M  V30 42 1 5 37
M  V30 43 1 5 38
M  V30 44 1 7 39
M  V30 45 1 8 40
M  V30 46 1 16 41
M  V30 47 1 17 42
M  V30 48 1 18 43
M  V30 49 1 21 44
M  V30 50 1 23 45
M  V30 51 1 24 46
M  V30 52 1 25 47
M  V30 53 1 26 48
M  V30 54 1 28 49
M  V30 55 1 29 50
M  V30 56 1 31 51
M  V30 57 1 32 52
M  V30 58 1 33 53
M  V30 59 1 34 54
M  V30 60 1 35 55
M  V30 END BOND
M  V30 END CTAB
M  END
>  <Dataset>  (136) 
ChEMBL_Kinases

>  <Ligand_Instance>  (136) 
nan

>  <PDB_ID>  (136) 
nan

>  <Standardized_SMILES>  (136) 
O=S(=O)(NCc1ccc(-c2nnc3n2-c2cccnc2Nc2ccccc2-3)cc1)c1ccccc1

>  <Name>  (136) 
nan

>  <Pocket>  (136) 
nan

>  <ATP_Site>  (136) 
nan

>  <Peripheral>  (136) 
nan

>  <Num_H_Atoms_ProtBoundConf>  (136) 
nan

>  <Num_Resolved_Atoms>  (136) 
nan

>  <Num_Not_Resolved_Atoms>  (136) 
nan

$$$$
CHEMBL3684412
     RDKit          3D

  0  0  0  0  0  0  0  0  0  0999 V3000
M  V30 BEGIN CTAB
M  V30 COUNTS 59 64 0 0 0
M  V30 BEGIN ATOM
M  V30 1 C 5.495887 -1.553971 7.352974 0
M  V30 2 O 5.801730 -2.157798 6.099772 0
M  V30 3 C 5.665946 -1.402889 4.942437 0
M  V30 4 C 5.975663 -2.030805 3.731193 0
M  V30 5 C 5.872407 -1.360650 2.512859 0
M  V30 6 C 5.451300 -0.030641 2.483190 0
M  V30 7 S 5.337824 0.760666 0.951041 0
M  V30 8 O 6.361921 0.250578 0.004425 0
M  V30 9 O 5.566842 2.244215 1.201709 0
M  V30 10 N 3.726451 0.502218 0.336157 0
M  V30 11 C 2.743169 1.071901 1.210003 0
M  V30 12 C 1.354798 0.866366 0.709651 0
M  V30 13 C 0.801534 1.817897 -0.120440 0
M  V30 14 C -0.469458 1.563719 -0.538224 0
M  V30 15 C -1.254390 0.443185 -0.208218 0
M  V30 16 C -2.604104 0.263938 -0.664980 0
M  V30 17 N -3.445975 1.249679 -0.239655 0
M  V30 18 N -4.691288 0.980181 -0.666269 0
M  V30 19 C -4.661386 -0.151216 -1.351196 0
M  V30 20 N -3.388859 -0.573608 -1.345783 0
M  V30 21 C -2.827987 -1.723309 -1.938681 0
M  V30 22 C -1.498828 -1.526763 -2.194982 0
M  V30 23 C -0.791364 -2.584795 -2.727095 0
M  V30 24 C -1.475910 -3.781400 -2.970625 0
M  V30 25 N -2.807838 -3.966519 -2.714200 0
M  V30 26 C -3.484940 -2.901210 -2.187102 0
M  V30 27 N -4.887591 -3.222702 -2.043131 0
M  V30 28 C -5.887569 -2.183916 -2.186652 0
M  V30 29 C -7.063561 -2.750463 -2.694964 0
M  V30 30 C -8.126373 -1.898440 -2.912684 0
M  V30 31 C -8.025522 -0.539275 -2.636829 0
M  V30 32 C -6.881158 0.042026 -2.136174 0
M  V30 33 C -5.829435 -0.808534 -1.921433 0
M  V30 34 C -0.581580 -0.429386 0.627610 0
M  V30 35 C 0.700202 -0.276677 1.112194 0
M  V30 36 C 5.146383 0.582455 3.693584 0
M  V30 37 C 5.249146 -0.083449 4.902411 0
M  V30 38 H 4.565365 -0.985660 7.296187 0
M  V30 39 H 6.298874 -0.790596 7.551434 0
M  V30 40 H 5.527920 -2.285201 8.167029 0
M  V30 41 H 6.302596 -3.061969 3.749226 0
M  V30 42 H 6.125299 -1.898615 1.612761 0
M  V30 43 H 3.666019 0.832102 -0.646200 0
M  V30 44 H 2.880860 0.626544 2.208037 0
M  V30 45 H 2.937465 2.172530 1.253522 0
M  V30 46 H 1.301892 2.719597 -0.445196 0
M  V30 47 H -0.941736 2.304142 -1.202948 0
M  V30 48 H -0.880159 -0.673866 -2.105470 0
M  V30 49 H 0.267445 -2.590701 -2.984614 0
M  V30 50 H -0.961730 -4.637325 -3.384536 0
M  V30 51 H -5.168577 -4.194776 -1.854494 0
M  V30 52 H -7.070207 -3.813477 -2.882944 0
M  V30 53 H -9.042723 -2.310193 -3.303551 0
M  V30 54 H -8.866794 0.139477 -2.808903 0
M  V30 55 H -6.704210 1.062940 -1.893109 0
M  V30 56 H -1.109596 -1.323182 0.935096 0
M  V30 57 H 1.143451 -1.016535 1.763540 0
M  V30 58 H 4.820704 1.612892 3.664193 0
M  V30 59 H 5.010623 0.396326 5.848599 0
M  V30 END ATOM
M  V30 BEGIN BOND
M  V30 1 1 1 2
M  V30 2 1 2 3
M  V30 3 2 3 4
M  V30 4 1 4 5
M  V30 5 2 5 6
M  V30 6 1 6 7
M  V30 7 2 7 8
M  V30 8 2 7 9
M  V30 9 1 7 10
M  V30 10 1 10 11
M  V30 11 1 11 12
M  V30 12 2 12 13
M  V30 13 1 13 14
M  V30 14 2 14 15
M  V30 15 1 15 16
M  V30 16 2 16 17
M  V30 17 1 17 18
M  V30 18 2 18 19
M  V30 19 1 19 20
M  V30 20 1 20 21
M  V30 21 2 21 22
M  V30 22 1 22 23
M  V30 23 2 23 24
M  V30 24 1 24 25
M  V30 25 2 25 26
M  V30 26 1 26 27
M  V30 27 1 27 28
M  V30 28 2 28 29
M  V30 29 1 29 30
M  V30 30 2 30 31
M  V30 31 1 31 32
M  V30 32 2 32 33
M  V30 33 1 15 34
M  V30 34 2 34 35
M  V30 35 1 6 36
M  V30 36 2 36 37
M  V30 37 1 37 3
M  V30 38 1 35 12
M  V30 39 1 20 16
M  V30 40 1 26 21
M  V30 41 1 33 28
M  V30 42 1 33 19
M  V30 43 1 1 38
M  V30 44 1 1 39
M  V30 45 1 1 40
M  V30 46 1 4 41
M  V30 47 1 5 42
M  V30 48 1 10 43
M  V30 49 1 11 44
M  V30 50 1 11 45
M  V30 51 1 13 46
M  V30 52 1 14 47
M  V30 53 1 22 48
M  V30 54 1 23 49
M  V30 55 1 24 50
M  V30 56 1 27 51
M  V30 57 1 29 52
M  V30 58 1 30 53
M  V30 59 1 31 54
M  V30 60 1 32 55
M  V30 61 1 34 56
M  V30 62 1 35 57
M  V30 63 1 36 58
M  V30 64 1 37 59
M  V30 END BOND
M  V30 END CTAB
M  END
>  <Dataset>  (137) 
ChEMBL_Kinases

>  <Ligand_Instance>  (137) 
nan

>  <PDB_ID>  (137) 
nan

>  <Standardized_SMILES>  (137) 
COc1ccc(S(=O)(=O)NCc2ccc(-c3nnc4n3-c3cccnc3Nc3ccccc3-4)cc2)cc1

>  <Name>  (137) 
nan

>  <Pocket>  (137) 
nan

>  <ATP_Site>  (137) 
nan

>  <Peripheral>  (137) 
nan

>  <Num_H_Atoms_ProtBoundConf>  (137) 
nan

>  <Num_Resolved_Atoms>  (137) 
nan

>  <Num_Not_Resolved_Atoms>  (137) 
nan

$$$$
CHEMBL3684413
     RDKit          3D

  0  0  0  0  0  0  0  0  0  0999 V3000
M  V30 BEGIN CTAB
M  V30 COUNTS 55 60 0 0 0
M  V30 BEGIN ATOM
M  V30 1 C 7.345645 1.313332 5.087977 0
M  V30 2 N 6.452344 1.752016 4.021535 0
M  V30 3 C 6.660706 1.526113 2.715715 0
M  V30 4 N 5.630429 2.075616 2.033378 0
M  V30 5 C 4.789030 2.639471 2.923979 0
M  V30 6 S 3.306211 3.476330 2.521560 0
M  V30 7 O 3.664660 4.704349 1.744792 0
M  V30 8 O 2.640730 3.947057 3.788718 0
M  V30 9 N 2.202720 2.479906 1.704248 0
M  V30 10 C 2.635071 1.962598 0.447448 0
M  V30 11 C 1.531306 1.126706 -0.090830 0
M  V30 12 C 1.496603 -0.215433 0.223655 0
M  V30 13 C 0.452332 -0.913463 -0.308770 0
M  V30 14 C -0.568543 -0.400781 -1.130235 0
M  V30 15 C -1.629310 -1.210311 -1.687796 0
M  V30 16 N -1.618440 -1.242131 -3.052467 0
M  V30 17 N -2.600188 -2.054209 -3.484846 0
M  V30 18 C -3.239076 -2.542454 -2.409699 0
M  V30 19 N -2.635170 -2.014401 -1.336822 0
M  V30 20 C -2.932394 -2.205598 0.027346 0
M  V30 21 C -2.509173 -1.130822 0.760267 0
M  V30 22 C -2.680195 -1.191670 2.127819 0
M  V30 23 C -3.271557 -2.333340 2.681718 0
M  V30 24 N -3.691113 -3.395715 1.925520 0
M  V30 25 C -3.513028 -3.316514 0.570724 0
M  V30 26 N -4.075596 -4.479567 -0.073766 0
M  V30 27 C -4.639156 -4.367592 -1.401890 0
M  V30 28 C -5.670890 -5.301879 -1.549222 0
M  V30 29 C -6.331559 -5.319539 -2.760445 0
M  V30 30 C -5.992867 -4.451896 -3.791269 0
M  V30 31 C -4.979248 -3.524517 -3.666639 0
M  V30 32 C -4.326319 -3.512578 -2.460629 0
M  V30 33 C -0.432568 0.976560 -1.384954 0
M  V30 34 C 0.592523 1.749420 -0.884382 0
M  V30 35 C 5.308514 2.435401 4.186313 0
M  V30 36 H 7.045109 1.772902 6.056587 0
M  V30 37 H 8.392884 1.644639 4.930693 0
M  V30 38 H 7.254740 0.212811 5.246678 0
M  V30 39 H 7.501745 0.999036 2.285353 0
M  V30 40 H 1.218881 2.732612 1.799370 0
M  V30 41 H 2.899161 2.773702 -0.290221 0
M  V30 42 H 3.516494 1.300852 0.572162 0
M  V30 43 H 2.221551 -0.724645 0.843570 0
M  V30 44 H 0.355602 -1.987327 -0.103921 0
M  V30 45 H -2.097786 -0.198903 0.478498 0
M  V30 46 H -2.402744 -0.434183 2.862605 0
M  V30 47 H -3.420873 -2.421158 3.744394 0
M  V30 48 H -4.088736 -5.386731 0.423250 0
M  V30 49 H -5.882571 -5.949016 -0.710223 0
M  V30 50 H -7.131488 -6.031539 -2.898413 0
M  V30 51 H -6.512638 -4.464176 -4.745879 0
M  V30 52 H -4.636474 -2.809423 -4.397825 0
M  V30 53 H -1.195630 1.437632 -2.018665 0
M  V30 54 H 0.632170 2.803279 -1.122933 0
M  V30 55 H 4.903249 2.748232 5.134118 0
M  V30 END ATOM
M  V30 BEGIN BOND
M  V30 1 1 1 2
M  V30 2 1 2 3
M  V30 3 2 3 4
M  V30 4 1 4 5
M  V30 5 1 5 6
M  V30 6 2 6 7
M  V30 7 2 6 8
M  V30 8 1 6 9
M  V30 9 1 9 10
M  V30 10 1 10 11
M  V30 11 2 11 12
M  V30 12 1 12 13
M  V30 13 2 13 14
M  V30 14 1 14 15
M  V30 15 2 15 16
M  V30 16 1 16 17
M  V30 17 2 17 18
M  V30 18 1 18 19
M  V30 19 1 19 20
M  V30 20 2 20 21
M  V30 21 1 21 22
M  V30 22 2 22 23
M  V30 23 1 23 24
M  V30 24 2 24 25
M  V30 25 1 25 26
M  V30 26 1 26 27
M  V30 27 2 27 28
M  V30 28 1 28 29
M  V30 29 2 29 30
M  V30 30 1 30 31
M  V30 31 2 31 32
M  V30 32 1 14 33
M  V30 33 2 33 34
M  V30 34 2 5 35
M  V30 35 1 35 2
M  V30 36 1 34 11
M  V30 37 1 19 15
M  V30 38 1 25 20
M  V30 39 1 32 27
M  V30 40 1 32 18
M  V30 41 1 1 36
M  V30 42 1 1 37
M  V30 43 1 1 38
M  V30 44 1 3 39
M  V30 45 1 9 40
M  V30 46 1 10 41
M  V30 47 1 10 42
M  V30 48 1 12 43
M  V30 49 1 13 44
M  V30 50 1 21 45
M  V30 51 1 22 46
M  V30 52 1 23 47
M  V30 53 1 26 48
M  V30 54 1 28 49
M  V30 55 1 29 50
M  V30 56 1 30 51
M  V30 57 1 31 52
M  V30 58 1 33 53
M  V30 59 1 34 54
M  V30 60 1 35 55
M  V30 END BOND
M  V30 END CTAB
M  END
>  <Dataset>  (138) 
ChEMBL_Kinases

>  <Ligand_Instance>  (138) 
nan

>  <PDB_ID>  (138) 
nan

>  <Standardized_SMILES>  (138) 
Cn1cnc(S(=O)(=O)NCc2ccc(-c3nnc4n3-c3cccnc3Nc3ccccc3-4)cc2)c1

>  <Name>  (138) 
nan

>  <Pocket>  (138) 
nan

>  <ATP_Site>  (138) 
nan

>  <Peripheral>  (138) 
nan

>  <Num_H_Atoms_ProtBoundConf>  (138) 
nan

>  <Num_Resolved_Atoms>  (138) 
nan

>  <Num_Not_Resolved_Atoms>  (138) 
nan

$$$$
CHEMBL3684414
     RDKit          3D

  0  0  0  0  0  0  0  0  0  0999 V3000
M  V30 BEGIN CTAB
M  V30 COUNTS 55 60 0 0 0
M  V30 BEGIN ATOM
M  V30 1 C 3.466586 0.398820 6.857214 0
M  V30 2 N 4.236179 1.005124 5.774573 0
M  V30 3 C 5.582149 0.887192 5.660671 0
M  V30 4 C 5.930460 1.598132 4.511399 0
M  V30 5 C 4.776224 2.128125 3.961384 0
M  V30 6 S 4.470744 3.109286 2.545876 0
M  V30 7 O 5.799821 3.269793 1.855153 0
M  V30 8 O 3.959312 4.440788 2.993907 0
M  V30 9 N 3.410299 2.308262 1.446240 0
M  V30 10 C 2.114278 2.046101 2.040970 0
M  V30 11 C 1.246652 1.351832 1.036125 0
M  V30 12 C 0.460021 2.077303 0.188058 0
M  V30 13 C -0.339460 1.442142 -0.737636 0
M  V30 14 C -0.378008 0.040404 -0.845942 0
M  V30 15 C -1.160780 -0.699560 -1.807615 0
M  V30 16 N -0.814020 -0.421521 -3.098064 0
M  V30 17 N -1.546718 -1.180707 -3.931508 0
M  V30 18 C -2.360984 -1.943932 -3.183775 0
M  V30 19 N -2.109922 -1.631085 -1.904046 0
M  V30 20 C -2.702123 -2.147147 -0.733162 0
M  V30 21 C -2.611414 -1.232703 0.281311 0
M  V30 22 C -3.100344 -1.614210 1.513952 0
M  V30 23 C -3.648705 -2.896078 1.627768 0
M  V30 24 N -3.744578 -3.809833 0.616786 0
M  V30 25 C -3.250543 -3.391817 -0.580953 0
M  V30 26 N -3.478893 -4.412097 -1.582259 0
M  V30 27 C -3.718734 -4.048571 -2.965696 0
M  V30 28 C -4.555434 -4.993154 -3.566596 0
M  V30 29 C -4.892534 -4.779012 -4.882510 0
M  V30 30 C -4.430765 -3.683981 -5.587025 0
M  V30 31 C -3.604567 -2.734881 -5.025475 0
M  V30 32 C -3.270247 -2.952088 -3.713633 0
M  V30 33 C 0.466108 -0.595963 0.070665 0
M  V30 34 C 1.283750 -0.011368 1.014351 0
M  V30 35 N 3.787228 1.724820 4.785043 0
M  V30 36 H 3.148195 -0.632588 6.559356 0
M  V30 37 H 4.057972 0.361711 7.791150 0
M  V30 38 H 2.546347 1.011226 7.035109 0
M  V30 39 H 6.301538 0.366914 6.290360 0
M  V30 40 H 6.888522 1.767009 4.048506 0
M  V30 41 H 3.355128 2.813144 0.558358 0
M  V30 42 H 1.632340 3.023842 2.242902 0
M  V30 43 H 2.175053 1.517953 2.989495 0
M  V30 44 H 0.444357 3.164055 0.220997 0
M  V30 45 H -0.984251 1.969169 -1.435955 0
M  V30 46 H -2.268002 -0.232121 0.309703 0
M  V30 47 H -3.111873 -1.035159 2.416611 0
M  V30 48 H -4.045270 -3.251830 2.567480 0
M  V30 49 H -3.488566 -5.409383 -1.314072 0
M  V30 50 H -4.874596 -5.818859 -2.963249 0
M  V30 51 H -5.538989 -5.494701 -5.372085 0
M  V30 52 H -4.698607 -3.508991 -6.639714 0
M  V30 53 H -3.189101 -1.849586 -5.480605 0
M  V30 54 H 0.452372 -1.694662 0.004197 0
M  V30 55 H 1.871474 -0.656492 1.643154 0
M  V30 END ATOM
M  V30 BEGIN BOND
M  V30 1 1 1 2
M  V30 2 1 2 3
M  V30 3 2 3 4
M  V30 4 1 4 5
M  V30 5 1 5 6
M  V30 6 2 6 7
M  V30 7 2 6 8
M  V30 8 1 6 9
M  V30 9 1 9 10
M  V30 10 1 10 11
M  V30 11 2 11 12
M  V30 12 1 12 13
M  V30 13 2 13 14
M  V30 14 1 14 15
M  V30 15 2 15 16
M  V30 16 1 16 17
M  V30 17 2 17 18
M  V30 18 1 18 19
M  V30 19 1 19 20
M  V30 20 2 20 21
M  V30 21 1 21 22
M  V30 22 2 22 23
M  V30 23 1 23 24
M  V30 24 2 24 25
M  V30 25 1 25 26
M  V30 26 1 26 27
M  V30 27 2 27 28
M  V30 28 1 28 29
M  V30 29 2 29 30
M  V30 30 1 30 31
M  V30 31 2 31 32
M  V30 32 1 14 33
M  V30 33 2 33 34
M  V30 34 2 5 35
M  V30 35 1 35 2
M  V30 36 1 34 11
M  V30 37 1 19 15
M  V30 38 1 25 20
M  V30 39 1 32 27
M  V30 40 1 32 18
M  V30 41 1 1 36
M  V30 42 1 1 37
M  V30 43 1 1 38
M  V30 44 1 3 39
M  V30 45 1 4 40
M  V30 46 1 9 41
M  V30 47 1 10 42
M  V30 48 1 10 43
M  V30 49 1 12 44
M  V30 50 1 13 45
M  V30 51 1 21 46
M  V30 52 1 22 47
M  V30 53 1 23 48
M  V30 54 1 26 49
M  V30 55 1 28 50
M  V30 56 1 29 51
M  V30 57 1 30 52
M  V30 58 1 31 53
M  V30 59 1 33 54
M  V30 60 1 34 55
M  V30 END BOND
M  V30 END CTAB
M  END
>  <Dataset>  (139) 
ChEMBL_Kinases

>  <Ligand_Instance>  (139) 
nan

>  <PDB_ID>  (139) 
nan

>  <Standardized_SMILES>  (139) 
Cn1ccc(S(=O)(=O)NCc2ccc(-c3nnc4n3-c3cccnc3Nc3ccccc3-4)cc2)n1

>  <Name>  (139) 
nan

>  <Pocket>  (139) 
nan

>  <ATP_Site>  (139) 
nan

>  <Peripheral>  (139) 
nan

>  <Num_H_Atoms_ProtBoundConf>  (139) 
nan

>  <Num_Resolved_Atoms>  (139) 
nan

>  <Num_Not_Resolved_Atoms>  (139) 
nan

$$$$
CHEMBL3684424
     RDKit          3D

  0  0  0  0  0  0  0  0  0  0999 V3000
M  V30 BEGIN CTAB
M  V30 COUNTS 59 64 0 0 0
M  V30 BEGIN ATOM
M  V30 1 C 7.830739 -3.371354 3.176521 0
M  V30 2 O 7.338073 -2.235560 2.510239 0
M  V30 3 C 6.513184 -1.290777 3.094989 0
M  V30 4 C 5.988579 -1.194402 4.362904 0
M  V30 5 C 5.185584 -0.158661 4.726115 0
M  V30 6 C 4.873456 0.832101 3.822793 0
M  V30 7 C 5.375556 0.778891 2.539962 0
M  V30 8 S 4.949346 2.065796 1.422829 0
M  V30 9 O 4.665608 3.307980 2.193940 0
M  V30 10 O 6.046866 2.348752 0.442994 0
M  V30 11 N 3.499394 1.636795 0.585555 0
M  V30 12 C 2.388159 1.470463 1.471379 0
M  V30 13 C 1.169964 1.102467 0.699122 0
M  V30 14 C 0.326548 2.075686 0.210107 0
M  V30 15 C -0.802923 1.736533 -0.503564 0
M  V30 16 C -1.132659 0.392853 -0.756403 0
M  V30 17 C -2.273035 -0.061082 -1.518671 0
M  V30 18 N -2.252983 0.366518 -2.815610 0
M  V30 19 N -3.314494 -0.136231 -3.468544 0
M  V30 20 C -4.015481 -0.883306 -2.600964 0
M  V30 21 N -3.366552 -0.818243 -1.429525 0
M  V30 22 C -3.696208 -1.423262 -0.199306 0
M  V30 23 C -3.163587 -0.707474 0.837714 0
M  V30 24 C -3.352135 -1.201111 2.112640 0
M  V30 25 C -4.075057 -2.393538 2.247313 0
M  V30 26 N -4.608987 -3.103296 1.207355 0
M  V30 27 C -4.403805 -2.587732 -0.030686 0
M  V30 28 N -5.084326 -3.395056 -1.020411 0
M  V30 29 C -5.620850 -2.779681 -2.218273 0
M  V30 30 C -6.750484 -3.482789 -2.646272 0
M  V30 31 C -7.398171 -3.017626 -3.770132 0
M  V30 32 C -6.956882 -1.891927 -4.464150 0
M  V30 33 C -5.844780 -1.183820 -4.060194 0
M  V30 34 C -5.205962 -1.653929 -2.941240 0
M  V30 35 C -0.208741 -0.518824 -0.215315 0
M  V30 36 C 0.930543 -0.239012 0.502361 0
M  V30 37 C 6.194980 -0.285002 2.181516 0
M  V30 38 H 7.750153 -3.230592 4.270078 0
M  V30 39 H 8.892764 -3.585845 2.914720 0
M  V30 40 H 7.271540 -4.284617 2.883020 0
M  V30 41 H 6.290460 -2.015070 4.990864 0
M  V30 42 H 4.839906 -0.202851 5.752881 0
M  V30 43 H 4.223752 1.642176 4.166632 0
M  V30 44 H 3.320507 2.245292 -0.223572 0
M  V30 45 H 2.663773 0.685091 2.210644 0
M  V30 46 H 2.267754 2.416613 2.040709 0
M  V30 47 H 0.570679 3.112992 0.398871 0
M  V30 48 H -1.479435 2.463857 -0.897752 0
M  V30 49 H -2.648031 0.215293 0.871031 0
M  V30 50 H -2.996233 -0.761383 3.045734 0
M  V30 51 H -4.253870 -2.830702 3.219810 0
M  V30 52 H -5.203040 -4.397632 -0.871165 0
M  V30 53 H -7.041057 -4.348087 -2.067796 0
M  V30 54 H -8.274107 -3.548740 -4.116285 0
M  V30 55 H -7.466176 -1.526870 -5.346657 0
M  V30 56 H -5.416581 -0.305623 -4.518049 0
M  V30 57 H -0.452246 -1.573736 -0.404425 0
M  V30 58 H 1.533393 -1.066769 0.847194 0
M  V30 59 H 6.526485 -0.218875 1.153970 0
M  V30 END ATOM
M  V30 BEGIN BOND
M  V30 1 1 1 2
M  V30 2 1 2 3
M  V30 3 2 3 4
M  V30 4 1 4 5
M  V30 5 2 5 6
M  V30 6 1 6 7
M  V30 7 1 7 8
M  V30 8 2 8 9
M  V30 9 2 8 10
M  V30 10 1 8 11
M  V30 11 1 11 12
M  V30 12 1 12 13
M  V30 13 2 13 14
M  V30 14 1 14 15
M  V30 15 2 15 16
M  V30 16 1 16 17
M  V30 17 2 17 18
M  V30 18 1 18 19
M  V30 19 2 19 20
M  V30 20 1 20 21
M  V30 21 1 21 22
M  V30 22 2 22 23
M  V30 23 1 23 24
M  V30 24 2 24 25
M  V30 25 1 25 26
M  V30 26 2 26 27
M  V30 27 1 27 28
M  V30 28 1 28 29
M  V30 29 2 29 30
M  V30 30 1 30 31
M  V30 31 2 31 32
M  V30 32 1 32 33
M  V30 33 2 33 34
M  V30 34 1 16 35
M  V30 35 2 35 36
M  V30 36 2 7 37
M  V30 37 1 37 3
M  V30 38 1 36 13
M  V30 39 1 21 17
M  V30 40 1 27 22
M  V30 41 1 34 29
M  V30 42 1 34 20
M  V30 43 1 1 38
M  V30 44 1 1 39
M  V30 45 1 1 40
M  V30 46 1 4 41
M  V30 47 1 5 42
M  V30 48 1 6 43
M  V30 49 1 11 44
M  V30 50 1 12 45
M  V30 51 1 12 46
M  V30 52 1 14 47
M  V30 53 1 15 48
M  V30 54 1 23 49
M  V30 55 1 24 50
M  V30 56 1 25 51
M  V30 57 1 28 52
M  V30 58 1 30 53
M  V30 59 1 31 54
M  V30 60 1 32 55
M  V30 61 1 33 56
M  V30 62 1 35 57
M  V30 63 1 36 58
M  V30 64 1 37 59
M  V30 END BOND
M  V30 END CTAB
M  END
>  <Dataset>  (140) 
ChEMBL_Kinases

>  <Ligand_Instance>  (140) 
nan

>  <PDB_ID>  (140) 
nan

>  <Standardized_SMILES>  (140) 
COc1cccc(S(=O)(=O)NCc2ccc(-c3nnc4n3-c3cccnc3Nc3ccccc3-4)cc2)c1

>  <Name>  (140) 
nan

>  <Pocket>  (140) 
nan

>  <ATP_Site>  (140) 
nan

>  <Peripheral>  (140) 
nan

>  <Num_H_Atoms_ProtBoundConf>  (140) 
nan

>  <Num_Resolved_Atoms>  (140) 
nan

>  <Num_Not_Resolved_Atoms>  (140) 
nan

$$$$
CHEMBL3684416
     RDKit          3D

  0  0  0  0  0  0  0  0  0  0999 V3000
M  V30 BEGIN CTAB
M  V30 COUNTS 52 57 0 0 0
M  V30 BEGIN ATOM
M  V30 1 O 3.074120 -4.738127 2.336526 0
M  V30 2 S 3.703597 -4.702191 0.977934 0
M  V30 3 O 5.050693 -5.343595 1.013207 0
M  V30 4 N 3.826197 -3.060327 0.459686 0
M  V30 5 C 2.698978 -2.202159 0.393263 0
M  V30 6 C 2.590859 -1.439424 -0.750261 0
M  V30 7 C 1.519570 -0.593119 -0.865417 0
M  V30 8 C 0.524250 -0.459383 0.118174 0
M  V30 9 C -0.629116 0.405180 -0.004338 0
M  V30 10 N -1.433467 0.084650 -1.062351 0
M  V30 11 N -2.497553 0.887448 -1.083875 0
M  V30 12 C -2.394414 1.731571 -0.045806 0
M  V30 13 N -1.254306 1.422421 0.590194 0
M  V30 14 C -0.684226 2.013732 1.737764 0
M  V30 15 C 0.670985 1.826865 1.739494 0
M  V30 16 C 1.355775 2.308025 2.836322 0
M  V30 17 C 0.637351 2.937532 3.839982 0
M  V30 18 N -0.716105 3.128755 3.838194 0
M  V30 19 C -1.363178 2.646728 2.749528 0
M  V30 20 N -2.771225 2.977722 2.829424 0
M  V30 21 C -3.535556 3.231378 1.622642 0
M  V30 22 C -4.552046 4.154068 1.891868 0
M  V30 23 C -5.363718 4.518128 0.838775 0
M  V30 24 C -5.192373 3.998745 -0.444201 0
M  V30 25 C -4.197712 3.088557 -0.729487 0
M  V30 26 C -3.392695 2.728853 0.322142 0
M  V30 27 C 0.732329 -1.281802 1.240163 0
M  V30 28 C 1.784495 -2.152029 1.418471 0
M  V30 29 C 2.643061 -5.599332 -0.117379 0
M  V30 30 C 3.198921 -6.226694 -1.219665 0
M  V30 31 C 2.418175 -6.937708 -2.103233 0
M  V30 32 C 1.051872 -7.023906 -1.880707 0
M  V30 33 C 0.501513 -6.406641 -0.795269 0
M  V30 34 C 1.281613 -5.690094 0.096919 0
M  V30 35 H 4.774143 -2.677611 0.181097 0
M  V30 36 H 3.296159 -1.459783 -1.571548 0
M  V30 37 H 1.344045 0.052015 -1.730722 0
M  V30 38 H 1.332124 1.411715 1.025257 0
M  V30 39 H 2.419471 2.247225 3.005053 0
M  V30 40 H 1.126735 3.330158 4.720770 0
M  V30 41 H -3.230094 3.050189 3.737088 0
M  V30 42 H -4.632523 4.514379 2.900882 0
M  V30 43 H -6.154738 5.230796 1.029782 0
M  V30 44 H -5.831797 4.287708 -1.268565 0
M  V30 45 H -3.975612 2.625443 -1.674882 0
M  V30 46 H -0.026675 -1.206874 2.035349 0
M  V30 47 H 1.864923 -2.742174 2.307644 0
M  V30 48 H 4.252019 -6.190118 -1.436791 0
M  V30 49 H 2.795715 -7.453287 -2.988564 0
M  V30 50 H 0.362536 -7.552565 -2.509453 0
M  V30 51 H -0.553995 -6.427825 -0.554008 0
M  V30 52 H 0.915240 -5.169761 0.986614 0
M  V30 END ATOM
M  V30 BEGIN BOND
M  V30 1 2 1 2
M  V30 2 2 2 3
M  V30 3 1 2 4
M  V30 4 1 4 5
M  V30 5 2 5 6
M  V30 6 1 6 7
M  V30 7 2 7 8
M  V30 8 1 8 9
M  V30 9 2 9 10
M  V30 10 1 10 11
M  V30 11 2 11 12
M  V30 12 1 12 13
M  V30 13 1 13 14
M  V30 14 2 14 15
M  V30 15 1 15 16
M  V30 16 2 16 17
M  V30 17 1 17 18
M  V30 18 2 18 19
M  V30 19 1 19 20
M  V30 20 1 20 21
M  V30 21 2 21 22
M  V30 22 1 22 23
M  V30 23 2 23 24
M  V30 24 1 24 25
M  V30 25 2 25 26
M  V30 26 1 8 27
M  V30 27 2 27 28
M  V30 28 1 2 29
M  V30 29 2 29 30
M  V30 30 1 30 31
M  V30 31 2 31 32
M  V30 32 1 32 33
M  V30 33 2 33 34
M  V30 34 1 28 5
M  V30 35 1 34 29
M  V30 36 1 13 9
M  V30 37 1 19 14
M  V30 38 1 26 21
M  V30 39 1 26 12
M  V30 40 1 4 35
M  V30 41 1 6 36
M  V30 42 1 7 37
M  V30 43 1 15 38
M  V30 44 1 16 39
M  V30 45 1 17 40
M  V30 46 1 20 41
M  V30 47 1 22 42
M  V30 48 1 23 43
M  V30 49 1 24 44
M  V30 50 1 25 45
M  V30 51 1 27 46
M  V30 52 1 28 47
M  V30 53 1 30 48
M  V30 54 1 31 49
M  V30 55 1 32 50
M  V30 56 1 33 51
M  V30 57 1 34 52
M  V30 END BOND
M  V30 END CTAB
M  END
>  <Dataset>  (141) 
ChEMBL_Kinases

>  <Ligand_Instance>  (141) 
nan

>  <PDB_ID>  (141) 
nan

>  <Standardized_SMILES>  (141) 
O=S(=O)(Nc1ccc(-c2nnc3n2-c2cccnc2Nc2ccccc2-3)cc1)c1ccccc1

>  <Name>  (141) 
nan

>  <Pocket>  (141) 
nan

>  <ATP_Site>  (141) 
nan

>  <Peripheral>  (141) 
nan

>  <Num_H_Atoms_ProtBoundConf>  (141) 
nan

>  <Num_Resolved_Atoms>  (141) 
nan

>  <Num_Not_Resolved_Atoms>  (141) 
nan

$$$$
CHEMBL3684417
     RDKit          3D

  0  0  0  0  0  0  0  0  0  0999 V3000
M  V30 BEGIN CTAB
M  V30 COUNTS 56 61 0 0 0
M  V30 BEGIN ATOM
M  V30 1 O 1.607428 -3.255437 -1.135935 0
M  V30 2 C 2.493487 -4.121879 -1.315784 0
M  V30 3 N 3.712103 -3.902923 -0.636110 0
M  V30 4 C 3.948411 -2.773517 0.210020 0
M  V30 5 C 2.821813 -1.842350 0.326771 0
M  V30 6 C 1.893852 -2.041898 1.326900 0
M  V30 7 C 0.864115 -1.127147 1.375076 0
M  V30 8 C 0.685036 -0.032170 0.508968 0
M  V30 9 C -0.451635 0.854229 0.622270 0
M  V30 10 N -1.257105 0.838449 -0.479999 0
M  V30 11 N -2.309801 1.641374 -0.281087 0
M  V30 12 C -2.188933 2.176236 0.944804 0
M  V30 13 N -1.056297 1.687551 1.468851 0
M  V30 14 C -0.480965 1.946032 2.730027 0
M  V30 15 C 0.870730 1.737038 2.679514 0
M  V30 16 C 1.574665 1.896611 3.855285 0
M  V30 17 C 0.863084 2.260202 5.005945 0
M  V30 18 N -0.483509 2.469056 5.040543 0
M  V30 19 C -1.148666 2.303976 3.865142 0
M  V30 20 N -2.546600 2.631048 4.038619 0
M  V30 21 C -3.308210 3.206418 2.948269 0
M  V30 22 C -4.305850 4.039504 3.459208 0
M  V30 23 C -5.114368 4.681713 2.544825 0
M  V30 24 C -4.946044 4.509533 1.186680 0
M  V30 25 C -3.975548 3.697330 0.650851 0
M  V30 26 C -3.172792 3.059027 1.561445 0
M  V30 27 C 1.684907 0.082455 -0.474928 0
M  V30 28 C 2.738613 -0.800999 -0.573347 0
M  V30 29 N 2.217654 -5.224634 -2.161773 0
M  V30 30 C 1.045566 -5.525150 -2.874590 0
M  V30 31 C 1.020956 -6.671011 -3.638429 0
M  V30 32 C -0.071213 -7.054122 -4.370388 0
M  V30 33 C -1.221614 -6.303417 -4.382847 0
M  V30 34 C -1.233499 -5.157203 -3.634822 0
M  V30 35 C -0.110957 -4.810547 -2.913465 0
M  V30 36 H 4.481300 -4.593496 -0.751765 0
M  V30 37 H 4.187186 -3.176462 1.223147 0
M  V30 38 H 4.864710 -2.242463 -0.111939 0
M  V30 39 H 1.913715 -2.840388 2.055587 0
M  V30 40 H 0.103549 -1.254112 2.160599 0
M  V30 41 H 1.527791 1.510027 1.882277 0
M  V30 42 H 2.642318 1.772058 4.004927 0
M  V30 43 H 1.341059 2.398897 5.948990 0
M  V30 44 H -3.006240 2.468927 4.953120 0
M  V30 45 H -4.380680 4.124797 4.534154 0
M  V30 46 H -5.889690 5.328665 2.920007 0
M  V30 47 H -5.588165 5.020055 0.455722 0
M  V30 48 H -3.759876 3.493567 -0.386486 0
M  V30 49 H 1.543516 0.920839 -1.134394 0
M  V30 50 H 3.463429 -0.647972 -1.351900 0
M  V30 51 H 3.042780 -5.860872 -2.217122 0
M  V30 52 H 1.911778 -7.312180 -3.668116 0
M  V30 53 H -0.007874 -7.967333 -4.942669 0
M  V30 54 H -2.102618 -6.572631 -4.947114 0
M  V30 55 H -2.128716 -4.545703 -3.626564 0
M  V30 56 H -0.194582 -3.903459 -2.354128 0
M  V30 END ATOM
M  V30 BEGIN BOND
M  V30 1 2 1 2
M  V30 2 1 2 3
M  V30 3 1 3 4
M  V30 4 1 4 5
M  V30 5 2 5 6
M  V30 6 1 6 7
M  V30 7 2 7 8
M  V30 8 1 8 9
M  V30 9 2 9 10
M  V30 10 1 10 11
M  V30 11 2 11 12
M  V30 12 1 12 13
M  V30 13 1 13 14
M  V30 14 2 14 15
M  V30 15 1 15 16
M  V30 16 2 16 17
M  V30 17 1 17 18
M  V30 18 2 18 19
M  V30 19 1 19 20
M  V30 20 1 20 21
M  V30 21 2 21 22
M  V30 22 1 22 23
M  V30 23 2 23 24
M  V30 24 1 24 25
M  V30 25 2 25 26
M  V30 26 1 8 27
M  V30 27 2 27 28
M  V30 28 1 2 29
M  V30 29 1 29 30
M  V30 30 2 30 31
M  V30 31 1 31 32
M  V30 32 2 32 33
M  V30 33 1 33 34
M  V30 34 2 34 35
M  V30 35 1 28 5
M  V30 36 1 35 30
M  V30 37 1 13 9
M  V30 38 1 19 14
M  V30 39 1 26 21
M  V30 40 1 26 12
M  V30 41 1 3 36
M  V30 42 1 4 37
M  V30 43 1 4 38
M  V30 44 1 6 39
M  V30 45 1 7 40
M  V30 46 1 15 41
M  V30 47 1 16 42
M  V30 48 1 17 43
M  V30 49 1 20 44
M  V30 50 1 22 45
M  V30 51 1 23 46
M  V30 52 1 24 47
M  V30 53 1 25 48
M  V30 54 1 27 49
M  V30 55 1 28 50
M  V30 56 1 29 51
M  V30 57 1 31 52
M  V30 58 1 32 53
M  V30 59 1 33 54
M  V30 60 1 34 55
M  V30 61 1 35 56
M  V30 END BOND
M  V30 END CTAB
M  END
>  <Dataset>  (142) 
ChEMBL_Kinases

>  <Ligand_Instance>  (142) 
nan

>  <PDB_ID>  (142) 
nan

>  <Standardized_SMILES>  (142) 
O=C(NCc1ccc(-c2nnc3n2-c2cccnc2Nc2ccccc2-3)cc1)Nc1ccccc1

>  <Name>  (142) 
nan

>  <Pocket>  (142) 
nan

>  <ATP_Site>  (142) 
nan

>  <Peripheral>  (142) 
nan

>  <Num_H_Atoms_ProtBoundConf>  (142) 
nan

>  <Num_Resolved_Atoms>  (142) 
nan

>  <Num_Not_Resolved_Atoms>  (142) 
nan

$$$$
CHEMBL3684418
     RDKit          3D

  0  0  0  0  0  0  0  0  0  0999 V3000
M  V30 BEGIN CTAB
M  V30 COUNTS 58 63 0 0 0
M  V30 BEGIN ATOM
M  V30 1 O 6.826398 -1.703216 0.722865 0
M  V30 2 S 6.594721 -1.496834 -0.742792 0
M  V30 3 O 7.954280 -1.214650 -1.348412 0
M  V30 4 N 5.593202 -0.094605 -0.981624 0
M  V30 5 C 4.319881 -0.279272 -0.359906 0
M  V30 6 C 3.387554 0.927605 -0.535947 0
M  V30 7 C 2.076543 0.650779 0.144987 0
M  V30 8 C 1.875563 0.989822 1.466704 0
M  V30 9 C 0.663547 0.726689 2.073057 0
M  V30 10 C -0.393315 0.112651 1.374444 0
M  V30 11 C -1.677757 -0.225907 1.946694 0
M  V30 12 N -1.606751 -1.122002 2.978079 0
M  V30 13 N -2.822279 -1.419332 3.414984 0
M  V30 14 C -3.698420 -0.725448 2.678847 0
M  V30 15 N -2.985346 -0.007082 1.798511 0
M  V30 16 C -3.439128 0.887031 0.809828 0
M  V30 17 C -2.464485 1.803487 0.522414 0
M  V30 18 C -2.733981 2.722652 -0.470347 0
M  V30 19 C -3.977585 2.660091 -1.112095 0
M  V30 20 N -4.939861 1.737500 -0.806191 0
M  V30 21 C -4.651135 0.845360 0.172905 0
M  V30 22 N -5.790964 -0.008065 0.427827 0
M  V30 23 C -6.033538 -0.518681 1.763434 0
M  V30 24 C -7.411784 -0.683903 1.951192 0
M  V30 25 C -7.825945 -1.149442 3.181380 0
M  V30 26 C -6.914087 -1.441841 4.190710 0
M  V30 27 C -5.558655 -1.288226 4.029131 0
M  V30 28 C -5.147886 -0.826105 2.806180 0
M  V30 29 C -0.083958 -0.191309 0.035466 0
M  V30 30 C 1.104036 0.046182 -0.624015 0
M  V30 31 C 5.865937 -2.905577 -1.471538 0
M  V30 32 C 5.019887 -3.613369 -0.618329 0
M  V30 33 C 4.359150 -4.751426 -1.024061 0
M  V30 34 C 4.529778 -5.216762 -2.309914 0
M  V30 35 C 5.374593 -4.512817 -3.167033 0
M  V30 36 C 6.026779 -3.376519 -2.742811 0
M  V30 37 H 6.079421 0.723843 -0.589772 0
M  V30 38 H 4.400106 -0.540979 0.724939 0
M  V30 39 H 3.788915 -1.135888 -0.831905 0
M  V30 40 H 3.931458 1.764565 -0.089174 0
M  V30 41 H 3.253474 1.086401 -1.610598 0
M  V30 42 H 2.669180 1.462671 2.028786 0
M  V30 43 H 0.444629 0.968460 3.105836 0
M  V30 44 H -1.517142 1.991928 0.952492 0
M  V30 45 H -2.093413 3.532554 -0.851563 0
M  V30 46 H -4.261177 3.328209 -1.885935 0
M  V30 47 H -6.433814 -0.236479 -0.334479 0
M  V30 48 H -8.061781 -0.439694 1.123374 0
M  V30 49 H -8.878959 -1.285535 3.352798 0
M  V30 50 H -7.240164 -1.809895 5.165009 0
M  V30 51 H -4.773142 -1.482859 4.735285 0
M  V30 52 H -0.903162 -0.672276 -0.521904 0
M  V30 53 H 1.174737 -0.250914 -1.656354 0
M  V30 54 H 4.817796 -3.327170 0.419300 0
M  V30 55 H 3.703502 -5.306319 -0.374583 0
M  V30 56 H 4.010171 -6.110738 -2.627177 0
M  V30 57 H 5.525433 -4.851830 -4.171231 0
M  V30 58 H 6.693546 -2.783366 -3.350505 0
M  V30 END ATOM
M  V30 BEGIN BOND
M  V30 1 2 1 2
M  V30 2 2 2 3
M  V30 3 1 2 4
M  V30 4 1 4 5
M  V30 5 1 5 6
M  V30 6 1 6 7
M  V30 7 2 7 8
M  V30 8 1 8 9
M  V30 9 2 9 10
M  V30 10 1 10 11
M  V30 11 2 11 12
M  V30 12 1 12 13
M  V30 13 2 13 14
M  V30 14 1 14 15
M  V30 15 1 15 16
M  V30 16 2 16 17
M  V30 17 1 17 18
M  V30 18 2 18 19
M  V30 19 1 19 20
M  V30 20 2 20 21
M  V30 21 1 21 22
M  V30 22 1 22 23
M  V30 23 2 23 24
M  V30 24 1 24 25
M  V30 25 2 25 26
M  V30 26 1 26 27
M  V30 27 2 27 28
M  V30 28 1 10 29
M  V30 29 2 29 30
M  V30 30 1 2 31
M  V30 31 2 31 32
M  V30 32 1 32 33
M  V30 33 2 33 34
M  V30 34 1 34 35
M  V30 35 2 35 36
M  V30 36 1 30 7
M  V30 37 1 36 31
M  V30 38 1 15 11
M  V30 39 1 21 16
M  V30 40 1 28 23
M  V30 41 1 28 14
M  V30 42 1 4 37
M  V30 43 1 5 38
M  V30 44 1 5 39
M  V30 45 1 6 40
M  V30 46 1 6 41
M  V30 47 1 8 42
M  V30 48 1 9 43
M  V30 49 1 17 44
M  V30 50 1 18 45
M  V30 51 1 19 46
M  V30 52 1 22 47
M  V30 53 1 24 48
M  V30 54 1 25 49
M  V30 55 1 26 50
M  V30 56 1 27 51
M  V30 57 1 29 52
M  V30 58 1 30 53
M  V30 59 1 32 54
M  V30 60 1 33 55
M  V30 61 1 34 56
M  V30 62 1 35 57
M  V30 63 1 36 58
M  V30 END BOND
M  V30 END CTAB
M  END
>  <Dataset>  (143) 
ChEMBL_Kinases

>  <Ligand_Instance>  (143) 
nan

>  <PDB_ID>  (143) 
nan

>  <Standardized_SMILES>  (143) 
O=S(=O)(NCCc1ccc(-c2nnc3n2-c2cccnc2Nc2ccccc2-3)cc1)c1ccccc1

>  <Name>  (143) 
nan

>  <Pocket>  (143) 
nan

>  <ATP_Site>  (143) 
nan

>  <Peripheral>  (143) 
nan

>  <Num_H_Atoms_ProtBoundConf>  (143) 
nan

>  <Num_Resolved_Atoms>  (143) 
nan

>  <Num_Not_Resolved_Atoms>  (143) 
nan

$$$$
CHEMBL3684419
     RDKit          3D

  0  0  0  0  0  0  0  0  0  0999 V3000
M  V30 BEGIN CTAB
M  V30 COUNTS 62 67 0 0 0
M  V30 BEGIN ATOM
M  V30 1 C 1.713385 -2.097950 6.523041 0
M  V30 2 O 2.396356 -0.898215 6.246997 0
M  V30 3 C 2.929076 -0.644643 4.998125 0
M  V30 4 C 2.858000 -1.501112 3.918472 0
M  V30 5 C 3.414248 -1.184610 2.692821 0
M  V30 6 C 4.071445 0.021357 2.505239 0
M  V30 7 S 4.797989 0.487806 0.985259 0
M  V30 8 O 5.918047 1.444308 1.259241 0
M  V30 9 O 5.322422 -0.706328 0.247681 0
M  V30 10 N 3.614824 1.333752 0.042165 0
M  V30 11 C 3.198107 2.521691 0.724859 0
M  V30 12 C 2.161495 3.302542 -0.056192 0
M  V30 13 C 0.946134 2.483815 -0.293035 0
M  V30 14 C -0.072226 2.520857 0.633747 0
M  V30 15 C -1.205323 1.764278 0.423300 0
M  V30 16 C -1.362712 0.948174 -0.712463 0
M  V30 17 C -2.539264 0.160888 -1.000613 0
M  V30 18 N -3.665272 0.919475 -1.144888 0
M  V30 19 N -4.702817 0.132111 -1.458065 0
M  V30 20 C -4.255574 -1.127606 -1.517189 0
M  V30 21 N -2.946444 -1.086837 -1.234064 0
M  V30 22 C -2.015424 -2.144039 -1.161314 0
M  V30 23 C -0.981040 -1.806391 -0.331223 0
M  V30 24 C 0.042978 -2.722925 -0.200581 0
M  V30 25 C -0.072332 -3.914653 -0.927460 0
M  V30 26 N -1.099105 -4.267568 -1.755984 0
M  V30 27 C -2.071808 -3.338671 -1.847840 0
M  V30 28 N -3.146930 -3.837251 -2.683163 0
M  V30 29 C -4.524214 -3.455342 -2.434552 0
M  V30 30 C -5.381699 -4.493021 -2.808143 0
M  V30 31 C -6.730995 -4.294179 -2.617490 0
M  V30 32 C -7.232729 -3.114025 -2.076517 0
M  V30 33 C -6.408380 -2.074926 -1.700467 0
M  V30 34 C -5.065598 -2.280690 -1.894145 0
M  V30 35 C -0.263554 0.987935 -1.588713 0
M  V30 36 C 0.893901 1.720094 -1.437086 0
M  V30 37 C 4.163455 0.908085 3.566611 0
M  V30 38 C 3.592774 0.551187 4.775285 0
M  V30 39 H 1.510563 -2.150489 7.608830 0
M  V30 40 H 2.346530 -2.963752 6.268552 0
M  V30 41 H 0.792455 -2.094991 5.911342 0
M  V30 42 H 2.335193 -2.448695 4.085476 0
M  V30 43 H 3.341738 -1.877798 1.865023 0
M  V30 44 H 4.025372 1.606208 -0.874855 0
M  V30 45 H 2.739516 2.271740 1.712695 0
M  V30 46 H 4.088491 3.162766 0.883525 0
M  V30 47 H 1.954531 4.239352 0.482146 0
M  V30 48 H 2.654258 3.570137 -1.028873 0
M  V30 49 H -0.024994 3.114770 1.517766 0
M  V30 50 H -2.049043 1.740475 1.106296 0
M  V30 51 H -0.816272 -0.968449 0.293149 0
M  V30 52 H 0.947152 -2.634350 0.408544 0
M  V30 53 H 0.720048 -4.669470 -0.854247 0
M  V30 54 H -2.942559 -4.482581 -3.453873 0
M  V30 55 H -4.928087 -5.379839 -3.223153 0
M  V30 56 H -7.404290 -5.091160 -2.903213 0
M  V30 57 H -8.297825 -2.961237 -1.927262 0
M  V30 58 H -6.685419 -1.129667 -1.277665 0
M  V30 59 H -0.375000 0.359414 -2.471845 0
M  V30 60 H 1.652318 1.651315 -2.191444 0
M  V30 61 H 4.660869 1.850492 3.469481 0
M  V30 62 H 3.662076 1.246197 5.615657 0
M  V30 END ATOM
M  V30 BEGIN BOND
M  V30 1 1 1 2
M  V30 2 1 2 3
M  V30 3 2 3 4
M  V30 4 1 4 5
M  V30 5 2 5 6
M  V30 6 1 6 7
M  V30 7 2 7 8
M  V30 8 2 7 9
M  V30 9 1 7 10
M  V30 10 1 10 11
M  V30 11 1 11 12
M  V30 12 1 12 13
M  V30 13 2 13 14
M  V30 14 1 14 15
M  V30 15 2 15 16
M  V30 16 1 16 17
M  V30 17 2 17 18
M  V30 18 1 18 19
M  V30 19 2 19 20
M  V30 20 1 20 21
M  V30 21 1 21 22
M  V30 22 2 22 23
M  V30 23 1 23 24
M  V30 24 2 24 25
M  V30 25 1 25 26
M  V30 26 2 26 27
M  V30 27 1 27 28
M  V30 28 1 28 29
M  V30 29 2 29 30
M  V30 30 1 30 31
M  V30 31 2 31 32
M  V30 32 1 32 33
M  V30 33 2 33 34
M  V30 34 1 16 35
M  V30 35 2 35 36
M  V30 36 1 6 37
M  V30 37 2 37 38
M  V30 38 1 38 3
M  V30 39 1 36 13
M  V30 40 1 21 17
M  V30 41 1 27 22
M  V30 42 1 34 29
M  V30 43 1 34 20
M  V30 44 1 1 39
M  V30 45 1 1 40
M  V30 46 1 1 41
M  V30 47 1 4 42
M  V30 48 1 5 43
M  V30 49 1 10 44
M  V30 50 1 11 45
M  V30 51 1 11 46
M  V30 52 1 12 47
M  V30 53 1 12 48
M  V30 54 1 14 49
M  V30 55 1 15 50
M  V30 56 1 23 51
M  V30 57 1 24 52
M  V30 58 1 25 53
M  V30 59 1 28 54
M  V30 60 1 30 55
M  V30 61 1 31 56
M  V30 62 1 32 57
M  V30 63 1 33 58
M  V30 64 1 35 59
M  V30 65 1 36 60
M  V30 66 1 37 61
M  V30 67 1 38 62
M  V30 END BOND
M  V30 END CTAB
M  END
>  <Dataset>  (144) 
ChEMBL_Kinases

>  <Ligand_Instance>  (144) 
nan

>  <PDB_ID>  (144) 
nan

>  <Standardized_SMILES>  (144) 
COc1ccc(S(=O)(=O)NCCc2ccc(-c3nnc4n3-c3cccnc3Nc3ccccc3-4)cc2)cc1

>  <Name>  (144) 
nan

>  <Pocket>  (144) 
nan

>  <ATP_Site>  (144) 
nan

>  <Peripheral>  (144) 
nan

>  <Num_H_Atoms_ProtBoundConf>  (144) 
nan

>  <Num_Resolved_Atoms>  (144) 
nan

>  <Num_Not_Resolved_Atoms>  (144) 
nan

$$$$
CHEMBL3684420
     RDKit          3D

  0  0  0  0  0  0  0  0  0  0999 V3000
M  V30 BEGIN CTAB
M  V30 COUNTS 59 64 0 0 0
M  V30 BEGIN ATOM
M  V30 1 O 1.660637 -1.723340 2.907516 0
M  V30 2 C 2.715223 -2.194370 3.392916 0
M  V30 3 N 3.500782 -1.304733 4.154432 0
M  V30 4 C 3.520465 0.047519 4.571979 0
M  V30 5 C 3.663802 1.126388 3.551719 0
M  V30 6 C 2.639878 1.212876 2.523437 0
M  V30 7 C 2.720872 0.666462 1.234572 0
M  V30 8 C 1.667827 0.843280 0.363825 0
M  V30 9 C 0.494857 1.555852 0.706173 0
M  V30 10 C -0.593356 1.779758 -0.214782 0
M  V30 11 N -0.816067 3.102071 -0.479294 0
M  V30 12 N -1.806404 3.227266 -1.379607 0
M  V30 13 C -2.218640 1.993066 -1.692890 0
M  V30 14 N -1.476253 1.138782 -0.976969 0
M  V30 15 C -1.530548 -0.269626 -0.949757 0
M  V30 16 C -1.058585 -0.736762 0.247871 0
M  V30 17 C -0.994963 -2.105689 0.417790 0
M  V30 18 C -1.421435 -2.906161 -0.649797 0
M  V30 19 N -1.896740 -2.440971 -1.845160 0
M  V30 20 C -1.944987 -1.090040 -1.975777 0
M  V30 21 N -2.533496 -0.731122 -3.248270 0
M  V30 22 C -3.318178 0.479292 -3.372333 0
M  V30 23 C -4.305389 0.297049 -4.349507 0
M  V30 24 C -5.162057 1.347875 -4.589506 0
M  V30 25 C -5.053200 2.544184 -3.890352 0
M  V30 26 C -4.092381 2.755001 -2.923451 0
M  V30 27 C -3.242869 1.703066 -2.691254 0
M  V30 28 C 0.407692 2.106987 2.001044 0
M  V30 29 C 1.476324 1.917149 2.858262 0
M  V30 30 N 3.006033 -3.546745 3.132732 0
M  V30 31 C 2.100197 -4.300924 2.342680 0
M  V30 32 C 1.071885 -4.979373 2.940591 0
M  V30 33 C 0.184858 -5.724117 2.176651 0
M  V30 34 C 0.419644 -5.721686 0.816733 0
M  V30 35 C 1.443487 -5.050834 0.182746 0
M  V30 36 C 2.322957 -4.307784 0.977082 0
M  V30 37 H 4.351960 -1.846805 4.522758 0
M  V30 38 H 4.209312 0.188297 5.437451 0
M  V30 39 H 2.468242 0.227089 5.017453 0
M  V30 40 H 3.633113 2.113908 4.114021 0
M  V30 41 H 4.699946 1.015190 3.107216 0
M  V30 42 H 3.605367 0.134899 0.991111 0
M  V30 43 H 1.723624 0.419170 -0.645617 0
M  V30 44 H -0.755989 -0.242230 1.134210 0
M  V30 45 H -0.653720 -2.689654 1.280450 0
M  V30 46 H -1.403967 -3.984622 -0.601963 0
M  V30 47 H -2.407063 -1.342797 -4.054532 0
M  V30 48 H -4.331593 -0.656363 -4.855973 0
M  V30 49 H -5.929405 1.223837 -5.340145 0
M  V30 50 H -5.729847 3.382336 -4.074927 0
M  V30 51 H -3.921553 3.628069 -2.331851 0
M  V30 52 H -0.463330 2.662060 2.322580 0
M  V30 53 H 1.365207 2.360090 3.847601 0
M  V30 54 H 3.880683 -3.950959 3.530513 0
M  V30 55 H 0.891379 -4.979022 4.002734 0
M  V30 56 H -0.656972 -6.295137 2.542170 0
M  V30 57 H -0.209735 -6.268739 0.125896 0
M  V30 58 H 1.607323 -5.062393 -0.873542 0
M  V30 59 H 3.144013 -3.760810 0.539889 0
M  V30 END ATOM
M  V30 BEGIN BOND
M  V30 1 2 1 2
M  V30 2 1 2 3
M  V30 3 1 3 4
M  V30 4 1 4 5
M  V30 5 1 5 6
M  V30 6 2 6 7
M  V30 7 1 7 8
M  V30 8 2 8 9
M  V30 9 1 9 10
M  V30 10 2 10 11
M  V30 11 1 11 12
M  V30 12 2 12 13
M  V30 13 1 13 14
M  V30 14 1 14 15
M  V30 15 2 15 16
M  V30 16 1 16 17
M  V30 17 2 17 18
M  V30 18 1 18 19
M  V30 19 2 19 20
M  V30 20 1 20 21
M  V30 21 1 21 22
M  V30 22 2 22 23
M  V30 23 1 23 24
M  V30 24 2 24 25
M  V30 25 1 25 26
M  V30 26 2 26 27
M  V30 27 1 9 28
M  V30 28 2 28 29
M  V30 29 1 2 30
M  V30 30 1 30 31
M  V30 31 2 31 32
M  V30 32 1 32 33
M  V30 33 2 33 34
M  V30 34 1 34 35
M  V30 35 2 35 36
M  V30 36 1 29 6
M  V30 37 1 36 31
M  V30 38 1 14 10
M  V30 39 1 20 15
M  V30 40 1 27 22
M  V30 41 1 27 13
M  V30 42 1 3 37
M  V30 43 1 4 38
M  V30 44 1 4 39
M  V30 45 1 5 40
M  V30 46 1 5 41
M  V30 47 1 7 42
M  V30 48 1 8 43
M  V30 49 1 16 44
M  V30 50 1 17 45
M  V30 51 1 18 46
M  V30 52 1 21 47
M  V30 53 1 23 48
M  V30 54 1 24 49
M  V30 55 1 25 50
M  V30 56 1 26 51
M  V30 57 1 28 52
M  V30 58 1 29 53
M  V30 59 1 30 54
M  V30 60 1 32 55
M  V30 61 1 33 56
M  V30 62 1 34 57
M  V30 63 1 35 58
M  V30 64 1 36 59
M  V30 END BOND
M  V30 END CTAB
M  END
>  <Dataset>  (145) 
ChEMBL_Kinases

>  <Ligand_Instance>  (145) 
nan

>  <PDB_ID>  (145) 
nan

>  <Standardized_SMILES>  (145) 
O=C(NCCc1ccc(-c2nnc3n2-c2cccnc2Nc2ccccc2-3)cc1)Nc1ccccc1

>  <Name>  (145) 
nan

>  <Pocket>  (145) 
nan

>  <ATP_Site>  (145) 
nan

>  <Peripheral>  (145) 
nan

>  <Num_H_Atoms_ProtBoundConf>  (145) 
nan

>  <Num_Resolved_Atoms>  (145) 
nan

>  <Num_Not_Resolved_Atoms>  (145) 
nan

$$$$
CHEMBL3684421
     RDKit          3D

  0  0  0  0  0  0  0  0  0  0999 V3000
M  V30 BEGIN CTAB
M  V30 COUNTS 57 62 0 0 0
M  V30 BEGIN ATOM
M  V30 1 O 3.280283 -3.757667 4.111156 0
M  V30 2 C 2.970011 -3.841064 2.890410 0
M  V30 3 N 3.289297 -2.737077 2.061294 0
M  V30 4 C 3.928884 -1.703233 2.812476 0
M  V30 5 C 4.293023 -0.495723 1.973769 0
M  V30 6 C 3.096166 0.120740 1.351203 0
M  V30 7 C 2.662878 -0.270917 0.103210 0
M  V30 8 C 1.541379 0.358747 -0.388402 0
M  V30 9 C 0.821129 1.360636 0.291469 0
M  V30 10 C -0.333641 2.024224 -0.268049 0
M  V30 11 N -0.144936 3.365724 -0.433137 0
M  V30 12 N -1.237656 3.905380 -1.001660 0
M  V30 13 C -2.121664 2.922125 -1.201256 0
M  V30 14 N -1.552962 1.796058 -0.746541 0
M  V30 15 C -2.072992 0.485192 -0.722752 0
M  V30 16 C -1.483515 -0.240985 0.276301 0
M  V30 17 C -1.852442 -1.565494 0.389092 0
M  V30 18 C -2.796162 -2.054416 -0.521090 0
M  V30 19 N -3.395773 -1.340803 -1.520411 0
M  V30 20 C -3.002767 -0.045295 -1.592604 0
M  V30 21 N -3.751661 0.636318 -2.628186 0
M  V30 22 C -4.083060 2.043193 -2.501980 0
M  V30 23 C -5.297580 2.300086 -3.146454 0
M  V30 24 C -5.767058 3.595191 -3.104430 0
M  V30 25 C -5.070334 4.608136 -2.452302 0
M  V30 26 C -3.876337 4.376731 -1.814377 0
M  V30 27 C -3.411886 3.090829 -1.857744 0
M  V30 28 C 1.348941 1.685391 1.557589 0
M  V30 29 C 2.467880 1.088928 2.101103 0
M  V30 30 C 2.312617 -5.064889 2.448635 0
M  V30 31 C 2.081251 -6.036522 3.398910 0
M  V30 32 C 1.455159 -7.241349 3.058738 0
M  V30 33 C 1.086553 -7.404236 1.741542 0
M  V30 34 C 1.291073 -6.470383 0.748339 0
M  V30 35 C 1.919209 -5.289577 1.146746 0
M  V30 36 H 3.015809 -2.850333 1.065848 0
M  V30 37 H 4.834168 -2.112528 3.291529 0
M  V30 38 H 3.290634 -1.342363 3.670112 0
M  V30 39 H 4.888353 0.215755 2.552162 0
M  V30 40 H 4.910312 -0.903659 1.128326 0
M  V30 41 H 3.163220 -1.031161 -0.479347 0
M  V30 42 H 1.109556 0.132088 -1.359309 0
M  V30 43 H -0.804306 0.027889 1.041513 0
M  V30 44 H -1.486836 -2.279040 1.115041 0
M  V30 45 H -3.116283 -3.092412 -0.472593 0
M  V30 46 H -4.070017 0.115910 -3.461463 0
M  V30 47 H -5.785662 1.469460 -3.635495 0
M  V30 48 H -6.705511 3.814999 -3.597147 0
M  V30 49 H -5.446442 5.629396 -2.422045 0
M  V30 50 H -3.258448 5.083084 -1.283437 0
M  V30 51 H 0.833876 2.450613 2.124866 0
M  V30 52 H 2.798529 1.408185 3.087275 0
M  V30 53 H 2.352049 -5.955115 4.444735 0
M  V30 54 H 1.260705 -8.025731 3.791503 0
M  V30 55 H 0.598028 -8.313146 1.412372 0
M  V30 56 H 0.991636 -6.623926 -0.278324 0
M  V30 57 H 2.095337 -4.535714 0.394366 0
M  V30 END ATOM
M  V30 BEGIN BOND
M  V30 1 2 1 2
M  V30 2 1 2 3
M  V30 3 1 3 4
M  V30 4 1 4 5
M  V30 5 1 5 6
M  V30 6 2 6 7
M  V30 7 1 7 8
M  V30 8 2 8 9
M  V30 9 1 9 10
M  V30 10 2 10 11
M  V30 11 1 11 12
M  V30 12 2 12 13
M  V30 13 1 13 14
M  V30 14 1 14 15
M  V30 15 2 15 16
M  V30 16 1 16 17
M  V30 17 2 17 18
M  V30 18 1 18 19
M  V30 19 2 19 20
M  V30 20 1 20 21
M  V30 21 1 21 22
M  V30 22 2 22 23
M  V30 23 1 23 24
M  V30 24 2 24 25
M  V30 25 1 25 26
M  V30 26 2 26 27
M  V30 27 1 9 28
M  V30 28 2 28 29
M  V30 29 1 2 30
M  V30 30 2 30 31
M  V30 31 1 31 32
M  V30 32 2 32 33
M  V30 33 1 33 34
M  V30 34 2 34 35
M  V30 35 1 29 6
M  V30 36 1 35 30
M  V30 37 1 14 10
M  V30 38 1 20 15
M  V30 39 1 27 22
M  V30 40 1 27 13
M  V30 41 1 3 36
M  V30 42 1 4 37
M  V30 43 1 4 38
M  V30 44 1 5 39
M  V30 45 1 5 40
M  V30 46 1 7 41
M  V30 47 1 8 42
M  V30 48 1 16 43
M  V30 49 1 17 44
M  V30 50 1 18 45
M  V30 51 1 21 46
M  V30 52 1 23 47
M  V30 53 1 24 48
M  V30 54 1 25 49
M  V30 55 1 26 50
M  V30 56 1 28 51
M  V30 57 1 29 52
M  V30 58 1 31 53
M  V30 59 1 32 54
M  V30 60 1 33 55
M  V30 61 1 34 56
M  V30 62 1 35 57
M  V30 END BOND
M  V30 END CTAB
M  END
>  <Dataset>  (146) 
ChEMBL_Kinases

>  <Ligand_Instance>  (146) 
nan

>  <PDB_ID>  (146) 
nan

>  <Standardized_SMILES>  (146) 
O=C(NCCc1ccc(-c2nnc3n2-c2cccnc2Nc2ccccc2-3)cc1)c1ccccc1

>  <Name>  (146) 
nan

>  <Pocket>  (146) 
nan

>  <ATP_Site>  (146) 
nan

>  <Peripheral>  (146) 
nan

>  <Num_H_Atoms_ProtBoundConf>  (146) 
nan

>  <Num_Resolved_Atoms>  (146) 
nan

>  <Num_Not_Resolved_Atoms>  (146) 
nan

$$$$
CHEMBL3684422
     RDKit          3D

  0  0  0  0  0  0  0  0  0  0999 V3000
M  V30 BEGIN CTAB
M  V30 COUNTS 55 60 0 0 0
M  V30 BEGIN ATOM
M  V30 1 O 2.237969 -1.378570 5.360646 0
M  V30 2 S 2.981898 -1.591813 4.062302 0
M  V30 3 O 4.067681 -0.517361 4.068219 0
M  V30 4 N 2.018511 -1.306800 2.707660 0
M  V30 5 C 0.917843 -2.184557 2.471085 0
M  V30 6 C 0.245832 -1.673280 1.209452 0
M  V30 7 C 0.596361 -2.105479 -0.052612 0
M  V30 8 C -0.058193 -1.593721 -1.151527 0
M  V30 9 C -1.085406 -0.634545 -1.047980 0
M  V30 10 C -1.828144 -0.085177 -2.128507 0
M  V30 11 N -2.550386 -1.020258 -2.817678 0
M  V30 12 N -3.258723 -0.441719 -3.781462 0
M  V30 13 C -3.007574 0.875249 -3.732537 0
M  V30 14 N -2.138547 1.067381 -2.729014 0
M  V30 15 C -1.559680 2.269935 -2.273358 0
M  V30 16 C -0.365541 2.008507 -1.657951 0
M  V30 17 C 0.302002 3.082944 -1.105238 0
M  V30 18 C -0.285729 4.349648 -1.216514 0
M  V30 19 N -1.478287 4.607846 -1.836249 0
M  V30 20 C -2.109266 3.519686 -2.371131 0
M  V30 21 N -3.313345 3.937330 -3.058899 0
M  V30 22 C -3.777079 3.216741 -4.228261 0
M  V30 23 C -4.439111 4.100208 -5.082418 0
M  V30 24 C -4.937225 3.586699 -6.262907 0
M  V30 25 C -4.781245 2.243883 -6.579450 0
M  V30 26 C -4.133799 1.347502 -5.757109 0
M  V30 27 C -3.643163 1.868492 -4.586254 0
M  V30 28 C -1.349958 -0.277882 0.261142 0
M  V30 29 C -0.747446 -0.736724 1.414848 0
M  V30 30 C 3.802544 -3.115644 4.119990 0
M  V30 31 C 5.199004 -3.206025 4.031520 0
M  V30 32 C 5.957656 -4.356458 4.042892 0
M  V30 33 C 5.272895 -5.545757 4.152961 0
M  V30 34 C 3.900261 -5.555888 4.245797 0
M  V30 35 C 3.216948 -4.359550 4.227276 0
M  V30 36 F 1.881190 -4.435044 4.348060 0
M  V30 37 H 2.470886 -0.941620 1.867452 0
M  V30 38 H 1.333160 -3.167855 2.137826 0
M  V30 39 H 0.158126 -2.238914 3.244768 0
M  V30 40 H 1.379347 -2.837212 -0.139195 0
M  V30 41 H 0.196010 -1.915166 -2.162397 0
M  V30 42 H 0.202708 1.123168 -1.547413 0
M  V30 43 H 1.248665 3.073387 -0.581685 0
M  V30 44 H 0.183044 5.222393 -0.805568 0
M  V30 45 H -3.833422 4.761705 -2.722926 0
M  V30 46 H -4.525325 5.122185 -4.774602 0
M  V30 47 H -5.446395 4.241609 -6.932024 0
M  V30 48 H -5.171130 1.815671 -7.516675 0
M  V30 49 H -3.960221 0.297229 -5.905466 0
M  V30 50 H -2.142599 0.467320 0.399610 0
M  V30 51 H -1.065741 -0.360088 2.376499 0
M  V30 52 H 5.748702 -2.276379 3.944622 0
M  V30 53 H 7.033357 -4.297412 3.967557 0
M  V30 54 H 5.856812 -6.453578 4.162285 0
M  V30 55 H 3.373950 -6.496809 4.331898 0
M  V30 END ATOM
M  V30 BEGIN BOND
M  V30 1 2 1 2
M  V30 2 2 2 3
M  V30 3 1 2 4
M  V30 4 1 4 5
M  V30 5 1 5 6
M  V30 6 2 6 7
M  V30 7 1 7 8
M  V30 8 2 8 9
M  V30 9 1 9 10
M  V30 10 2 10 11
M  V30 11 1 11 12
M  V30 12 2 12 13
M  V30 13 1 13 14
M  V30 14 1 14 15
M  V30 15 2 15 16
M  V30 16 1 16 17
M  V30 17 2 17 18
M  V30 18 1 18 19
M  V30 19 2 19 20
M  V30 20 1 20 21
M  V30 21 1 21 22
M  V30 22 2 22 23
M  V30 23 1 23 24
M  V30 24 2 24 25
M  V30 25 1 25 26
M  V30 26 2 26 27
M  V30 27 1 9 28
M  V30 28 2 28 29
M  V30 29 1 2 30
M  V30 30 2 30 31
M  V30 31 1 31 32
M  V30 32 2 32 33
M  V30 33 1 33 34
M  V30 34 2 34 35
M  V30 35 1 35 36
M  V30 36 1 29 6
M  V30 37 1 35 30
M  V30 38 1 14 10
M  V30 39 1 20 15
M  V30 40 1 27 22
M  V30 41 1 27 13
M  V30 42 1 4 37
M  V30 43 1 5 38
M  V30 44 1 5 39
M  V30 45 1 7 40
M  V30 46 1 8 41
M  V30 47 1 16 42
M  V30 48 1 17 43
M  V30 49 1 18 44
M  V30 50 1 21 45
M  V30 51 1 23 46
M  V30 52 1 24 47
M  V30 53 1 25 48
M  V30 54 1 26 49
M  V30 55 1 28 50
M  V30 56 1 29 51
M  V30 57 1 31 52
M  V30 58 1 32 53
M  V30 59 1 33 54
M  V30 60 1 34 55
M  V30 END BOND
M  V30 END CTAB
M  END
>  <Dataset>  (147) 
ChEMBL_Kinases

>  <Ligand_Instance>  (147) 
nan

>  <PDB_ID>  (147) 
nan

>  <Standardized_SMILES>  (147) 
O=S(=O)(NCc1ccc(-c2nnc3n2-c2cccnc2Nc2ccccc2-3)cc1)c1ccccc1F

>  <Name>  (147) 
nan

>  <Pocket>  (147) 
nan

>  <ATP_Site>  (147) 
nan

>  <Peripheral>  (147) 
nan

>  <Num_H_Atoms_ProtBoundConf>  (147) 
nan

>  <Num_Resolved_Atoms>  (147) 
nan

>  <Num_Not_Resolved_Atoms>  (147) 
nan

$$$$
CHEMBL3684423
     RDKit          3D

  0  0  0  0  0  0  0  0  0  0999 V3000
M  V30 BEGIN CTAB
M  V30 COUNTS 55 60 0 0 0
M  V30 BEGIN ATOM
M  V30 1 O 0.974648 5.028930 -2.723470 0
M  V30 2 S -0.001850 4.048977 -3.286563 0
M  V30 3 O 0.389074 3.706753 -4.696631 0
M  V30 4 N 0.016604 2.588807 -2.367254 0
M  V30 5 C -0.418510 2.809573 -1.000691 0
M  V30 6 C -0.357812 1.472775 -0.311592 0
M  V30 7 C -1.462364 0.647804 -0.324224 0
M  V30 8 C -1.412272 -0.579403 0.306208 0
M  V30 9 C -0.250861 -1.020976 0.971433 0
M  V30 10 C -0.130028 -2.273167 1.681146 0
M  V30 11 N -0.996159 -2.388921 2.730521 0
M  V30 12 N -0.783558 -3.554655 3.362251 0
M  V30 13 C 0.199859 -4.184138 2.737717 0
M  V30 14 N 0.582609 -3.398968 1.721613 0
M  V30 15 C 1.585992 -3.616036 0.755913 0
M  V30 16 C 1.314622 -2.914271 -0.386277 0
M  V30 17 C 2.235608 -2.980099 -1.411178 0
M  V30 18 C 3.384432 -3.758874 -1.221819 0
M  V30 19 N 3.644969 -4.461097 -0.075788 0
M  V30 20 C 2.718442 -4.381500 0.926598 0
M  V30 21 N 3.097952 -5.231733 2.031575 0
M  V30 22 C 2.074015 -5.862545 2.840222 0
M  V30 23 C 2.562964 -7.083480 3.323862 0
M  V30 24 C 1.710969 -7.835703 4.106015 0
M  V30 25 C 0.415572 -7.397430 4.402664 0
M  V30 26 C -0.078114 -6.203231 3.936931 0
M  V30 27 C 0.770258 -5.457466 3.160647 0
M  V30 28 C 0.809067 -0.093941 0.916141 0
M  V30 29 C 0.817675 1.140454 0.304649 0
M  V30 30 C -1.629433 4.675881 -3.364923 0
M  V30 31 C -2.495056 4.313500 -4.381110 0
M  V30 32 C -3.790101 4.801436 -4.458703 0
M  V30 33 C -4.193929 5.682006 -3.462701 0
M  V30 34 C -3.364702 6.071600 -2.429789 0
M  V30 35 F -3.847092 6.945199 -1.489711 0
M  V30 36 C -2.064092 5.561051 -2.380595 0
M  V30 37 H 1.029484 2.305734 -2.284421 0
M  V30 38 H -1.460910 3.168538 -0.938866 0
M  V30 39 H 0.308664 3.499640 -0.533888 0
M  V30 40 H -2.393685 0.929456 -0.821600 0
M  V30 41 H -2.249950 -1.264948 0.326481 0
M  V30 42 H 0.477685 -2.336512 -0.674383 0
M  V30 43 H 2.162917 -2.474051 -2.385537 0
M  V30 44 H 4.133564 -3.838320 -1.995016 0
M  V30 45 H 4.085229 -5.394798 2.224620 0
M  V30 46 H 3.566882 -7.360408 3.061840 0
M  V30 47 H 2.058154 -8.782896 4.494647 0
M  V30 48 H -0.259228 -7.990136 5.019819 0
M  V30 49 H -1.048624 -5.775746 4.104012 0
M  V30 50 H 1.716901 -0.437120 1.435162 0
M  V30 51 H 1.709243 1.725249 0.355253 0
M  V30 52 H -2.121680 3.622057 -5.130122 0
M  V30 53 H -4.409851 4.478379 -5.275338 0
M  V30 54 H -5.221681 6.063704 -3.532025 0
M  V30 55 H -1.417712 5.877997 -1.556875 0
M  V30 END ATOM
M  V30 BEGIN BOND
M  V30 1 2 1 2
M  V30 2 2 2 3
M  V30 3 1 2 4
M  V30 4 1 4 5
M  V30 5 1 5 6
M  V30 6 2 6 7
M  V30 7 1 7 8
M  V30 8 2 8 9
M  V30 9 1 9 10
M  V30 10 2 10 11
M  V30 11 1 11 12
M  V30 12 2 12 13
M  V30 13 1 13 14
M  V30 14 1 14 15
M  V30 15 2 15 16
M  V30 16 1 16 17
M  V30 17 2 17 18
M  V30 18 1 18 19
M  V30 19 2 19 20
M  V30 20 1 20 21
M  V30 21 1 21 22
M  V30 22 2 22 23
M  V30 23 1 23 24
M  V30 24 2 24 25
M  V30 25 1 25 26
M  V30 26 2 26 27
M  V30 27 1 9 28
M  V30 28 2 28 29
M  V30 29 1 2 30
M  V30 30 2 30 31
M  V30 31 1 31 32
M  V30 32 2 32 33
M  V30 33 1 33 34
M  V30 34 1 34 35
M  V30 35 2 34 36
M  V30 36 1 29 6
M  V30 37 1 36 30
M  V30 38 1 14 10
M  V30 39 1 20 15
M  V30 40 1 27 22
M  V30 41 1 27 13
M  V30 42 1 4 37
M  V30 43 1 5 38
M  V30 44 1 5 39
M  V30 45 1 7 40
M  V30 46 1 8 41
M  V30 47 1 16 42
M  V30 48 1 17 43
M  V30 49 1 18 44
M  V30 50 1 21 45
M  V30 51 1 23 46
M  V30 52 1 24 47
M  V30 53 1 25 48
M  V30 54 1 26 49
M  V30 55 1 28 50
M  V30 56 1 29 51
M  V30 57 1 31 52
M  V30 58 1 32 53
M  V30 59 1 33 54
M  V30 60 1 36 55
M  V30 END BOND
M  V30 END CTAB
M  END
>  <Dataset>  (148) 
ChEMBL_Kinases

>  <Ligand_Instance>  (148) 
nan

>  <PDB_ID>  (148) 
nan

>  <Standardized_SMILES>  (148) 
O=S(=O)(NCc1ccc(-c2nnc3n2-c2cccnc2Nc2ccccc2-3)cc1)c1cccc(F)c1

>  <Name>  (148) 
nan

>  <Pocket>  (148) 
nan

>  <ATP_Site>  (148) 
nan

>  <Peripheral>  (148) 
nan

>  <Num_H_Atoms_ProtBoundConf>  (148) 
nan

>  <Num_Resolved_Atoms>  (148) 
nan

>  <Num_Not_Resolved_Atoms>  (148) 
nan

$$$$
CHEMBL3684415
     RDKit          3D

  0  0  0  0  0  0  0  0  0  0999 V3000
M  V30 BEGIN CTAB
M  V30 COUNTS 54 59 0 0 0
M  V30 BEGIN ATOM
M  V30 1 O 3.919278 -4.062825 4.481823 0
M  V30 2 S 4.131598 -4.066944 3.001186 0
M  V30 3 O 5.549860 -3.720548 2.631850 0
M  V30 4 N 3.123989 -2.861896 2.321300 0
M  V30 5 C 3.280138 -2.744577 0.882470 0
M  V30 6 C 2.348748 -1.663876 0.422486 0
M  V30 7 C 2.786339 -0.361569 0.373192 0
M  V30 8 C 1.928691 0.635074 -0.050684 0
M  V30 9 C 0.602380 0.354244 -0.438941 0
M  V30 10 C -0.336211 1.341446 -0.923480 0
M  V30 11 N 0.072451 1.957062 -2.070015 0
M  V30 12 N -0.873445 2.819971 -2.480762 0
M  V30 13 C -1.876138 2.760792 -1.611928 0
M  V30 14 N -1.535592 1.867128 -0.676799 0
M  V30 15 C -2.252709 1.448250 0.461843 0
M  V30 16 C -1.397944 0.985888 1.424721 0
M  V30 17 C -1.956831 0.486242 2.584762 0
M  V30 18 C -3.353249 0.488190 2.699144 0
M  V30 19 N -4.203303 0.956226 1.733229 0
M  V30 20 C -3.623425 1.444170 0.597899 0
M  V30 21 N -4.630746 1.969974 -0.294593 0
M  V30 22 C -4.329788 3.093509 -1.157437 0
M  V30 23 C -5.497791 3.837880 -1.367209 0
M  V30 24 C -5.386791 4.959400 -2.157946 0
M  V30 25 C -4.174707 5.342976 -2.726373 0
M  V30 26 C -3.017501 4.622236 -2.530742 0
M  V30 27 C -3.125167 3.503769 -1.743645 0
M  V30 28 C 0.263435 -1.014231 -0.348015 0
M  V30 29 C 1.076040 -2.043653 0.066065 0
M  V30 30 C 3.776179 -5.661505 2.374423 0
M  V30 31 C 2.842932 -6.431941 3.022631 0
M  V30 32 C 2.566223 -7.688470 2.524482 0
M  V30 33 C 3.173835 -8.232853 1.400089 0
M  V30 34 N 4.093323 -7.432421 0.789205 0
M  V30 35 C 4.381159 -6.200834 1.256709 0
M  V30 36 H 2.106570 -2.986275 2.516207 0
M  V30 37 H 4.324561 -2.457776 0.610115 0
M  V30 38 H 2.987649 -3.697983 0.420839 0
M  V30 39 H 3.785819 -0.078157 0.655270 0
M  V30 40 H 2.200514 1.693685 -0.117933 0
M  V30 41 H -0.342135 0.972119 1.483183 0
M  V30 42 H -1.418423 0.077954 3.448114 0
M  V30 43 H -3.834658 0.105684 3.586429 0
M  V30 44 H -5.576185 1.546769 -0.300923 0
M  V30 45 H -6.402692 3.490518 -0.904524 0
M  V30 46 H -6.271131 5.557955 -2.340493 0
M  V30 47 H -4.081388 6.228601 -3.351647 0
M  V30 48 H -2.030922 4.822799 -2.918096 0
M  V30 49 H -0.770463 -1.241630 -0.649449 0
M  V30 50 H 0.669586 -3.036369 0.080018 0
M  V30 51 H 2.339008 -6.067848 3.896463 0
M  V30 52 H 1.824193 -8.321241 3.026324 0
M  V30 53 H 2.907768 -9.222499 1.067837 0
M  V30 54 H 5.128030 -5.596042 0.730028 0
M  V30 END ATOM
M  V30 BEGIN BOND
M  V30 1 2 1 2
M  V30 2 2 2 3
M  V30 3 1 2 4
M  V30 4 1 4 5
M  V30 5 1 5 6
M  V30 6 2 6 7
M  V30 7 1 7 8
M  V30 8 2 8 9
M  V30 9 1 9 10
M  V30 10 2 10 11
M  V30 11 1 11 12
M  V30 12 2 12 13
M  V30 13 1 13 14
M  V30 14 1 14 15
M  V30 15 2 15 16
M  V30 16 1 16 17
M  V30 17 2 17 18
M  V30 18 1 18 19
M  V30 19 2 19 20
M  V30 20 1 20 21
M  V30 21 1 21 22
M  V30 22 2 22 23
M  V30 23 1 23 24
M  V30 24 2 24 25
M  V30 25 1 25 26
M  V30 26 2 26 27
M  V30 27 1 9 28
M  V30 28 2 28 29
M  V30 29 1 2 30
M  V30 30 2 30 31
M  V30 31 1 31 32
M  V30 32 2 32 33
M  V30 33 1 33 34
M  V30 34 2 34 35
M  V30 35 1 29 6
M  V30 36 1 35 30
M  V30 37 1 14 10
M  V30 38 1 20 15
M  V30 39 1 27 22
M  V30 40 1 27 13
M  V30 41 1 4 36
M  V30 42 1 5 37
M  V30 43 1 5 38
M  V30 44 1 7 39
M  V30 45 1 8 40
M  V30 46 1 16 41
M  V30 47 1 17 42
M  V30 48 1 18 43
M  V30 49 1 21 44
M  V30 50 1 23 45
M  V30 51 1 24 46
M  V30 52 1 25 47
M  V30 53 1 26 48
M  V30 54 1 28 49
M  V30 55 1 29 50
M  V30 56 1 31 51
M  V30 57 1 32 52
M  V30 58 1 33 53
M  V30 59 1 35 54
M  V30 END BOND
M  V30 END CTAB
M  END
>  <Dataset>  (149) 
ChEMBL_Kinases

>  <Ligand_Instance>  (149) 
nan

>  <PDB_ID>  (149) 
nan

>  <Standardized_SMILES>  (149) 
O=S(=O)(NCc1ccc(-c2nnc3n2-c2cccnc2Nc2ccccc2-3)cc1)c1cccnc1

>  <Name>  (149) 
nan

>  <Pocket>  (149) 
nan

>  <ATP_Site>  (149) 
nan

>  <Peripheral>  (149) 
nan

>  <Num_H_Atoms_ProtBoundConf>  (149) 
nan

>  <Num_Resolved_Atoms>  (149) 
nan

>  <Num_Not_Resolved_Atoms>  (149) 
nan

$$$$
CHEMBL3687141
     RDKit          3D

  0  0  0  0  0  0  0  0  0  0999 V3000
M  V30 BEGIN CTAB
M  V30 COUNTS 51 54 0 0 0
M  V30 BEGIN ATOM
M  V30 1 N -0.383473 -5.744908 -0.205427 0
M  V30 2 C -0.040427 -4.829294 0.411594 0
M  V30 3 C 0.392584 -3.683207 1.166261 0
M  V30 4 C 1.112091 -2.754633 0.399358 0
M  V30 5 C 1.571727 -1.621415 1.028810 0
M  V30 6 C 2.326458 -0.588702 0.316661 0
M  V30 7 C 3.300030 0.169333 0.963800 0
M  V30 8 C 4.031486 1.158827 0.324421 0
M  V30 9 N 3.741101 1.346248 -0.976558 0
M  V30 10 C 2.791524 0.612335 -1.623359 0
M  V30 11 N 2.718008 1.043789 -2.977369 0
M  V30 12 C 1.723545 2.075462 -2.910944 0
M  V30 13 C 1.940390 3.401677 -2.604558 0
M  V30 14 C 0.905850 4.309450 -2.577912 0
M  V30 15 C -0.377740 3.909121 -2.859225 0
M  V30 16 C -1.537619 4.825969 -2.850933 0
M  V30 17 O -1.706318 5.391888 -4.132457 0
M  V30 18 C -0.565019 2.555385 -3.166610 0
M  V30 19 N 0.472997 1.667357 -3.188343 0
M  V30 20 C 2.062377 -0.362917 -1.016232 0
M  V30 21 C 1.363811 -1.345293 2.381294 0
M  V30 22 C 0.647593 -2.319608 3.042937 0
M  V30 23 C 0.134335 -3.488401 2.537106 0
M  V30 24 O -0.545545 -4.486750 3.014728 0
M  V30 25 C -1.164239 -5.098084 4.026576 0
M  V30 26 C -2.333574 -4.501452 4.705365 0
M  V30 27 C -3.534039 -4.214724 3.809656 0
M  V30 28 C -3.142062 -2.740305 3.919778 0
M  V30 29 C -2.348138 -3.106564 5.189311 0
M  V30 30 H 1.345084 -2.836301 -0.640978 0
M  V30 31 H 3.490006 -0.019523 1.994010 0
M  V30 32 H 4.762420 1.698834 0.888463 0
M  V30 33 H 3.216456 0.741694 -3.837189 0
M  V30 34 H 2.950299 3.669422 -2.393112 0
M  V30 35 H 1.071822 5.336868 -2.340420 0
M  V30 36 H -2.494685 4.295868 -2.659696 0
M  V30 37 H -1.454930 5.611367 -2.083675 0
M  V30 38 H -2.578868 5.877274 -4.090785 0
M  V30 39 H -1.602269 2.258523 -3.389604 0
M  V30 40 H 1.342471 -0.879650 -1.611629 0
M  V30 41 H 1.710599 -0.473119 2.894353 0
M  V30 42 H 0.474172 -2.163097 4.079378 0
M  V30 43 H -0.437547 -5.382155 4.850636 0
M  V30 44 H -1.518063 -6.142428 3.698548 0
M  V30 45 H -2.676385 -5.192172 5.530872 0
M  V30 46 H -4.504509 -4.426388 4.298567 0
M  V30 47 H -3.463034 -4.664035 2.822762 0
M  V30 48 H -2.524259 -2.372481 3.091915 0
M  V30 49 H -3.995145 -2.061976 4.099518 0
M  V30 50 H -3.045840 -2.923996 6.070388 0
M  V30 51 H -1.377808 -2.659820 5.304609 0
M  V30 END ATOM
M  V30 BEGIN BOND
M  V30 1 3 1 2
M  V30 2 1 2 3
M  V30 3 2 3 4
M  V30 4 1 4 5
M  V30 5 1 5 6
M  V30 6 2 6 7
M  V30 7 1 7 8
M  V30 8 2 8 9
M  V30 9 1 9 10
M  V30 10 1 10 11
M  V30 11 1 11 12
M  V30 12 2 12 13
M  V30 13 1 13 14
M  V30 14 2 14 15
M  V30 15 1 15 16
M  V30 16 1 16 17
M  V30 17 1 15 18
M  V30 18 2 18 19
M  V30 19 2 10 20
M  V30 20 2 5 21
M  V30 21 1 21 22
M  V30 22 2 22 23
M  V30 23 1 23 24
M  V30 24 1 24 25
M  V30 25 1 25 26
M  V30 26 1 26 27
M  V30 27 1 27 28
M  V30 28 1 28 29
M  V30 29 1 23 3
M  V30 30 1 29 26
M  V30 31 1 20 6
M  V30 32 1 19 12
M  V30 33 1 4 30
M  V30 34 1 7 31
M  V30 35 1 8 32
M  V30 36 1 11 33
M  V30 37 1 13 34
M  V30 38 1 14 35
M  V30 39 1 16 36
M  V30 40 1 16 37
M  V30 41 1 17 38
M  V30 42 1 18 39
M  V30 43 1 20 40
M  V30 44 1 21 41
M  V30 45 1 22 42
M  V30 46 1 25 43
M  V30 47 1 25 44
M  V30 48 1 26 45
M  V30 49 1 27 46
M  V30 50 1 27 47
M  V30 51 1 28 48
M  V30 52 1 28 49
M  V30 53 1 29 50
M  V30 54 1 29 51
M  V30 END BOND
M  V30 END CTAB
M  END
>  <Dataset>  (150) 
ChEMBL_Kinases

>  <Ligand_Instance>  (150) 
nan

>  <PDB_ID>  (150) 
nan

>  <Standardized_SMILES>  (150) 
N#Cc1cc(-c2ccnc(Nc3ccc(CO)cn3)c2)ccc1OCC1CCC1

>  <Name>  (150) 
nan

>  <Pocket>  (150) 
nan

>  <ATP_Site>  (150) 
nan

>  <Peripheral>  (150) 
nan

>  <Num_H_Atoms_ProtBoundConf>  (150) 
nan

>  <Num_Resolved_Atoms>  (150) 
nan

>  <Num_Not_Resolved_Atoms>  (150) 
nan

$$$$
CHEMBL3687140
     RDKit          3D

  0  0  0  0  0  0  0  0  0  0999 V3000
M  V30 BEGIN CTAB
M  V30 COUNTS 55 58 0 0 0
M  V30 BEGIN ATOM
M  V30 1 C 3.818095 0.695988 5.565110 0
M  V30 2 O 4.788423 0.480240 4.588481 0
M  V30 3 C 5.412995 1.655919 4.161907 0
M  V30 4 C 6.410819 1.203172 3.077952 0
M  V30 5 N 5.517913 0.565419 2.080742 0
M  V30 6 C 5.216324 -0.732462 2.186086 0
M  V30 7 C 4.344314 -0.971274 1.111926 0
M  V30 8 N 3.590900 -1.935921 0.552985 0
M  V30 9 C 2.828439 -2.930661 0.023382 0
M  V30 10 C 1.472911 -2.708194 -0.187279 0
M  V30 11 C 0.436900 -3.465603 -0.655781 0
M  V30 12 C -0.913904 -2.974789 -0.807233 0
M  V30 13 C -0.959035 -1.630726 -1.157113 0
M  V30 14 C -2.150568 -0.961307 -1.324882 0
M  V30 15 C -3.369320 -1.645842 -1.140934 0
M  V30 16 O -4.583277 -0.933374 -1.317679 0
M  V30 17 C -4.502141 0.445761 -1.701974 0
M  V30 18 C -5.897904 0.973849 -1.798727 0
M  V30 19 C -6.692221 0.929848 -0.517968 0
M  V30 20 C -6.773109 2.458620 -0.580622 0
M  V30 21 C -5.977301 2.463071 -1.863718 0
M  V30 22 C -3.244009 -2.966684 -0.797301 0
M  V30 23 C -4.493982 -3.658507 -0.620743 0
M  V30 24 N -5.518586 -4.212947 -0.474960 0
M  V30 25 C -2.082745 -3.663344 -0.622438 0
M  V30 26 C 0.952966 -4.718550 -0.961033 0
M  V30 27 C 2.246730 -5.084728 -0.810080 0
M  V30 28 N 3.126663 -4.249434 -0.347470 0
M  V30 29 C 4.174957 0.222928 0.411392 0
M  V30 30 N 4.933127 1.166887 1.058120 0
M  V30 31 H 4.267491 1.168820 6.442342 0
M  V30 32 H 2.953809 1.256129 5.127926 0
M  V30 33 H 3.463553 -0.332742 5.894881 0
M  V30 34 H 5.881420 2.236164 4.948936 0
M  V30 35 H 4.636743 2.272914 3.673211 0
M  V30 36 H 7.026858 0.419849 3.514110 0
M  V30 37 H 6.927157 2.029943 2.602531 0
M  V30 38 H 5.465278 -1.554639 2.835413 0
M  V30 39 H 3.493249 -2.519809 1.459095 0
M  V30 40 H 1.147618 -1.681407 0.086071 0
M  V30 41 H -0.100221 -0.994403 -1.326628 0
M  V30 42 H -2.190949 0.104211 -1.600898 0
M  V30 43 H -3.879044 0.996885 -0.986652 0
M  V30 44 H -3.966802 0.449493 -2.678500 0
M  V30 45 H -6.482272 0.410431 -2.602688 0
M  V30 46 H -7.665897 0.426767 -0.615141 0
M  V30 47 H -6.129137 0.606434 0.375695 0
M  V30 48 H -6.210082 2.934124 0.239025 0
M  V30 49 H -7.800547 2.828602 -0.656572 0
M  V30 50 H -6.542163 2.795087 -2.758502 0
M  V30 51 H -4.965890 2.953126 -1.775555 0
M  V30 52 H -2.006598 -4.704908 -0.354855 0
M  V30 53 H 0.264328 -5.450532 -1.341010 0
M  V30 54 H 2.568525 -6.098476 -1.078392 0
M  V30 55 H 3.674283 0.689647 -0.446741 0
M  V30 END ATOM
M  V30 BEGIN BOND
M  V30 1 1 1 2
M  V30 2 1 2 3
M  V30 3 1 3 4
M  V30 4 1 4 5
M  V30 5 1 5 6
M  V30 6 2 6 7
M  V30 7 1 7 8
M  V30 8 1 8 9
M  V30 9 2 9 10
M  V30 10 1 10 11
M  V30 11 1 11 12
M  V30 12 2 12 13
M  V30 13 1 13 14
M  V30 14 2 14 15
M  V30 15 1 15 16
M  V30 16 1 16 17
M  V30 17 1 17 18
M  V30 18 1 18 19
M  V30 19 1 19 20
M  V30 20 1 20 21
M  V30 21 1 15 22
M  V30 22 1 22 23
M  V30 23 3 23 24
M  V30 24 2 22 25
M  V30 25 2 11 26
M  V30 26 1 26 27
M  V30 27 2 27 28
M  V30 28 1 7 29
M  V30 29 2 29 30
M  V30 30 1 30 5
M  V30 31 1 28 9
M  V30 32 1 25 12
M  V30 33 1 21 18
M  V30 34 1 1 31
M  V30 35 1 1 32
M  V30 36 1 1 33
M  V30 37 1 3 34
M  V30 38 1 3 35
M  V30 39 1 4 36
M  V30 40 1 4 37
M  V30 41 1 6 38
M  V30 42 1 8 39
M  V30 43 1 10 40
M  V30 44 1 13 41
M  V30 45 1 14 42
M  V30 46 1 17 43
M  V30 47 1 17 44
M  V30 48 1 18 45
M  V30 49 1 19 46
M  V30 50 1 19 47
M  V30 51 1 20 48
M  V30 52 1 20 49
M  V30 53 1 21 50
M  V30 54 1 21 51
M  V30 55 1 25 52
M  V30 56 1 26 53
M  V30 57 1 27 54
M  V30 58 1 29 55
M  V30 END BOND
M  V30 END CTAB
M  END
>  <Dataset>  (151) 
ChEMBL_Kinases

>  <Ligand_Instance>  (151) 
nan

>  <PDB_ID>  (151) 
nan

>  <Standardized_SMILES>  (151) 
COCCn1cc(Nc2cc(-c3ccc(OCC4CCC4)c(C#N)c3)ccn2)cn1

>  <Name>  (151) 
nan

>  <Pocket>  (151) 
nan

>  <ATP_Site>  (151) 
nan

>  <Peripheral>  (151) 
nan

>  <Num_H_Atoms_ProtBoundConf>  (151) 
nan

>  <Num_Resolved_Atoms>  (151) 
nan

>  <Num_Not_Resolved_Atoms>  (151) 
nan

$$$$
CHEMBL3687139
     RDKit          3D

  0  0  0  0  0  0  0  0  0  0999 V3000
M  V30 BEGIN CTAB
M  V30 COUNTS 45 48 0 0 0
M  V30 BEGIN ATOM
M  V30 1 N 1.098996 -2.076461 5.787495 0
M  V30 2 C 0.996882 -1.864758 4.662449 0
M  V30 3 C 0.845619 -1.608773 3.233601 0
M  V30 4 C 1.867610 -0.784099 2.735018 0
M  V30 5 C 1.809713 -0.485164 1.391303 0
M  V30 6 C 2.850550 0.375978 0.836416 0
M  V30 7 C 4.102151 0.288334 1.404344 0
M  V30 8 C 5.038881 1.145695 0.833202 0
M  V30 9 N 4.790270 1.979430 -0.160051 0
M  V30 10 C 3.577703 2.087440 -0.734355 0
M  V30 11 N 3.350450 2.985051 -1.804493 0
M  V30 12 C 2.183902 3.363187 -2.508639 0
M  V30 13 C 0.870707 3.345587 -2.109323 0
M  V30 14 N 0.099090 3.772338 -3.123289 0
M  V30 15 N 0.883284 4.059385 -4.148992 0
M  V30 16 C 2.154703 3.823425 -3.812720 0
M  V30 17 C 2.630110 1.258881 -0.199379 0
M  V30 18 C 0.833841 -0.936493 0.529679 0
M  V30 19 C -0.120432 -1.736583 1.112265 0
M  V30 20 C -0.195161 -2.118564 2.431509 0
M  V30 21 O -1.000018 -2.858932 3.183386 0
M  V30 22 C -2.113885 -3.605776 3.188246 0
M  V30 23 C -3.446966 -3.035053 2.893740 0
M  V30 24 C -3.769469 -2.386490 1.606320 0
M  V30 25 C -3.896865 -3.803134 1.024725 0
M  V30 26 C -4.384214 -4.178025 2.434907 0
M  V30 27 H 2.661513 -0.385682 3.307066 0
M  V30 28 H 4.414241 -0.349630 2.210763 0
M  V30 29 H 6.051552 1.126298 1.235185 0
M  V30 30 H 4.228595 3.475236 -2.146027 0
M  V30 31 H 0.404250 3.077966 -1.190884 0
M  V30 32 H 0.627020 4.416684 -5.097251 0
M  V30 33 H 3.017261 3.960679 -4.425507 0
M  V30 34 H 1.631605 1.231722 -0.563452 0
M  V30 35 H 0.750540 -0.727765 -0.523864 0
M  V30 36 H -0.897963 -2.144569 0.506067 0
M  V30 37 H -1.963100 -4.558616 2.576925 0
M  V30 38 H -2.200988 -4.062007 4.243818 0
M  V30 39 H -3.962650 -2.578664 3.787436 0
M  V30 40 H -4.804194 -1.907787 1.674099 0
M  V30 41 H -3.056606 -1.776276 1.077161 0
M  V30 42 H -4.673732 -3.889139 0.253260 0
M  V30 43 H -2.901091 -4.193629 0.816529 0
M  V30 44 H -5.459777 -3.920461 2.510024 0
M  V30 45 H -4.095095 -5.173788 2.781434 0
M  V30 END ATOM
M  V30 BEGIN BOND
M  V30 1 3 1 2
M  V30 2 1 2 3
M  V30 3 2 3 4
M  V30 4 1 4 5
M  V30 5 1 5 6
M  V30 6 2 6 7
M  V30 7 1 7 8
M  V30 8 2 8 9
M  V30 9 1 9 10
M  V30 10 1 10 11
M  V30 11 1 11 12
M  V30 12 1 12 13
M  V30 13 2 13 14
M  V30 14 1 14 15
M  V30 15 1 15 16
M  V30 16 2 10 17
M  V30 17 2 5 18
M  V30 18 1 18 19
M  V30 19 2 19 20
M  V30 20 1 20 21
M  V30 21 1 21 22
M  V30 22 1 22 23
M  V30 23 1 23 24
M  V30 24 1 24 25
M  V30 25 1 25 26
M  V30 26 1 20 3
M  V30 27 1 26 23
M  V30 28 1 17 6
M  V30 29 2 16 12
M  V30 30 1 4 27
M  V30 31 1 7 28
M  V30 32 1 8 29
M  V30 33 1 11 30
M  V30 34 1 13 31
M  V30 35 1 15 32
M  V30 36 1 16 33
M  V30 37 1 17 34
M  V30 38 1 18 35
M  V30 39 1 19 36
M  V30 40 1 22 37
M  V30 41 1 22 38
M  V30 42 1 23 39
M  V30 43 1 24 40
M  V30 44 1 24 41
M  V30 45 1 25 42
M  V30 46 1 25 43
M  V30 47 1 26 44
M  V30 48 1 26 45
M  V30 END BOND
M  V30 END CTAB
M  END
>  <Dataset>  (152) 
ChEMBL_Kinases

>  <Ligand_Instance>  (152) 
nan

>  <PDB_ID>  (152) 
nan

>  <Standardized_SMILES>  (152) 
N#Cc1cc(-c2ccnc(Nc3cn[nH]c3)c2)ccc1OCC1CCC1

>  <Name>  (152) 
nan

>  <Pocket>  (152) 
nan

>  <ATP_Site>  (152) 
nan

>  <Peripheral>  (152) 
nan

>  <Num_H_Atoms_ProtBoundConf>  (152) 
nan

>  <Num_Resolved_Atoms>  (152) 
nan

>  <Num_Not_Resolved_Atoms>  (152) 
nan

$$$$
CHEMBL3687138
     RDKit          3D

  0  0  0  0  0  0  0  0  0  0999 V3000
M  V30 BEGIN CTAB
M  V30 COUNTS 57 61 0 0 0
M  V30 BEGIN ATOM
M  V30 1 N -0.372195 -6.096024 2.799306 0
M  V30 2 C -0.160051 -5.486351 1.840583 0
M  V30 3 C 0.110686 -4.740656 0.620994 0
M  V30 4 C 1.102558 -3.752547 0.718906 0
M  V30 5 C 1.355537 -3.048556 -0.446541 0
M  V30 6 C 2.386119 -2.026363 -0.316604 0
M  V30 7 C 3.438406 -2.200458 0.558698 0
M  V30 8 C 4.414528 -1.222842 0.681419 0
M  V30 9 N 4.313666 -0.110680 -0.065101 0
M  V30 10 C 3.276735 0.069106 -0.933158 0
M  V30 11 N 3.354809 1.328768 -1.628817 0
M  V30 12 C 2.494821 2.076024 -0.750727 0
M  V30 13 C 2.907585 2.736100 0.388387 0
M  V30 14 C 1.915781 3.416458 1.115875 0
M  V30 15 C 0.602353 3.417334 0.703723 0
M  V30 16 N -0.377157 4.108427 1.465578 0
M  V30 17 C -0.167351 4.739926 2.758623 0
M  V30 18 C -1.076986 3.924643 3.693582 0
M  V30 19 O -2.406299 4.131146 3.316114 0
M  V30 20 C -2.594374 3.499110 2.065577 0
M  V30 21 C -1.756266 4.293479 1.055633 0
M  V30 22 C 0.252507 2.739722 -0.441975 0
M  V30 23 N 1.211113 2.076294 -1.154295 0
M  V30 24 C 2.305159 -0.879396 -1.070569 0
M  V30 25 C 0.726007 -3.239420 -1.658426 0
M  V30 26 C -0.239198 -4.224830 -1.690217 0
M  V30 27 C -0.577098 -4.997324 -0.574496 0
M  V30 28 O -1.448086 -5.916651 -0.522688 0
M  V30 29 C -2.386271 -6.825408 -0.682779 0
M  V30 30 C -3.762039 -6.325390 -1.108922 0
M  V30 31 C -4.474365 -5.356226 -0.208993 0
M  V30 32 C -3.971830 -4.952281 -1.568646 0
M  V30 33 H 1.623950 -3.562757 1.640459 0
M  V30 34 H 3.547350 -3.080928 1.171451 0
M  V30 35 H 5.236900 -1.392994 1.385973 0
M  V30 36 H 3.865859 1.604419 -2.484343 0
M  V30 37 H 3.951689 2.688753 0.644156 0
M  V30 38 H 2.297528 3.909117 1.987673 0
M  V30 39 H 0.851429 4.695211 3.133835 0
M  V30 40 H -0.570554 5.781749 2.730763 0
M  V30 41 H -0.872757 4.098650 4.746244 0
M  V30 42 H -0.883838 2.838653 3.464374 0
M  V30 43 H -3.674520 3.528227 1.818661 0
M  V30 44 H -2.213337 2.475234 2.146592 0
M  V30 45 H -1.981095 4.009616 0.029906 0
M  V30 46 H -2.081245 5.355737 1.227068 0
M  V30 47 H -0.748182 2.689785 -0.829722 0
M  V30 48 H 1.517625 -0.664772 -1.776930 0
M  V30 49 H 0.987835 -2.641893 -2.518083 0
M  V30 50 H -0.777083 -4.430472 -2.610635 0
M  V30 51 H -2.531340 -7.511341 0.193750 0
M  V30 52 H -2.101256 -7.551080 -1.515008 0
M  V30 53 H -4.408259 -7.124070 -1.524508 0
M  V30 54 H -3.932529 -5.037315 0.704608 0
M  V30 55 H -5.569133 -5.393400 -0.085967 0
M  V30 56 H -4.742336 -4.724009 -2.337985 0
M  V30 57 H -3.129489 -4.229007 -1.611285 0
M  V30 END ATOM
M  V30 BEGIN BOND
M  V30 1 3 1 2
M  V30 2 1 2 3
M  V30 3 2 3 4
M  V30 4 1 4 5
M  V30 5 1 5 6
M  V30 6 2 6 7
M  V30 7 1 7 8
M  V30 8 2 8 9
M  V30 9 1 9 10
M  V30 10 1 10 11
M  V30 11 1 11 12
M  V30 12 2 12 13
M  V30 13 1 13 14
M  V30 14 2 14 15
M  V30 15 1 15 16
M  V30 16 1 16 17
M  V30 17 1 17 18
M  V30 18 1 18 19
M  V30 19 1 19 20
M  V30 20 1 20 21
M  V30 21 1 15 22
M  V30 22 2 22 23
M  V30 23 2 10 24
M  V30 24 2 5 25
M  V30 25 1 25 26
M  V30 26 2 26 27
M  V30 27 1 27 28
M  V30 28 1 28 29
M  V30 29 1 29 30
M  V30 30 1 30 31
M  V30 31 1 31 32
M  V30 32 1 27 3
M  V30 33 1 32 30
M  V30 34 1 24 6
M  V30 35 1 23 12
M  V30 36 1 21 16
M  V30 37 1 4 33
M  V30 38 1 7 34
M  V30 39 1 8 35
M  V30 40 1 11 36
M  V30 41 1 13 37
M  V30 42 1 14 38
M  V30 43 1 17 39
M  V30 44 1 17 40
M  V30 45 1 18 41
M  V30 46 1 18 42
M  V30 47 1 20 43
M  V30 48 1 20 44
M  V30 49 1 21 45
M  V30 50 1 21 46
M  V30 51 1 22 47
M  V30 52 1 24 48
M  V30 53 1 25 49
M  V30 54 1 26 50
M  V30 55 1 29 51
M  V30 56 1 29 52
M  V30 57 1 30 53
M  V30 58 1 31 54
M  V30 59 1 31 55
M  V30 60 1 32 56
M  V30 61 1 32 57
M  V30 END BOND
M  V30 END CTAB
M  END
>  <Dataset>  (153) 
ChEMBL_Kinases

>  <Ligand_Instance>  (153) 
nan

>  <PDB_ID>  (153) 
nan

>  <Standardized_SMILES>  (153) 
N#Cc1cc(-c2ccnc(Nc3ccc(N4CCOCC4)cn3)c2)ccc1OCC1CC1

>  <Name>  (153) 
nan

>  <Pocket>  (153) 
nan

>  <ATP_Site>  (153) 
nan

>  <Peripheral>  (153) 
nan

>  <Num_H_Atoms_ProtBoundConf>  (153) 
nan

>  <Num_Resolved_Atoms>  (153) 
nan

>  <Num_Not_Resolved_Atoms>  (153) 
nan

$$$$
CHEMBL3687137
     RDKit          3D

  0  0  0  0  0  0  0  0  0  0999 V3000
M  V30 BEGIN CTAB
M  V30 COUNTS 57 61 0 0 0
M  V30 BEGIN ATOM
M  V30 1 C -1.819107 -2.634923 2.082437 0 CHG=-1 VAL=3
M  V30 2 N -1.209365 -2.631259 1.109525 0 CHG=1 VAL=4
M  V30 3 C -0.481299 -2.628678 -0.078915 0
M  V30 4 C 0.701801 -1.850435 -0.140141 0
M  V30 5 C 1.538253 -1.765965 -1.238108 0
M  V30 6 C 2.644116 -0.845296 -1.303419 0
M  V30 7 C 3.287451 -0.612264 -2.583031 0
M  V30 8 C 4.262894 0.326254 -2.401942 0
M  V30 9 N 4.708088 1.027748 -1.332280 0
M  V30 10 C 4.115271 0.820862 -0.137424 0
M  V30 11 N 4.235952 1.340454 1.215532 0
M  V30 12 C 3.070095 1.172993 2.151657 0
M  V30 13 C 2.928226 0.028228 2.967680 0
M  V30 14 C 1.810105 0.634366 3.287244 0
M  V30 15 N 1.075864 1.596765 3.133161 0
M  V30 16 C 0.230858 2.762401 2.912884 0
M  V30 17 C -0.924947 2.641818 3.947713 0
M  V30 18 C -1.705083 1.390021 3.746579 0
M  V30 19 N -1.595694 0.805920 2.426647 0
M  V30 20 C -1.509180 1.786105 1.355498 0
M  V30 21 C -0.414491 2.789643 1.576490 0
M  V30 22 N 2.047395 2.047124 2.240046 0
M  V30 23 C 3.086312 -0.137400 -0.209029 0
M  V30 24 C 1.113600 -2.512084 -2.296832 0
M  V30 25 C -0.013180 -3.293068 -2.363172 0
M  V30 26 C -0.777348 -3.335070 -1.241040 0
M  V30 27 O -1.891916 -4.013364 -0.991546 0
M  V30 28 C -2.963559 -4.676359 -0.778649 0
M  V30 29 C -4.144278 -4.252393 -1.702825 0
M  V30 30 C -3.888714 -4.368672 -3.167897 0
M  V30 31 C -4.856861 -5.332732 -2.438776 0
M  V30 32 H 0.911398 -1.282151 0.785559 0
M  V30 33 H 3.030116 -1.081327 -3.465181 0
M  V30 34 H 4.883040 0.628150 -3.272145 0
M  V30 35 H 5.122887 1.812372 1.450216 0
M  V30 36 H 3.499413 -0.830997 3.126972 0
M  V30 37 H 1.094953 0.129798 4.057904 0
M  V30 38 H 0.684025 3.726836 3.135371 0
M  V30 39 H -0.429634 2.608762 4.959624 0
M  V30 40 H -1.472365 3.576592 3.879884 0
M  V30 41 H -1.309297 0.634415 4.451828 0
M  V30 42 H -2.761473 1.579719 4.026434 0
M  V30 43 H -2.519159 0.310918 2.247005 0
M  V30 44 H -2.505827 2.217820 1.208975 0
M  V30 45 H -1.266461 1.199782 0.443185 0
M  V30 46 H -0.883923 3.814434 1.463736 0
M  V30 47 H 0.369168 2.773614 0.771432 0
M  V30 48 H 2.506541 -0.422142 0.643164 0
M  V30 49 H 1.673672 -2.529758 -3.242922 0
M  V30 50 H -0.327623 -3.857229 -3.204105 0
M  V30 51 H -3.444561 -4.546411 0.273384 0
M  V30 52 H -2.941849 -5.774721 -0.894603 0
M  V30 53 H -4.725986 -3.390226 -1.383803 0
M  V30 54 H -2.981266 -4.838240 -3.551790 0
M  V30 55 H -4.322155 -3.631322 -3.846507 0
M  V30 56 H -4.556682 -6.400844 -2.380280 0
M  V30 57 H -5.926201 -5.222334 -2.740314 0
M  V30 END ATOM
M  V30 BEGIN BOND
M  V30 1 3 1 2
M  V30 2 1 2 3
M  V30 3 2 3 4
M  V30 4 1 4 5
M  V30 5 1 5 6
M  V30 6 2 6 7
M  V30 7 1 7 8
M  V30 8 2 8 9
M  V30 9 1 9 10
M  V30 10 1 10 11
M  V30 11 1 11 12
M  V30 12 1 12 13
M  V30 13 2 13 14
M  V30 14 1 14 15
M  V30 15 1 15 16
M  V30 16 1 16 17
M  V30 17 1 17 18
M  V30 18 1 18 19
M  V30 19 1 19 20
M  V30 20 1 20 21
M  V30 21 1 15 22
M  V30 22 2 10 23
M  V30 23 2 5 24
M  V30 24 1 24 25
M  V30 25 2 25 26
M  V30 26 1 26 27
M  V30 27 1 27 28
M  V30 28 1 28 29
M  V30 29 1 29 30
M  V30 30 1 30 31
M  V30 31 1 26 3
M  V30 32 1 31 29
M  V30 33 1 23 6
M  V30 34 2 22 12
M  V30 35 1 21 16
M  V30 36 1 4 32
M  V30 37 1 7 33
M  V30 38 1 8 34
M  V30 39 1 11 35
M  V30 40 1 13 36
M  V30 41 1 14 37
M  V30 42 1 16 38
M  V30 43 1 17 39
M  V30 44 1 17 40
M  V30 45 1 18 41
M  V30 46 1 18 42
M  V30 47 1 19 43
M  V30 48 1 20 44
M  V30 49 1 20 45
M  V30 50 1 21 46
M  V30 51 1 21 47
M  V30 52 1 23 48
M  V30 53 1 24 49
M  V30 54 1 25 50
M  V30 55 1 28 51
M  V30 56 1 28 52
M  V30 57 1 29 53
M  V30 58 1 30 54
M  V30 59 1 30 55
M  V30 60 1 31 56
M  V30 61 1 31 57
M  V30 END BOND
M  V30 END CTAB
M  END
>  <Dataset>  (154) 
ChEMBL_Kinases

>  <Ligand_Instance>  (154) 
nan

>  <PDB_ID>  (154) 
nan

>  <Standardized_SMILES>  (154) 
[C-]#[N+]c1cc(-c2ccnc(Nc3ccn(C4CCNCC4)n3)c2)ccc1OCC1CC1

>  <Name>  (154) 
nan

>  <Pocket>  (154) 
nan

>  <ATP_Site>  (154) 
nan

>  <Peripheral>  (154) 
nan

>  <Num_H_Atoms_ProtBoundConf>  (154) 
nan

>  <Num_Resolved_Atoms>  (154) 
nan

>  <Num_Not_Resolved_Atoms>  (154) 
nan

$$$$
CHEMBL3687136
     RDKit          3D

  0  0  0  0  0  0  0  0  0  0999 V3000
M  V30 BEGIN CTAB
M  V30 COUNTS 48 51 0 0 0
M  V30 BEGIN ATOM
M  V30 1 N -3.579245 -4.336365 -4.527079 0
M  V30 2 C -2.988169 -3.480122 -4.023450 0
M  V30 3 C -2.268862 -2.410808 -3.377612 0
M  V30 4 C -0.877359 -2.605102 -3.404431 0
M  V30 5 C -0.104111 -1.632249 -2.809376 0
M  V30 6 C 1.347038 -1.791579 -2.812106 0
M  V30 7 C 2.059329 -2.422918 -3.820934 0
M  V30 8 C 3.451721 -2.530374 -3.743383 0
M  V30 9 N 4.097580 -2.011936 -2.673569 0
M  V30 10 C 3.462195 -1.387468 -1.662284 0
M  V30 11 N 4.150648 -0.842450 -0.536645 0
M  V30 12 C 3.445050 -0.189387 0.495720 0
M  V30 13 C 3.324930 1.178093 0.229158 0
M  V30 14 C 2.669208 2.038510 1.099962 0
M  V30 15 C 2.138448 1.482691 2.245739 0
M  V30 16 C 1.427711 2.389836 3.198743 0
M  V30 17 O 2.301624 2.906252 4.131218 0
M  V30 18 C 2.262519 0.126599 2.501094 0
M  V30 19 N 2.909279 -0.681607 1.627998 0
M  V30 20 C 2.112094 -1.302715 -1.772811 0
M  V30 21 C -0.588466 -0.495299 -2.196588 0
M  V30 22 C -1.962734 -0.398517 -2.223993 0
M  V30 23 C -2.860971 -1.281306 -2.775280 0
M  V30 24 O -4.166137 -1.362315 -2.899899 0
M  V30 25 C -5.383183 -0.868139 -2.686351 0
M  V30 26 C -5.928893 -0.674048 -1.317800 0
M  V30 27 C -5.245895 0.258609 -0.326679 0
M  V30 28 C -5.239966 -1.237018 -0.127167 0
M  V30 29 H -0.379128 -3.445537 -3.849087 0
M  V30 30 H 1.491142 -2.819703 -4.654244 0
M  V30 31 H 3.990506 -3.025686 -4.538432 0
M  V30 32 H 5.199340 -0.955754 -0.523858 0
M  V30 33 H 3.715721 1.703224 -0.655874 0
M  V30 34 H 2.557286 3.087308 0.930878 0
M  V30 35 H 0.904860 3.179524 2.632770 0
M  V30 36 H 0.624374 1.791960 3.701418 0
M  V30 37 H 1.845269 2.886922 5.023470 0
M  V30 38 H 1.850592 -0.317417 3.395101 0
M  V30 39 H 1.578719 -0.801752 -0.966217 0
M  V30 40 H -0.008884 0.271358 -1.729335 0
M  V30 41 H -2.418896 0.457246 -1.782201 0
M  V30 42 H -6.160830 -1.384054 -3.335035 0
M  V30 43 H -5.412576 0.188519 -3.150742 0
M  V30 44 H -7.048487 -0.673197 -1.237743 0
M  V30 45 H -4.323617 0.776800 -0.571209 0
M  V30 46 H -5.912634 0.834373 0.369289 0
M  V30 47 H -5.847306 -1.642289 0.706423 0
M  V30 48 H -4.245787 -1.722651 -0.218609 0
M  V30 END ATOM
M  V30 BEGIN BOND
M  V30 1 3 1 2
M  V30 2 1 2 3
M  V30 3 2 3 4
M  V30 4 1 4 5
M  V30 5 1 5 6
M  V30 6 2 6 7
M  V30 7 1 7 8
M  V30 8 2 8 9
M  V30 9 1 9 10
M  V30 10 1 10 11
M  V30 11 1 11 12
M  V30 12 2 12 13
M  V30 13 1 13 14
M  V30 14 2 14 15
M  V30 15 1 15 16
M  V30 16 1 16 17
M  V30 17 1 15 18
M  V30 18 2 18 19
M  V30 19 2 10 20
M  V30 20 2 5 21
M  V30 21 1 21 22
M  V30 22 2 22 23
M  V30 23 1 23 24
M  V30 24 1 24 25
M  V30 25 1 25 26
M  V30 26 1 26 27
M  V30 27 1 27 28
M  V30 28 1 23 3
M  V30 29 1 28 26
M  V30 30 1 20 6
M  V30 31 1 19 12
M  V30 32 1 4 29
M  V30 33 1 7 30
M  V30 34 1 8 31
M  V30 35 1 11 32
M  V30 36 1 13 33
M  V30 37 1 14 34
M  V30 38 1 16 35
M  V30 39 1 16 36
M  V30 40 1 17 37
M  V30 41 1 18 38
M  V30 42 1 20 39
M  V30 43 1 21 40
M  V30 44 1 22 41
M  V30 45 1 25 42
M  V30 46 1 25 43
M  V30 47 1 26 44
M  V30 48 1 27 45
M  V30 49 1 27 46
M  V30 50 1 28 47
M  V30 51 1 28 48
M  V30 END BOND
M  V30 END CTAB
M  END
>  <Dataset>  (155) 
ChEMBL_Kinases

>  <Ligand_Instance>  (155) 
nan

>  <PDB_ID>  (155) 
nan

>  <Standardized_SMILES>  (155) 
N#Cc1cc(-c2ccnc(Nc3ccc(CO)cn3)c2)ccc1OCC1CC1

>  <Name>  (155) 
nan

>  <Pocket>  (155) 
nan

>  <ATP_Site>  (155) 
nan

>  <Peripheral>  (155) 
nan

>  <Num_H_Atoms_ProtBoundConf>  (155) 
nan

>  <Num_Resolved_Atoms>  (155) 
nan

>  <Num_Not_Resolved_Atoms>  (155) 
nan

$$$$
CHEMBL3687135
     RDKit          3D

  0  0  0  0  0  0  0  0  0  0999 V3000
M  V30 BEGIN CTAB
M  V30 COUNTS 52 55 0 0 0
M  V30 BEGIN ATOM
M  V30 1 C 1.294613 -5.658572 2.088543 0
M  V30 2 O 1.186449 -6.192570 0.865502 0
M  V30 3 C 1.568145 -5.525793 -0.209919 0
M  V30 4 C 2.985766 -5.150397 -0.398660 0
M  V30 5 N 3.619056 -4.266627 0.530969 0
M  V30 6 C 3.439141 -2.948590 0.217927 0
M  V30 7 C 4.072907 -2.093258 1.079279 0
M  V30 8 N 4.173865 -0.704780 1.162659 0
M  V30 9 C 3.491147 0.078927 0.191860 0
M  V30 10 C 2.192716 0.448200 0.527859 0
M  V30 11 C 1.372070 1.217750 -0.305158 0
M  V30 12 C 0.018874 1.566057 0.118726 0
M  V30 13 C -0.626975 0.645385 0.916513 0
M  V30 14 C -1.896211 1.022161 1.286755 0
M  V30 15 C -2.591427 2.164505 0.975847 0
M  V30 16 O -3.745085 2.706756 1.204302 0
M  V30 17 C -4.950192 2.626098 1.783706 0
M  V30 18 C -5.932221 1.582518 1.402190 0
M  V30 19 C -5.575705 0.113560 1.590352 0
M  V30 20 C -5.711356 0.696527 0.228975 0
M  V30 21 C -1.842256 3.040506 0.156058 0
M  V30 22 C -2.300863 4.317442 -0.335319 0
M  V30 23 N -2.689463 5.345554 -0.723575 0
M  V30 24 C -0.534154 2.762099 -0.285257 0
M  V30 25 C 1.945584 1.601870 -1.520561 0
M  V30 26 C 3.236636 1.229497 -1.844474 0
M  V30 27 N 3.943608 0.498628 -0.994347 0
M  V30 28 C 4.676298 -2.954082 1.972869 0
M  V30 29 N 4.384018 -4.189633 1.612479 0
M  V30 30 H 2.300429 -5.423791 2.452405 0
M  V30 31 H 0.689014 -4.708993 2.158053 0
M  V30 32 H 0.881711 -6.349117 2.902273 0
M  V30 33 H 1.329607 -6.198494 -1.120329 0
M  V30 34 H 0.958533 -4.568233 -0.381974 0
M  V30 35 H 3.207176 -4.857034 -1.467798 0
M  V30 36 H 3.559290 -6.151731 -0.334577 0
M  V30 37 H 2.894727 -2.434457 -0.576379 0
M  V30 38 H 4.722373 -0.212014 1.897438 0
M  V30 39 H 1.749760 0.150985 1.467740 0
M  V30 40 H -0.232673 -0.296852 1.253401 0
M  V30 41 H -2.438789 0.352220 1.924163 0
M  V30 42 H -4.840863 2.576599 2.942033 0
M  V30 43 H -5.522811 3.637136 1.727519 0
M  V30 44 H -6.998210 1.837056 1.696082 0
M  V30 45 H -4.600013 -0.219872 1.894171 0
M  V30 46 H -6.399490 -0.551951 1.972895 0
M  V30 47 H -6.628837 0.373954 -0.328652 0
M  V30 48 H -4.833965 0.863692 -0.393658 0
M  V30 49 H 0.068120 3.384953 -0.899870 0
M  V30 50 H 1.321307 2.193624 -2.166914 0
M  V30 51 H 3.669914 1.531301 -2.785532 0
M  V30 52 H 5.303044 -2.805263 2.855100 0
M  V30 END ATOM
M  V30 BEGIN BOND
M  V30 1 1 1 2
M  V30 2 1 2 3
M  V30 3 1 3 4
M  V30 4 1 4 5
M  V30 5 1 5 6
M  V30 6 2 6 7
M  V30 7 1 7 8
M  V30 8 1 8 9
M  V30 9 2 9 10
M  V30 10 1 10 11
M  V30 11 1 11 12
M  V30 12 2 12 13
M  V30 13 1 13 14
M  V30 14 2 14 15
M  V30 15 1 15 16
M  V30 16 1 16 17
M  V30 17 1 17 18
M  V30 18 1 18 19
M  V30 19 1 19 20
M  V30 20 1 15 21
M  V30 21 1 21 22
M  V30 22 3 22 23
M  V30 23 2 21 24
M  V30 24 2 11 25
M  V30 25 1 25 26
M  V30 26 2 26 27
M  V30 27 1 7 28
M  V30 28 2 28 29
M  V30 29 1 29 5
M  V30 30 1 27 9
M  V30 31 1 24 12
M  V30 32 1 20 18
M  V30 33 1 1 30
M  V30 34 1 1 31
M  V30 35 1 1 32
M  V30 36 1 3 33
M  V30 37 1 3 34
M  V30 38 1 4 35
M  V30 39 1 4 36
M  V30 40 1 6 37
M  V30 41 1 8 38
M  V30 42 1 10 39
M  V30 43 1 13 40
M  V30 44 1 14 41
M  V30 45 1 17 42
M  V30 46 1 17 43
M  V30 47 1 18 44
M  V30 48 1 19 45
M  V30 49 1 19 46
M  V30 50 1 20 47
M  V30 51 1 20 48
M  V30 52 1 24 49
M  V30 53 1 25 50
M  V30 54 1 26 51
M  V30 55 1 28 52
M  V30 END BOND
M  V30 END CTAB
M  END
>  <Dataset>  (156) 
ChEMBL_Kinases

>  <Ligand_Instance>  (156) 
nan

>  <PDB_ID>  (156) 
nan

>  <Standardized_SMILES>  (156) 
COCCn1cc(Nc2cc(-c3ccc(OCC4CC4)c(C#N)c3)ccn2)cn1

>  <Name>  (156) 
nan

>  <Pocket>  (156) 
nan

>  <ATP_Site>  (156) 
nan

>  <Peripheral>  (156) 
nan

>  <Num_H_Atoms_ProtBoundConf>  (156) 
nan

>  <Num_Resolved_Atoms>  (156) 
nan

>  <Num_Not_Resolved_Atoms>  (156) 
nan

$$$$
CHEMBL3687134
     RDKit          3D

  0  0  0  0  0  0  0  0  0  0999 V3000
M  V30 BEGIN CTAB
M  V30 COUNTS 42 45 0 0 0
M  V30 BEGIN ATOM
M  V30 1 N -1.623235 -5.648279 0.839029 0
M  V30 2 C -1.123359 -4.608196 0.836703 0
M  V30 3 C -0.507693 -3.294031 0.849776 0
M  V30 4 C -0.282677 -2.755872 -0.406474 0
M  V30 5 C 0.293290 -1.517657 -0.526130 0
M  V30 6 C 0.590274 -0.812421 -1.789683 0
M  V30 7 C 0.943276 -1.410591 -3.006124 0
M  V30 8 C 1.178679 -0.565862 -4.087046 0
M  V30 9 N 1.085404 0.769442 -4.024554 0
M  V30 10 C 0.747000 1.398321 -2.874815 0
M  V30 11 N 0.675540 2.813301 -2.852838 0
M  V30 12 C 0.246330 3.733580 -1.864386 0
M  V30 13 C 0.641587 5.024584 -1.596724 0
M  V30 14 N -0.096478 5.473657 -0.574770 0
M  V30 15 N -0.950616 4.562341 -0.154756 0
M  V30 16 C -0.748950 3.471707 -0.948943 0
M  V30 17 C 0.517351 0.566296 -1.815007 0
M  V30 18 C 0.638035 -0.832928 0.637986 0
M  V30 19 C 0.411339 -1.372895 1.878194 0
M  V30 20 C -0.166772 -2.617787 2.030151 0
M  V30 21 O -0.486227 -3.345403 3.145398 0
M  V30 22 C -0.252293 -2.935475 4.472695 0
M  V30 23 C 1.220773 -2.772943 4.707366 0
M  V30 24 C 1.790297 -2.353022 5.984604 0
M  V30 25 C 1.782830 -3.789967 5.707818 0
M  V30 26 H -0.537646 -3.256954 -1.323326 0
M  V30 27 H 1.001235 -2.475641 -2.998888 0
M  V30 28 H 1.450617 -1.031873 -5.021551 0
M  V30 29 H 0.992016 3.331970 -3.709254 0
M  V30 30 H 1.427615 5.558046 -2.145334 0
M  V30 31 H -1.607849 4.770588 0.649248 0
M  V30 32 H -1.400397 2.648197 -0.712486 0
M  V30 33 H 0.253237 1.040134 -0.885090 0
M  V30 34 H 1.107230 0.159299 0.715184 0
M  V30 35 H 0.643480 -0.889166 2.805887 0
M  V30 36 H -0.781243 -1.959777 4.694652 0
M  V30 37 H -0.682519 -3.680216 5.171713 0
M  V30 38 H 1.845082 -2.625855 3.788777 0
M  V30 39 H 1.134637 -1.969007 6.817056 0
M  V30 40 H 2.780022 -1.837307 5.982914 0
M  V30 41 H 1.048875 -4.411858 6.284826 0
M  V30 42 H 2.666794 -4.343023 5.349916 0
M  V30 END ATOM
M  V30 BEGIN BOND
M  V30 1 3 1 2
M  V30 2 1 2 3
M  V30 3 2 3 4
M  V30 4 1 4 5
M  V30 5 1 5 6
M  V30 6 2 6 7
M  V30 7 1 7 8
M  V30 8 2 8 9
M  V30 9 1 9 10
M  V30 10 1 10 11
M  V30 11 1 11 12
M  V30 12 1 12 13
M  V30 13 2 13 14
M  V30 14 1 14 15
M  V30 15 1 15 16
M  V30 16 2 10 17
M  V30 17 2 5 18
M  V30 18 1 18 19
M  V30 19 2 19 20
M  V30 20 1 20 21
M  V30 21 1 21 22
M  V30 22 1 22 23
M  V30 23 1 23 24
M  V30 24 1 24 25
M  V30 25 1 20 3
M  V30 26 1 25 23
M  V30 27 1 17 6
M  V30 28 2 16 12
M  V30 29 1 4 26
M  V30 30 1 7 27
M  V30 31 1 8 28
M  V30 32 1 11 29
M  V30 33 1 13 30
M  V30 34 1 15 31
M  V30 35 1 16 32
M  V30 36 1 17 33
M  V30 37 1 18 34
M  V30 38 1 19 35
M  V30 39 1 22 36
M  V30 40 1 22 37
M  V30 41 1 23 38
M  V30 42 1 24 39
M  V30 43 1 24 40
M  V30 44 1 25 41
M  V30 45 1 25 42
M  V30 END BOND
M  V30 END CTAB
M  END
>  <Dataset>  (157) 
ChEMBL_Kinases

>  <Ligand_Instance>  (157) 
nan

>  <PDB_ID>  (157) 
nan

>  <Standardized_SMILES>  (157) 
N#Cc1cc(-c2ccnc(Nc3cn[nH]c3)c2)ccc1OCC1CC1

>  <Name>  (157) 
nan

>  <Pocket>  (157) 
nan

>  <ATP_Site>  (157) 
nan

>  <Peripheral>  (157) 
nan

>  <Num_H_Atoms_ProtBoundConf>  (157) 
nan

>  <Num_Resolved_Atoms>  (157) 
nan

>  <Num_Not_Resolved_Atoms>  (157) 
nan

$$$$
CHEMBL3687133
     RDKit          3D

  0  0  0  0  0  0  0  0  0  0999 V3000
M  V30 BEGIN CTAB
M  V30 COUNTS 64 68 0 0 0
M  V30 BEGIN ATOM
M  V30 1 N 3.681867 -0.568634 -3.246948 0
M  V30 2 C 2.899939 -1.115247 -2.546694 0
M  V30 3 C 1.958633 -1.794769 -1.677833 0
M  V30 4 C 2.396238 -1.875196 -0.369622 0
M  V30 5 C 1.557854 -2.525963 0.518782 0
M  V30 6 C 1.780500 -2.716437 1.947742 0
M  V30 7 C 1.407974 -3.739757 2.792628 0
M  V30 8 C 1.727303 -3.636736 4.124817 0
M  V30 9 N 2.390441 -2.564880 4.610447 0
M  V30 10 C 2.783110 -1.525955 3.821426 0
M  V30 11 N 3.468358 -0.389758 4.398187 0
M  V30 12 C 2.341607 0.508530 4.371763 0
M  V30 13 C 1.308929 0.679752 5.262306 0
M  V30 14 C 0.342852 1.618782 4.984428 0
M  V30 15 C 0.482484 2.333042 3.813052 0
M  V30 16 C -0.549834 3.363210 3.426581 0
M  V30 17 N -1.525659 2.698098 2.608210 0
M  V30 18 C -2.574542 3.521050 2.104694 0
M  V30 19 C -3.892422 2.775728 2.125437 0
M  V30 20 O -3.752246 1.573317 1.478926 0
M  V30 21 C -2.724247 0.774040 1.907610 0
M  V30 22 C -1.899694 1.387937 3.029231 0
M  V30 23 C 1.508073 2.186108 2.897664 0
M  V30 24 N 2.418989 1.246314 3.236259 0
M  V30 25 C 2.459958 -1.627209 2.463236 0
M  V30 26 C 0.349095 -3.058011 0.083149 0
M  V30 27 C -0.029514 -2.943101 -1.237163 0
M  V30 28 C 0.768347 -2.304040 -2.163304 0
M  V30 29 O 0.551558 -2.097002 -3.509667 0
M  V30 30 C -0.573018 -2.525639 -4.202121 0
M  V30 31 C -0.196107 -3.464220 -5.334756 0
M  V30 32 C -1.487207 -3.971410 -5.936720 0
M  V30 33 O -2.216518 -2.905268 -6.430263 0
M  V30 34 C -2.578767 -1.978286 -5.483286 0
M  V30 35 C -1.318663 -1.368235 -4.876572 0
M  V30 36 H 3.304241 -1.497721 0.039747 0
M  V30 37 H 0.888676 -4.524864 2.264605 0
M  V30 38 H 1.409886 -4.469660 4.739490 0
M  V30 39 H 4.464256 -0.399981 4.682711 0
M  V30 40 H 1.380682 0.033112 6.105850 0
M  V30 41 H -0.456801 1.748928 5.677951 0
M  V30 42 H -0.091447 4.212899 2.874152 0
M  V30 43 H -1.041452 3.793269 4.341432 0
M  V30 44 H -2.599549 4.493136 2.600353 0
M  V30 45 H -2.354379 3.743598 1.016017 0
M  V30 46 H -4.215581 2.715777 3.177637 0
M  V30 47 H -4.626604 3.370428 1.506871 0
M  V30 48 H -2.016244 0.641844 1.045241 0
M  V30 49 H -3.075433 -0.252124 2.145176 0
M  V30 50 H -2.417478 1.364289 4.005909 0
M  V30 51 H -1.012965 0.741457 3.135553 0
M  V30 52 H 1.562923 2.777652 1.994539 0
M  V30 53 H 2.822115 -0.742239 1.926212 0
M  V30 54 H -0.341863 -3.574658 0.728370 0
M  V30 55 H -0.966931 -3.336347 -1.644155 0
M  V30 56 H -1.331054 -3.071692 -3.612177 0
M  V30 57 H 0.481296 -4.265782 -5.037806 0
M  V30 58 H 0.284178 -2.814065 -6.122586 0
M  V30 59 H -2.046718 -4.484610 -5.122595 0
M  V30 60 H -1.300614 -4.650909 -6.805737 0
M  V30 61 H -3.240686 -2.371358 -4.680820 0
M  V30 62 H -3.191195 -1.195582 -5.998456 0
M  V30 63 H -0.705662 -0.948074 -5.688796 0
M  V30 64 H -1.620802 -0.592259 -4.152598 0
M  V30 END ATOM
M  V30 BEGIN BOND
M  V30 1 3 1 2
M  V30 2 1 2 3
M  V30 3 2 3 4
M  V30 4 1 4 5
M  V30 5 1 5 6
M  V30 6 2 6 7
M  V30 7 1 7 8
M  V30 8 2 8 9
M  V30 9 1 9 10
M  V30 10 1 10 11
M  V30 11 1 11 12
M  V30 12 2 12 13
M  V30 13 1 13 14
M  V30 14 2 14 15
M  V30 15 1 15 16
M  V30 16 1 16 17
M  V30 17 1 17 18
M  V30 18 1 18 19
M  V30 19 1 19 20
M  V30 20 1 20 21
M  V30 21 1 21 22
M  V30 22 1 15 23
M  V30 23 2 23 24
M  V30 24 2 10 25
M  V30 25 2 5 26
M  V30 26 1 26 27
M  V30 27 2 27 28
M  V30 28 1 28 29
M  V30 29 1 29 30
M  V30 30 1 30 31
M  V30 31 1 31 32
M  V30 32 1 32 33
M  V30 33 1 33 34
M  V30 34 1 34 35
M  V30 35 1 28 3
M  V30 36 1 35 30
M  V30 37 1 25 6
M  V30 38 1 24 12
M  V30 39 1 22 17
M  V30 40 1 4 36
M  V30 41 1 7 37
M  V30 42 1 8 38
M  V30 43 1 11 39
M  V30 44 1 13 40
M  V30 45 1 14 41
M  V30 46 1 16 42
M  V30 47 1 16 43
M  V30 48 1 18 44
M  V30 49 1 18 45
M  V30 50 1 19 46
M  V30 51 1 19 47
M  V30 52 1 21 48
M  V30 53 1 21 49
M  V30 54 1 22 50
M  V30 55 1 22 51
M  V30 56 1 23 52
M  V30 57 1 25 53
M  V30 58 1 26 54
M  V30 59 1 27 55
M  V30 60 1 30 56
M  V30 61 1 31 57
M  V30 62 1 31 58
M  V30 63 1 32 59
M  V30 64 1 32 60
M  V30 65 1 34 61
M  V30 66 1 34 62
M  V30 67 1 35 63
M  V30 68 1 35 64
M  V30 END BOND
M  V30 END CTAB
M  END
>  <Dataset>  (158) 
ChEMBL_Kinases

>  <Ligand_Instance>  (158) 
nan

>  <PDB_ID>  (158) 
nan

>  <Standardized_SMILES>  (158) 
N#Cc1cc(-c2ccnc(Nc3ccc(CN4CCOCC4)cn3)c2)ccc1OC1CCOCC1

>  <Name>  (158) 
nan

>  <Pocket>  (158) 
nan

>  <ATP_Site>  (158) 
nan

>  <Peripheral>  (158) 
nan

>  <Num_H_Atoms_ProtBoundConf>  (158) 
nan

>  <Num_Resolved_Atoms>  (158) 
nan

>  <Num_Not_Resolved_Atoms>  (158) 
nan

$$$$
CHEMBL3687132
     RDKit          3D

  0  0  0  0  0  0  0  0  0  0999 V3000
M  V30 BEGIN CTAB
M  V30 COUNTS 54 57 0 0 0
M  V30 BEGIN ATOM
M  V30 1 C 2.459993 -1.552735 7.850097 0
M  V30 2 O 2.744682 -2.116331 6.608249 0
M  V30 3 C 4.129849 -2.241733 6.513911 0
M  V30 4 C 4.528429 -2.849378 5.188123 0
M  V30 5 N 4.078329 -2.025966 4.071574 0
M  V30 6 C 4.767376 -1.027420 3.492296 0
M  V30 7 C 4.011204 -0.488295 2.471803 0
M  V30 8 N 4.246357 0.566898 1.550273 0
M  V30 9 C 3.382360 1.043281 0.530958 0
M  V30 10 N 3.850888 2.078085 -0.226945 0
M  V30 11 C 3.118751 2.598668 -1.209033 0
M  V30 12 C 1.873953 2.067605 -1.443510 0
M  V30 13 C 1.367590 1.025930 -0.702191 0
M  V30 14 C 0.045031 0.494608 -0.984392 0
M  V30 15 C -0.766580 0.982296 -1.982853 0
M  V30 16 C -2.022772 0.487423 -2.260411 0
M  V30 17 C -2.536788 -0.556682 -1.520166 0
M  V30 18 O -3.795276 -1.103748 -1.746355 0
M  V30 19 C -4.551074 -0.540381 -2.787002 0
M  V30 20 C -5.896671 -1.188906 -2.964409 0
M  V30 21 C -6.634616 -0.516391 -4.103358 0
M  V30 22 C -5.942264 -1.480545 -5.044279 0
M  V30 23 C -5.754050 -2.406970 -3.862374 0
M  V30 24 C -1.766464 -1.094218 -0.496714 0
M  V30 25 C -2.285887 -2.175673 0.278086 0
M  V30 26 N -2.719224 -3.048753 0.889456 0
M  V30 27 C -0.520461 -0.545173 -0.280459 0
M  V30 28 N 2.170195 0.564343 0.263866 0
M  V30 29 C 2.849622 -1.227332 2.491732 0
M  V30 30 N 2.888951 -2.160905 3.462136 0
M  V30 31 H 1.356130 -1.433220 7.969409 0
M  V30 32 H 2.840300 -2.254799 8.637888 0
M  V30 33 H 2.926253 -0.551639 7.929200 0
M  V30 34 H 4.588441 -1.263972 6.668138 0
M  V30 35 H 4.446991 -2.941123 7.304661 0
M  V30 36 H 5.624352 -2.910631 5.170524 0
M  V30 37 H 4.055201 -3.842972 5.108074 0
M  V30 38 H 5.760448 -0.651724 3.734764 0
M  V30 39 H 5.176880 0.990156 1.700488 0
M  V30 40 H 3.557613 3.417843 -1.766926 0
M  V30 41 H 1.354550 2.552141 -2.257144 0
M  V30 42 H -0.461390 1.795931 -2.618934 0
M  V30 43 H -2.640848 0.890727 -3.053283 0
M  V30 44 H -3.939595 -0.643944 -3.705816 0
M  V30 45 H -4.617413 0.554641 -2.579706 0
M  V30 46 H -6.464919 -1.384085 -2.052849 0
M  V30 47 H -6.313719 0.522401 -4.299716 0
M  V30 48 H -7.724677 -0.701686 -4.126938 0
M  V30 49 H -4.973785 -1.066729 -5.411144 0
M  V30 50 H -6.600857 -1.877684 -5.842193 0
M  V30 51 H -4.775846 -2.917667 -3.815384 0
M  V30 52 H -6.571644 -3.146231 -3.767864 0
M  V30 53 H 0.019557 -1.013065 0.529516 0
M  V30 54 H 1.947502 -1.207721 1.905822 0
M  V30 END ATOM
M  V30 BEGIN BOND
M  V30 1 1 1 2
M  V30 2 1 2 3
M  V30 3 1 3 4
M  V30 4 1 4 5
M  V30 5 1 5 6
M  V30 6 2 6 7
M  V30 7 1 7 8
M  V30 8 1 8 9
M  V30 9 2 9 10
M  V30 10 1 10 11
M  V30 11 2 11 12
M  V30 12 1 12 13
M  V30 13 1 13 14
M  V30 14 2 14 15
M  V30 15 1 15 16
M  V30 16 2 16 17
M  V30 17 1 17 18
M  V30 18 1 18 19
M  V30 19 1 19 20
M  V30 20 1 20 21
M  V30 21 1 21 22
M  V30 22 1 22 23
M  V30 23 1 17 24
M  V30 24 1 24 25
M  V30 25 3 25 26
M  V30 26 2 24 27
M  V30 27 2 13 28
M  V30 28 1 7 29
M  V30 29 2 29 30
M  V30 30 1 30 5
M  V30 31 1 28 9
M  V30 32 1 27 14
M  V30 33 1 23 20
M  V30 34 1 1 31
M  V30 35 1 1 32
M  V30 36 1 1 33
M  V30 37 1 3 34
M  V30 38 1 3 35
M  V30 39 1 4 36
M  V30 40 1 4 37
M  V30 41 1 6 38
M  V30 42 1 8 39
M  V30 43 1 11 40
M  V30 44 1 12 41
M  V30 45 1 15 42
M  V30 46 1 16 43
M  V30 47 1 19 44
M  V30 48 1 19 45
M  V30 49 1 20 46
M  V30 50 1 21 47
M  V30 51 1 21 48
M  V30 52 1 22 49
M  V30 53 1 22 50
M  V30 54 1 23 51
M  V30 55 1 23 52
M  V30 56 1 27 53
M  V30 57 1 29 54
M  V30 END BOND
M  V30 END CTAB
M  END
>  <Dataset>  (159) 
ChEMBL_Kinases

>  <Ligand_Instance>  (159) 
nan

>  <PDB_ID>  (159) 
nan

>  <Standardized_SMILES>  (159) 
COCCn1cc(Nc2nccc(-c3ccc(OCC4CCC4)c(C#N)c3)n2)cn1

>  <Name>  (159) 
nan

>  <Pocket>  (159) 
nan

>  <ATP_Site>  (159) 
nan

>  <Peripheral>  (159) 
nan

>  <Num_H_Atoms_ProtBoundConf>  (159) 
nan

>  <Num_Resolved_Atoms>  (159) 
nan

>  <Num_Not_Resolved_Atoms>  (159) 
nan

$$$$
CHEMBL3687131
     RDKit          3D

  0  0  0  0  0  0  0  0  0  0999 V3000
M  V30 BEGIN CTAB
M  V30 COUNTS 51 54 0 0 0
M  V30 BEGIN ATOM
M  V30 1 N 0.225301 -5.870496 -0.274204 0
M  V30 2 C 0.111529 -4.748482 -0.125114 0
M  V30 3 C -0.044619 -3.316077 0.073571 0
M  V30 4 C 0.897610 -2.533800 -0.611879 0
M  V30 5 C 0.879125 -1.157901 -0.521979 0
M  V30 6 C 1.833256 -0.292364 -1.212617 0
M  V30 7 C 2.349771 -0.695791 -2.451933 0
M  V30 8 C 3.248962 0.126458 -3.096418 0
M  V30 9 N 3.640549 1.292094 -2.575404 0
M  V30 10 C 3.164640 1.726321 -1.371426 0
M  V30 11 N 3.608878 2.973961 -0.853121 0
M  V30 12 C 3.206181 3.561860 0.376734 0
M  V30 13 N 3.901581 3.293095 1.519080 0
M  V30 14 C 3.499886 3.866913 2.683357 0
M  V30 15 C 2.413564 4.707469 2.732526 0
M  V30 16 N 1.744134 4.959451 1.603405 0
M  V30 17 C 2.105049 4.411782 0.417262 0
M  V30 18 C 1.317150 4.727046 -0.824726 0
M  V30 19 O 0.507568 3.656515 -1.154625 0
M  V30 20 C 2.263416 0.918482 -0.709444 0
M  V30 21 C -0.097584 -0.580419 0.264857 0
M  V30 22 C -1.024799 -1.346624 0.939557 0
M  V30 23 C -1.035124 -2.723172 0.871944 0
M  V30 24 O -1.829458 -3.694524 1.432722 0
M  V30 25 C -2.891050 -3.410984 2.271256 0
M  V30 26 C -2.751248 -4.049506 3.632105 0
M  V30 27 C -3.477996 -5.372345 3.610132 0
M  V30 28 O -3.433206 -6.004653 2.387128 0
M  V30 29 C -4.130090 -5.329691 1.409810 0
M  V30 30 C -4.231029 -3.866685 1.731938 0
M  V30 31 H 1.669340 -2.958075 -1.231982 0
M  V30 32 H 2.054700 -1.636905 -2.906866 0
M  V30 33 H 3.690415 -0.123969 -4.061757 0
M  V30 34 H 4.280377 3.539218 -1.374995 0
M  V30 35 H 4.017890 3.688533 3.629041 0
M  V30 36 H 2.075611 5.177207 3.655016 0
M  V30 37 H 0.669340 5.595011 -0.595577 0
M  V30 38 H 1.978885 5.031284 -1.664947 0
M  V30 39 H -0.406053 3.966684 -1.268522 0
M  V30 40 H 1.878740 1.243986 0.238326 0
M  V30 41 H -0.208736 0.499185 0.410370 0
M  V30 42 H -1.805081 -0.954307 1.564477 0
M  V30 43 H -2.977976 -2.318222 2.406595 0
M  V30 44 H -3.253288 -3.383118 4.362704 0
M  V30 45 H -1.696304 -4.155699 3.958418 0
M  V30 46 H -2.922251 -6.030452 4.337274 0
M  V30 47 H -4.524845 -5.301089 4.015323 0
M  V30 48 H -3.562992 -5.465356 0.449523 0
M  V30 49 H -5.138056 -5.779796 1.208573 0
M  V30 50 H -4.969650 -3.722947 2.545899 0
M  V30 51 H -4.574314 -3.265814 0.873270 0
M  V30 END ATOM
M  V30 BEGIN BOND
M  V30 1 3 1 2
M  V30 2 1 2 3
M  V30 3 2 3 4
M  V30 4 1 4 5
M  V30 5 1 5 6
M  V30 6 2 6 7
M  V30 7 1 7 8
M  V30 8 2 8 9
M  V30 9 1 9 10
M  V30 10 1 10 11
M  V30 11 1 11 12
M  V30 12 2 12 13
M  V30 13 1 13 14
M  V30 14 2 14 15
M  V30 15 1 15 16
M  V30 16 2 16 17
M  V30 17 1 17 18
M  V30 18 1 18 19
M  V30 19 2 10 20
M  V30 20 2 5 21
M  V30 21 1 21 22
M  V30 22 2 22 23
M  V30 23 1 23 24
M  V30 24 1 24 25
M  V30 25 1 25 26
M  V30 26 1 26 27
M  V30 27 1 27 28
M  V30 28 1 28 29
M  V30 29 1 29 30
M  V30 30 1 23 3
M  V30 31 1 30 25
M  V30 32 1 20 6
M  V30 33 1 17 12
M  V30 34 1 4 31
M  V30 35 1 7 32
M  V30 36 1 8 33
M  V30 37 1 11 34
M  V30 38 1 14 35
M  V30 39 1 15 36
M  V30 40 1 18 37
M  V30 41 1 18 38
M  V30 42 1 19 39
M  V30 43 1 20 40
M  V30 44 1 21 41
M  V30 45 1 22 42
M  V30 46 1 25 43
M  V30 47 1 26 44
M  V30 48 1 26 45
M  V30 49 1 27 46
M  V30 50 1 27 47
M  V30 51 1 29 48
M  V30 52 1 29 49
M  V30 53 1 30 50
M  V30 54 1 30 51
M  V30 END BOND
M  V30 END CTAB
M  END
>  <Dataset>  (160) 
ChEMBL_Kinases

>  <Ligand_Instance>  (160) 
nan

>  <PDB_ID>  (160) 
nan

>  <Standardized_SMILES>  (160) 
N#Cc1cc(-c2ccnc(Nc3nccnc3CO)c2)ccc1OC1CCOCC1

>  <Name>  (160) 
nan

>  <Pocket>  (160) 
nan

>  <ATP_Site>  (160) 
nan

>  <Peripheral>  (160) 
nan

>  <Num_H_Atoms_ProtBoundConf>  (160) 
nan

>  <Num_Resolved_Atoms>  (160) 
nan

>  <Num_Not_Resolved_Atoms>  (160) 
nan

$$$$
CHEMBL3687130
     RDKit          3D

  0  0  0  0  0  0  0  0  0  0999 V3000
M  V30 BEGIN CTAB
M  V30 COUNTS 61 65 0 0 0
M  V30 BEGIN ATOM
M  V30 1 N 2.667736 -4.800220 -2.951504 0
M  V30 2 C 2.085822 -4.447567 -2.006660 0
M  V30 3 C 1.353506 -4.025543 -0.847509 0
M  V30 4 C 1.833090 -3.062948 0.017676 0
M  V30 5 C 1.061286 -2.727099 1.096630 0
M  V30 6 C 1.569575 -1.712175 2.008589 0
M  V30 7 C 1.233768 -1.782574 3.354058 0
M  V30 8 C 1.634788 -0.901641 4.331265 0
M  V30 9 N 2.420572 0.112838 3.938899 0
M  V30 10 C 2.790410 0.251002 2.653875 0
M  V30 11 N 3.633488 1.339056 2.237220 0
M  V30 12 C 2.607158 2.277086 1.964166 0
M  V30 13 C 2.239106 3.087901 3.018574 0
M  V30 14 C 1.264415 4.065385 2.971164 0
M  V30 15 C 0.611787 4.227145 1.743048 0
M  V30 16 C -0.445083 5.268181 1.646468 0
M  V30 17 C -1.826506 4.650431 1.395650 0
M  V30 18 C -2.149061 4.814080 -0.065055 0
M  V30 19 O -2.397689 6.141416 -0.384470 0
M  V30 20 C -1.567873 6.979241 0.351059 0
M  V30 21 C -0.220855 6.284687 0.582755 0
M  V30 22 N 0.987183 3.425314 0.728593 0
M  V30 23 N 1.929673 2.499220 0.820933 0
M  V30 24 C 2.385550 -0.634958 1.677963 0
M  V30 25 C -0.185391 -3.275947 1.408322 0
M  V30 26 C -0.602424 -4.241005 0.488054 0
M  V30 27 C 0.115883 -4.640284 -0.629468 0
M  V30 28 O -0.383467 -5.527575 -1.379047 0
M  V30 29 C -0.851519 -6.447980 -2.197532 0
M  V30 30 C -2.139377 -6.000444 -2.881833 0
M  V30 31 C -2.940278 -7.146859 -3.385546 0
M  V30 32 O -3.177170 -8.174003 -2.512151 0
M  V30 33 C -2.580215 -7.895925 -1.293979 0
M  V30 34 C -1.073667 -7.815366 -1.546915 0
M  V30 35 H 2.786816 -2.601342 -0.166183 0
M  V30 36 H 0.596198 -2.595682 3.707065 0
M  V30 37 H 1.327514 -1.026737 5.362423 0
M  V30 38 H 4.591940 1.658900 2.079891 0
M  V30 39 H 2.713865 3.004123 3.993868 0
M  V30 40 H 1.001655 4.680585 3.812122 0
M  V30 41 H -0.507624 5.772109 2.632276 0
M  V30 42 H -2.594438 5.123193 2.037193 0
M  V30 43 H -1.709037 3.569592 1.602790 0
M  V30 44 H -1.284680 4.483856 -0.674197 0
M  V30 45 H -3.036796 4.200127 -0.291850 0
M  V30 46 H -2.090103 7.164085 1.311247 0
M  V30 47 H -1.414563 7.920102 -0.204030 0
M  V30 48 H 0.145281 5.911225 -0.372432 0
M  V30 49 H 0.447018 7.100366 0.983666 0
M  V30 50 H 2.661261 -0.558845 0.634613 0
M  V30 51 H -0.771041 -2.998782 2.254793 0
M  V30 52 H -1.584233 -4.679732 0.725656 0
M  V30 53 H -0.129623 -6.658041 -3.037855 0
M  V30 54 H -2.703178 -5.364233 -2.199999 0
M  V30 55 H -1.848641 -5.379590 -3.750263 0
M  V30 56 H -2.508958 -7.598181 -4.306561 0
M  V30 57 H -3.953212 -6.765886 -3.705501 0
M  V30 58 H -2.884432 -6.911339 -0.886449 0
M  V30 59 H -2.830193 -8.721342 -0.607484 0
M  V30 60 H -0.819548 -8.639585 -2.237930 0
M  V30 61 H -0.513282 -7.912433 -0.614729 0
M  V30 END ATOM
M  V30 BEGIN BOND
M  V30 1 3 1 2
M  V30 2 1 2 3
M  V30 3 2 3 4
M  V30 4 1 4 5
M  V30 5 1 5 6
M  V30 6 2 6 7
M  V30 7 1 7 8
M  V30 8 2 8 9
M  V30 9 1 9 10
M  V30 10 1 10 11
M  V30 11 1 11 12
M  V30 12 2 12 13
M  V30 13 1 13 14
M  V30 14 2 14 15
M  V30 15 1 15 16
M  V30 16 1 16 17
M  V30 17 1 17 18
M  V30 18 1 18 19
M  V30 19 1 19 20
M  V30 20 1 20 21
M  V30 21 1 15 22
M  V30 22 2 22 23
M  V30 23 2 10 24
M  V30 24 2 5 25
M  V30 25 1 25 26
M  V30 26 2 26 27
M  V30 27 1 27 28
M  V30 28 1 28 29
M  V30 29 1 29 30
M  V30 30 1 30 31
M  V30 31 1 31 32
M  V30 32 1 32 33
M  V30 33 1 33 34
M  V30 34 1 27 3
M  V30 35 1 34 29
M  V30 36 1 24 6
M  V30 37 1 23 12
M  V30 38 1 21 16
M  V30 39 1 4 35
M  V30 40 1 7 36
M  V30 41 1 8 37
M  V30 42 1 11 38
M  V30 43 1 13 39
M  V30 44 1 14 40
M  V30 45 1 16 41
M  V30 46 1 17 42
M  V30 47 1 17 43
M  V30 48 1 18 44
M  V30 49 1 18 45
M  V30 50 1 20 46
M  V30 51 1 20 47
M  V30 52 1 21 48
M  V30 53 1 21 49
M  V30 54 1 24 50
M  V30 55 1 25 51
M  V30 56 1 26 52
M  V30 57 1 29 53
M  V30 58 1 30 54
M  V30 59 1 30 55
M  V30 60 1 31 56
M  V30 61 1 31 57
M  V30 62 1 33 58
M  V30 63 1 33 59
M  V30 64 1 34 60
M  V30 65 1 34 61
M  V30 END BOND
M  V30 END CTAB
M  END
>  <Dataset>  (161) 
ChEMBL_Kinases

>  <Ligand_Instance>  (161) 
nan

>  <PDB_ID>  (161) 
nan

>  <Standardized_SMILES>  (161) 
N#Cc1cc(-c2ccnc(Nc3ccc(C4CCOCC4)nn3)c2)ccc1OC1CCOCC1

>  <Name>  (161) 
nan

>  <Pocket>  (161) 
nan

>  <ATP_Site>  (161) 
nan

>  <Peripheral>  (161) 
nan

>  <Num_H_Atoms_ProtBoundConf>  (161) 
nan

>  <Num_Resolved_Atoms>  (161) 
nan

>  <Num_Not_Resolved_Atoms>  (161) 
nan

$$$$
CHEMBL3687129
     RDKit          3D

  0  0  0  0  0  0  0  0  0  0999 V3000
M  V30 BEGIN CTAB
M  V30 COUNTS 51 54 0 0 0
M  V30 BEGIN ATOM
M  V30 1 N 0.239935 -6.131958 -0.087668 0
M  V30 2 C 0.135261 -4.997486 -0.092788 0
M  V30 3 C -0.022441 -3.557554 -0.093776 0
M  V30 4 C 0.999969 -2.872043 -0.762532 0
M  V30 5 C 1.001078 -1.497224 -0.855872 0
M  V30 6 C 2.025533 -0.709542 -1.531973 0
M  V30 7 C 2.688784 -1.213455 -2.638517 0
M  V30 8 C 3.643103 -0.409774 -3.222722 0
M  V30 9 N 3.939275 0.811887 -2.762854 0
M  V30 10 C 3.334551 1.360282 -1.695264 0
M  V30 11 N 3.687000 2.660144 -1.250363 0
M  V30 12 C 3.169203 3.398363 -0.154385 0
M  V30 13 C 3.633084 4.662599 0.132054 0
M  V30 14 N 3.171344 5.380586 1.149598 0
M  V30 15 C 2.215352 4.910934 1.966863 0
M  V30 16 C 1.643711 5.646177 3.125517 0
M  V30 17 O 0.535576 6.407238 2.753028 0
M  V30 18 C 1.723851 3.663560 1.723978 0
M  V30 19 N 2.217673 2.978764 0.690622 0
M  V30 20 C 2.381343 0.553083 -1.114790 0
M  V30 21 C -0.044841 -0.817373 -0.264884 0
M  V30 22 C -1.050536 -1.490142 0.392840 0
M  V30 23 C -1.084952 -2.862532 0.506338 0
M  V30 24 O -1.950494 -3.752009 1.093450 0
M  V30 25 C -3.099090 -3.346103 1.766028 0
M  V30 26 C -3.105255 -3.765979 3.220094 0
M  V30 27 C -3.297851 -5.272051 3.238654 0
M  V30 28 O -4.574371 -5.521650 2.781204 0
M  V30 29 C -4.626307 -5.316480 1.405022 0
M  V30 30 C -4.369858 -3.869692 1.130035 0
M  V30 31 H 1.831929 -3.367984 -1.235693 0
M  V30 32 H 2.445718 -2.199270 -3.004840 0
M  V30 33 H 4.196379 -0.748962 -4.092652 0
M  V30 34 H 4.434190 3.144189 -1.808184 0
M  V30 35 H 4.408366 5.145932 -0.463200 0
M  V30 36 H 2.397772 6.367983 3.528227 0
M  V30 37 H 1.324690 4.948414 3.918673 0
M  V30 38 H -0.299449 6.063073 3.160681 0
M  V30 39 H 0.952561 3.164379 2.303805 0
M  V30 40 H 1.839925 0.893452 -0.258534 0
M  V30 41 H -0.156012 0.267251 -0.270248 0
M  V30 42 H -1.887055 -1.015489 0.870074 0
M  V30 43 H -3.179762 -2.246254 1.737551 0
M  V30 44 H -4.004744 -3.280511 3.677458 0
M  V30 45 H -2.182237 -3.436983 3.708982 0
M  V30 46 H -2.572837 -5.738357 2.561586 0
M  V30 47 H -3.208176 -5.603480 4.285603 0
M  V30 48 H -5.684585 -5.528277 1.119131 0
M  V30 49 H -3.976546 -6.013665 0.830141 0
M  V30 50 H -4.379207 -3.672353 0.037661 0
M  V30 51 H -5.212844 -3.300365 1.571501 0
M  V30 END ATOM
M  V30 BEGIN BOND
M  V30 1 3 1 2
M  V30 2 1 2 3
M  V30 3 2 3 4
M  V30 4 1 4 5
M  V30 5 1 5 6
M  V30 6 2 6 7
M  V30 7 1 7 8
M  V30 8 2 8 9
M  V30 9 1 9 10
M  V30 10 1 10 11
M  V30 11 1 11 12
M  V30 12 2 12 13
M  V30 13 1 13 14
M  V30 14 2 14 15
M  V30 15 1 15 16
M  V30 16 1 16 17
M  V30 17 1 15 18
M  V30 18 2 18 19
M  V30 19 2 10 20
M  V30 20 2 5 21
M  V30 21 1 21 22
M  V30 22 2 22 23
M  V30 23 1 23 24
M  V30 24 1 24 25
M  V30 25 1 25 26
M  V30 26 1 26 27
M  V30 27 1 27 28
M  V30 28 1 28 29
M  V30 29 1 29 30
M  V30 30 1 23 3
M  V30 31 1 30 25
M  V30 32 1 20 6
M  V30 33 1 19 12
M  V30 34 1 4 31
M  V30 35 1 7 32
M  V30 36 1 8 33
M  V30 37 1 11 34
M  V30 38 1 13 35
M  V30 39 1 16 36
M  V30 40 1 16 37
M  V30 41 1 17 38
M  V30 42 1 18 39
M  V30 43 1 20 40
M  V30 44 1 21 41
M  V30 45 1 22 42
M  V30 46 1 25 43
M  V30 47 1 26 44
M  V30 48 1 26 45
M  V30 49 1 27 46
M  V30 50 1 27 47
M  V30 51 1 29 48
M  V30 52 1 29 49
M  V30 53 1 30 50
M  V30 54 1 30 51
M  V30 END BOND
M  V30 END CTAB
M  END
>  <Dataset>  (162) 
ChEMBL_Kinases

>  <Ligand_Instance>  (162) 
nan

>  <PDB_ID>  (162) 
nan

>  <Standardized_SMILES>  (162) 
N#Cc1cc(-c2ccnc(Nc3cnc(CO)cn3)c2)ccc1OC1CCOCC1

>  <Name>  (162) 
nan

>  <Pocket>  (162) 
nan

>  <ATP_Site>  (162) 
nan

>  <Peripheral>  (162) 
nan

>  <Num_H_Atoms_ProtBoundConf>  (162) 
nan

>  <Num_Resolved_Atoms>  (162) 
nan

>  <Num_Not_Resolved_Atoms>  (162) 
nan

$$$$
CHEMBL3687128
     RDKit          3D

  0  0  0  0  0  0  0  0  0  0999 V3000
M  V30 BEGIN CTAB
M  V30 COUNTS 61 65 0 0 0
M  V30 BEGIN ATOM
M  V30 1 N -2.784414 -1.663875 0.322002 0
M  V30 2 C -1.735781 -2.122188 0.147187 0
M  V30 3 C -0.429264 -2.686497 -0.092729 0
M  V30 4 C 0.538669 -2.344094 0.838261 0
M  V30 5 C 1.828705 -2.818639 0.721927 0
M  V30 6 C 2.917155 -2.518369 1.642721 0
M  V30 7 C 3.991644 -3.291421 1.994857 0
M  V30 8 C 4.936207 -2.845647 2.889248 0
M  V30 9 N 4.848935 -1.620718 3.464591 0
M  V30 10 C 3.811372 -0.820005 3.152741 0
M  V30 11 N 3.671214 0.488032 3.732920 0
M  V30 12 C 2.559587 1.305821 3.383721 0
M  V30 13 C 2.454475 2.214641 2.348819 0
M  V30 14 N 1.302509 2.899586 2.182273 0
M  V30 15 C 0.253544 2.701319 3.021056 0
M  V30 16 C -1.010238 3.459524 2.826730 0
M  V30 17 C -1.544115 3.045157 1.462088 0
M  V30 18 C -2.737163 3.884262 1.064251 0
M  V30 19 O -2.295115 5.199585 0.964891 0
M  V30 20 C -1.948579 5.682537 2.204104 0
M  V30 21 C -0.794345 4.938614 2.846749 0
M  V30 22 C 0.353556 1.783616 4.069735 0
M  V30 23 N 1.517609 1.109421 4.216352 0
M  V30 24 C 2.846151 -1.258338 2.247780 0
M  V30 25 C 2.098003 -3.638598 -0.353255 0
M  V30 26 C 1.152977 -3.985006 -1.279814 0
M  V30 27 C -0.152733 -3.519152 -1.183326 0
M  V30 28 O -1.225042 -3.743121 -1.988528 0
M  V30 29 C -1.323551 -4.504680 -3.143093 0
M  V30 30 C -1.662390 -3.733330 -4.374873 0
M  V30 31 C -2.918480 -4.315387 -4.984113 0
M  V30 32 O -3.917055 -4.281651 -4.010360 0
M  V30 33 C -3.698336 -5.304800 -3.083859 0
M  V30 34 C -2.236843 -5.690897 -3.022321 0
M  V30 35 H 0.327999 -1.703578 1.677922 0
M  V30 36 H 4.009122 -4.264310 1.501257 0
M  V30 37 H 5.740384 -3.532646 3.096701 0
M  V30 38 H 4.397552 0.811050 4.405380 0
M  V30 39 H 3.345796 2.294581 1.742849 0
M  V30 40 H -1.735884 3.174274 3.616065 0
M  V30 41 H -0.737858 3.231055 0.731338 0
M  V30 42 H -1.808400 1.982658 1.445890 0
M  V30 43 H -3.041021 3.556112 0.052349 0
M  V30 44 H -3.577453 3.751918 1.774770 0
M  V30 45 H -1.636732 6.744052 2.056980 0
M  V30 46 H -2.798797 5.671846 2.918865 0
M  V30 47 H -0.733300 5.273902 3.903327 0
M  V30 48 H 0.158421 5.206571 2.325894 0
M  V30 49 H -0.517472 1.665630 4.710075 0
M  V30 50 H 2.032593 -0.573330 2.032755 0
M  V30 51 H 3.084616 -4.030021 -0.483777 0
M  V30 52 H 1.316552 -4.619426 -2.131515 0
M  V30 53 H -0.297884 -4.942233 -3.329519 0
M  V30 54 H -1.903698 -2.675467 -4.146420 0
M  V30 55 H -0.871656 -3.743971 -5.154012 0
M  V30 56 H -3.281341 -3.746429 -5.864116 0
M  V30 57 H -2.825073 -5.359236 -5.304658 0
M  V30 58 H -4.019298 -5.036957 -2.068697 0
M  V30 59 H -4.255488 -6.176812 -3.462802 0
M  V30 60 H -2.015105 -6.457876 -3.791651 0
M  V30 61 H -2.053261 -6.167674 -2.048555 0
M  V30 END ATOM
M  V30 BEGIN BOND
M  V30 1 3 1 2
M  V30 2 1 2 3
M  V30 3 2 3 4
M  V30 4 1 4 5
M  V30 5 1 5 6
M  V30 6 2 6 7
M  V30 7 1 7 8
M  V30 8 2 8 9
M  V30 9 1 9 10
M  V30 10 1 10 11
M  V30 11 1 11 12
M  V30 12 2 12 13
M  V30 13 1 13 14
M  V30 14 2 14 15
M  V30 15 1 15 16
M  V30 16 1 16 17
M  V30 17 1 17 18
M  V30 18 1 18 19
M  V30 19 1 19 20
M  V30 20 1 20 21
M  V30 21 1 15 22
M  V30 22 2 22 23
M  V30 23 2 10 24
M  V30 24 2 5 25
M  V30 25 1 25 26
M  V30 26 2 26 27
M  V30 27 1 27 28
M  V30 28 1 28 29
M  V30 29 1 29 30
M  V30 30 1 30 31
M  V30 31 1 31 32
M  V30 32 1 32 33
M  V30 33 1 33 34
M  V30 34 1 27 3
M  V30 35 1 34 29
M  V30 36 1 24 6
M  V30 37 1 23 12
M  V30 38 1 21 16
M  V30 39 1 4 35
M  V30 40 1 7 36
M  V30 41 1 8 37
M  V30 42 1 11 38
M  V30 43 1 13 39
M  V30 44 1 16 40
M  V30 45 1 17 41
M  V30 46 1 17 42
M  V30 47 1 18 43
M  V30 48 1 18 44
M  V30 49 1 20 45
M  V30 50 1 20 46
M  V30 51 1 21 47
M  V30 52 1 21 48
M  V30 53 1 22 49
M  V30 54 1 24 50
M  V30 55 1 25 51
M  V30 56 1 26 52
M  V30 57 1 29 53
M  V30 58 1 30 54
M  V30 59 1 30 55
M  V30 60 1 31 56
M  V30 61 1 31 57
M  V30 62 1 33 58
M  V30 63 1 33 59
M  V30 64 1 34 60
M  V30 65 1 34 61
M  V30 END BOND
M  V30 END CTAB
M  END
>  <Dataset>  (163) 
ChEMBL_Kinases

>  <Ligand_Instance>  (163) 
nan

>  <PDB_ID>  (163) 
nan

>  <Standardized_SMILES>  (163) 
N#Cc1cc(-c2ccnc(Nc3cnc(C4CCOCC4)cn3)c2)ccc1OC1CCOCC1

>  <Name>  (163) 
nan

>  <Pocket>  (163) 
nan

>  <ATP_Site>  (163) 
nan

>  <Peripheral>  (163) 
nan

>  <Num_H_Atoms_ProtBoundConf>  (163) 
nan

>  <Num_Resolved_Atoms>  (163) 
nan

>  <Num_Not_Resolved_Atoms>  (163) 
nan

$$$$
CHEMBL3687127
     RDKit          3D

  0  0  0  0  0  0  0  0  0  0999 V3000
M  V30 BEGIN CTAB
M  V30 COUNTS 61 65 0 0 0
M  V30 BEGIN ATOM
M  V30 1 N 3.160071 -6.463719 -1.026383 0
M  V30 2 C 2.696037 -5.452154 -0.723710 0
M  V30 3 C 2.088074 -4.183397 -0.351041 0
M  V30 4 C 2.981522 -3.297126 0.257093 0
M  V30 5 C 2.536620 -2.058969 0.659916 0
M  V30 6 C 3.322714 -1.035187 1.297352 0
M  V30 7 C 4.645156 -1.308412 1.531369 0
M  V30 8 C 5.481428 -0.385520 2.139663 0
M  V30 9 N 5.000115 0.797853 2.509865 0
M  V30 10 C 3.687892 1.081511 2.282928 0
M  V30 11 N 3.226708 2.341112 2.690468 0
M  V30 12 C 1.955240 2.971920 2.620083 0
M  V30 13 C 1.463653 4.202757 3.007609 0
M  V30 14 N 0.166805 4.245880 2.683559 0
M  V30 15 N -0.244587 3.149383 2.114237 0
M  V30 16 C -1.578919 2.829335 1.627684 0 CFG=1
M  V30 17 C -1.637178 1.358802 1.248597 0
M  V30 18 C -3.038862 1.075338 0.777768 0
M  V30 19 C -3.916183 1.025408 2.005917 0 CFG=1
M  V30 20 O -3.878346 -0.284642 2.485949 0
M  V30 21 C -3.411312 1.914841 3.109676 0
M  V30 22 C -2.633056 3.094264 2.651802 0
M  V30 23 C 0.823755 2.365541 2.066727 0
M  V30 24 N 2.876565 0.186879 1.693086 0
M  V30 25 C 1.219193 -1.724766 0.452969 0
M  V30 26 C 0.360064 -2.615814 -0.147841 0
M  V30 27 C 0.739328 -3.861749 -0.571798 0
M  V30 28 O 0.105564 -4.892400 -1.170804 0
M  V30 29 C -1.207662 -5.053957 -1.596676 0
M  V30 30 C -1.554246 -4.069064 -2.655815 0
M  V30 31 C -0.678395 -4.165679 -3.913701 0
M  V30 32 C -1.931824 -3.866700 -4.710026 0
M  V30 33 C -2.703401 -4.500341 -3.570757 0
M  V30 34 H 4.001357 -3.533936 0.426703 0
M  V30 35 H 5.210190 -2.212201 1.300703 0
M  V30 36 H 6.545684 -0.536041 2.357130 0
M  V30 37 H 3.902366 3.020821 3.154266 0
M  V30 38 H 2.120603 4.935061 3.488679 0
M  V30 39 H -1.793370 3.425622 0.725090 0
M  V30 40 H -0.876288 1.123755 0.472688 0
M  V30 41 H -1.450377 0.794098 2.199808 0
M  V30 42 H -3.005404 0.087937 0.253614 0
M  V30 43 H -3.368937 1.810192 0.023875 0
M  V30 44 H -4.948098 1.223057 1.694242 0
M  V30 45 H -4.084473 -0.969237 1.823204 0
M  V30 46 H -4.318772 2.311506 3.636788 0
M  V30 47 H -2.863994 1.336702 3.878162 0
M  V30 48 H -3.336781 3.926390 2.362276 0
M  V30 49 H -2.109867 3.498370 3.567443 0
M  V30 50 H 0.814186 1.370798 1.646181 0
M  V30 51 H 0.744746 -0.803712 0.714773 0
M  V30 52 H -0.682356 -2.405880 -0.321812 0
M  V30 53 H -1.871916 -4.923914 -0.700804 0
M  V30 54 H -1.397447 -6.118492 -1.927839 0
M  V30 55 H -1.617821 -3.038828 -2.336058 0
M  V30 56 H -0.339579 -5.215753 -4.113042 0
M  V30 57 H 0.117891 -3.420116 -3.945933 0
M  V30 58 H -1.996282 -4.392728 -5.682922 0
M  V30 59 H -2.156593 -2.775829 -4.749124 0
M  V30 60 H -2.713709 -5.593758 -3.625762 0
M  V30 61 H -3.675308 -4.005727 -3.362668 0
M  V30 END ATOM
M  V30 BEGIN BOND
M  V30 1 3 1 2
M  V30 2 1 2 3
M  V30 3 2 3 4
M  V30 4 1 4 5
M  V30 5 1 5 6
M  V30 6 2 6 7
M  V30 7 1 7 8
M  V30 8 2 8 9
M  V30 9 1 9 10
M  V30 10 1 10 11
M  V30 11 1 11 12
M  V30 12 1 12 13
M  V30 13 2 13 14
M  V30 14 1 14 15
M  V30 15 1 15 16
M  V30 16 1 16 17
M  V30 17 1 17 18
M  V30 18 1 18 19
M  V30 19 1 19 20
M  V30 20 1 19 21
M  V30 21 1 21 22
M  V30 22 1 15 23
M  V30 23 2 10 24
M  V30 24 2 5 25
M  V30 25 1 25 26
M  V30 26 2 26 27
M  V30 27 1 27 28
M  V30 28 1 28 29
M  V30 29 1 29 30
M  V30 30 1 30 31
M  V30 31 1 31 32
M  V30 32 1 32 33
M  V30 33 1 27 3
M  V30 34 1 33 30
M  V30 35 1 24 6
M  V30 36 2 23 12
M  V30 37 1 22 16
M  V30 38 1 4 34
M  V30 39 1 7 35
M  V30 40 1 8 36
M  V30 41 1 11 37
M  V30 42 1 13 38
M  V30 43 1 16 39 CFG=3
M  V30 44 1 17 40
M  V30 45 1 17 41
M  V30 46 1 18 42
M  V30 47 1 18 43
M  V30 48 1 19 44 CFG=3
M  V30 49 1 20 45
M  V30 50 1 21 46
M  V30 51 1 21 47
M  V30 52 1 22 48
M  V30 53 1 22 49
M  V30 54 1 23 50
M  V30 55 1 25 51
M  V30 56 1 26 52
M  V30 57 1 29 53
M  V30 58 1 29 54
M  V30 59 1 30 55
M  V30 60 1 31 56
M  V30 61 1 31 57
M  V30 62 1 32 58
M  V30 63 1 32 59
M  V30 64 1 33 60
M  V30 65 1 33 61
M  V30 END BOND
M  V30 END CTAB
M  END
>  <Dataset>  (164) 
ChEMBL_Kinases

>  <Ligand_Instance>  (164) 
nan

>  <PDB_ID>  (164) 
nan

>  <Standardized_SMILES>  (164) 
N#Cc1cc(-c2ccnc(Nc3cnn([C@H]4CC[C@@H](O)CC4)c3)n2)ccc1OCC1CCC1

>  <Name>  (164) 
nan

>  <Pocket>  (164) 
nan

>  <ATP_Site>  (164) 
nan

>  <Peripheral>  (164) 
nan

>  <Num_H_Atoms_ProtBoundConf>  (164) 
nan

>  <Num_Resolved_Atoms>  (164) 
nan

>  <Num_Not_Resolved_Atoms>  (164) 
nan

$$$$
CHEMBL3684506
     RDKit          3D

  0  0  0  0  0  0  0  0  0  0999 V3000
M  V30 BEGIN CTAB
M  V30 COUNTS 62 68 0 0 0
M  V30 BEGIN ATOM
M  V30 1 O 5.043371 -2.356884 3.624892 0
M  V30 2 S 3.902847 -3.029494 2.854596 0
M  V30 3 O 4.039650 -4.494205 3.200049 0
M  V30 4 N 4.137334 -2.707008 1.223413 0
M  V30 5 C 3.229207 -3.244359 0.279196 0
M  V30 6 C 2.002995 -2.496239 -0.041098 0
M  V30 7 C 2.446006 -1.217664 -0.423613 0
M  V30 8 C 1.561378 -0.215844 -0.852675 0
M  V30 9 C 0.182177 -0.496863 -0.903059 0
M  V30 10 C -0.775895 0.451431 -1.414239 0
M  V30 11 N -0.532279 0.731428 -2.732097 0
M  V30 12 N -1.462715 1.574655 -3.191282 0
M  V30 13 C -2.302689 1.837816 -2.176702 0
M  V30 14 N -1.861146 1.147872 -1.114560 0
M  V30 15 C -2.380777 1.083674 0.191678 0
M  V30 16 C -1.391753 0.749312 1.073866 0
M  V30 17 C -1.785022 0.610062 2.386848 0
M  V30 18 C -3.104592 0.808794 2.731480 0
M  V30 19 N -4.081700 1.146692 1.834990 0
M  V30 20 C -3.694750 1.283502 0.548141 0
M  V30 21 N -4.808460 1.710697 -0.267880 0
M  V30 22 C -4.594355 2.559561 -1.422728 0
M  V30 23 C -5.717975 3.370547 -1.618892 0
M  V30 24 C -5.672940 4.256020 -2.674778 0
M  V30 25 C -4.569363 4.332692 -3.494011 0
M  V30 26 C -3.446539 3.550452 -3.331434 0
M  V30 27 C -3.493394 2.669211 -2.280251 0
M  V30 28 C -0.227952 -1.779915 -0.511876 0
M  V30 29 C 0.653227 -2.749585 -0.093942 0
M  V30 30 C 2.912940 -4.737291 0.515229 0
M  V30 31 C 2.985923 -4.895932 -0.990613 0
M  V30 32 C 3.992349 -3.740326 -0.956675 0
M  V30 33 C 2.414298 -2.465607 3.547513 0
M  V30 34 C 2.248675 -1.209454 4.091138 0
M  V30 35 C 1.031846 -0.888080 4.646665 0
M  V30 36 C -0.013150 -1.819685 4.657333 0
M  V30 37 F -1.183939 -1.435953 5.221872 0
M  V30 38 C 0.139944 -3.058589 4.123568 0
M  V30 39 C 1.357256 -3.385016 3.565956 0
M  V30 40 H 4.589573 -1.827547 0.965875 0
M  V30 41 H 3.451079 -0.771676 -0.467611 0
M  V30 42 H 1.784545 0.782168 -1.164560 0
M  V30 43 H -0.350829 0.605700 0.962619 0
M  V30 44 H -1.139338 0.357834 3.208039 0
M  V30 45 H -3.441852 0.703531 3.751444 0
M  V30 46 H -5.768943 1.419686 -0.015661 0
M  V30 47 H -6.540579 3.251599 -0.940094 0
M  V30 48 H -6.526678 4.895289 -2.850475 0
M  V30 49 H -4.526655 5.036967 -4.337160 0
M  V30 50 H -2.540823 3.537604 -3.916128 0
M  V30 51 H -1.261395 -2.084915 -0.514981 0
M  V30 52 H 0.475455 -3.751557 0.225999 0
M  V30 53 H 1.929646 -4.959816 0.908710 0
M  V30 54 H 3.770550 -5.279701 0.964764 0
M  V30 55 H 2.063403 -4.622025 -1.523856 0
M  V30 56 H 3.438999 -5.867088 -1.292676 0
M  V30 57 H 3.852012 -3.118245 -1.846781 0
M  V30 58 H 5.018768 -4.050057 -0.704047 0
M  V30 59 H 3.094559 -0.521374 4.056279 0
M  V30 60 H 0.966052 0.112386 5.056595 0
M  V30 61 H -0.713994 -3.724478 4.168286 0
M  V30 62 H 1.395230 -4.396951 3.163111 0
M  V30 END ATOM
M  V30 BEGIN BOND
M  V30 1 2 1 2
M  V30 2 2 2 3
M  V30 3 1 2 4
M  V30 4 1 4 5
M  V30 5 1 5 6
M  V30 6 2 6 7
M  V30 7 1 7 8
M  V30 8 2 8 9
M  V30 9 1 9 10
M  V30 10 2 10 11
M  V30 11 1 11 12
M  V30 12 2 12 13
M  V30 13 1 13 14
M  V30 14 1 14 15
M  V30 15 2 15 16
M  V30 16 1 16 17
M  V30 17 2 17 18
M  V30 18 1 18 19
M  V30 19 2 19 20
M  V30 20 1 20 21
M  V30 21 1 21 22
M  V30 22 2 22 23
M  V30 23 1 23 24
M  V30 24 2 24 25
M  V30 25 1 25 26
M  V30 26 2 26 27
M  V30 27 1 9 28
M  V30 28 2 28 29
M  V30 29 1 5 30
M  V30 30 1 30 31
M  V30 31 1 31 32
M  V30 32 1 2 33
M  V30 33 2 33 34
M  V30 34 1 34 35
M  V30 35 2 35 36
M  V30 36 1 36 37
M  V30 37 1 36 38
M  V30 38 2 38 39
M  V30 39 1 32 5
M  V30 40 1 39 33
M  V30 41 1 29 6
M  V30 42 1 14 10
M  V30 43 1 20 15
M  V30 44 1 27 22
M  V30 45 1 27 13
M  V30 46 1 4 40
M  V30 47 1 7 41
M  V30 48 1 8 42
M  V30 49 1 16 43
M  V30 50 1 17 44
M  V30 51 1 18 45
M  V30 52 1 21 46
M  V30 53 1 23 47
M  V30 54 1 24 48
M  V30 55 1 25 49
M  V30 56 1 26 50
M  V30 57 1 28 51
M  V30 58 1 29 52
M  V30 59 1 30 53
M  V30 60 1 30 54
M  V30 61 1 31 55
M  V30 62 1 31 56
M  V30 63 1 32 57
M  V30 64 1 32 58
M  V30 65 1 34 59
M  V30 66 1 35 60
M  V30 67 1 38 61
M  V30 68 1 39 62
M  V30 END BOND
M  V30 END CTAB
M  END
>  <Dataset>  (165) 
ChEMBL_Kinases

>  <Ligand_Instance>  (165) 
nan

>  <PDB_ID>  (165) 
nan

>  <Standardized_SMILES>  (165) 
O=S(=O)(NC1(c2ccc(-c3nnc4n3-c3cccnc3Nc3ccccc3-4)cc2)CCC1)c1ccc(F)cc1

>  <Name>  (165) 
nan

>  <Pocket>  (165) 
nan

>  <ATP_Site>  (165) 
nan

>  <Peripheral>  (165) 
nan

>  <Num_H_Atoms_ProtBoundConf>  (165) 
nan

>  <Num_Resolved_Atoms>  (165) 
nan

>  <Num_Not_Resolved_Atoms>  (165) 
nan

$$$$
CHEMBL3687110
     RDKit          3D

  0  0  0  0  0  0  0  0  0  0999 V3000
M  V30 BEGIN CTAB
M  V30 COUNTS 47 50 0 0 0
M  V30 BEGIN ATOM
M  V30 1 C -0.081471 -6.004165 -1.191724 0
M  V30 2 C 0.853703 -5.444575 -2.198686 0
M  V30 3 C 1.284845 -4.137594 -2.240914 0
M  V30 4 C 2.132172 -3.995214 -3.299981 0
M  V30 5 N 2.829792 -2.845351 -3.756515 0
M  V30 6 C 2.762425 -1.562900 -3.151935 0
M  V30 7 N 3.493017 -0.550266 -3.706996 0
M  V30 8 C 3.494125 0.691169 -3.209164 0
M  V30 9 C 2.725421 0.947253 -2.093692 0
M  V30 10 C 1.974318 -0.044648 -1.503280 0
M  V30 11 C 1.175829 0.260330 -0.328603 0
M  V30 12 C 1.137846 1.517055 0.226765 0
M  V30 13 C 0.395591 1.847253 1.337897 0
M  V30 14 C -0.379663 0.911999 1.983678 0
M  V30 15 O -1.167298 1.071677 3.086085 0
M  V30 16 C -1.389247 2.218072 3.839656 0
M  V30 17 C -0.925737 2.085801 5.273925 0
M  V30 18 C -1.867020 1.290701 6.129986 0
M  V30 19 O -2.883163 0.788320 5.350693 0
M  V30 20 C -3.655513 1.847493 4.823082 0
M  V30 21 C -2.847333 2.565847 3.744616 0
M  V30 22 C -0.371827 -0.383456 1.452452 0
M  V30 23 C -1.155655 -1.452324 2.055809 0
M  V30 24 N -1.769009 -2.303786 2.550779 0
M  V30 25 C 0.398062 -0.670665 0.322187 0
M  V30 26 N 2.041868 -1.253554 -2.078448 0
M  V30 27 N 2.175953 -5.221304 -3.850921 0
M  V30 28 O 1.428871 -6.033870 -3.193542 0
M  V30 29 H -0.028720 -7.111039 -1.196230 0
M  V30 30 H 0.135110 -5.637958 -0.183590 0
M  V30 31 H -1.134855 -5.752569 -1.435007 0
M  V30 32 H 0.988690 -3.389777 -1.549869 0
M  V30 33 H 3.434749 -2.962194 -4.600498 0
M  V30 34 H 4.113911 1.430327 -3.728186 0
M  V30 35 H 2.791894 1.965084 -1.771843 0
M  V30 36 H 1.686908 2.347552 -0.163284 0
M  V30 37 H 0.368868 2.830287 1.768427 0
M  V30 38 H -0.807743 3.053261 3.408093 0
M  V30 39 H -0.868946 3.106373 5.730019 0
M  V30 40 H 0.070054 1.646579 5.345753 0
M  V30 41 H -2.273665 1.850645 6.998013 0
M  V30 42 H -1.351541 0.405413 6.590928 0
M  V30 43 H -4.575809 1.396492 4.414105 0
M  V30 44 H -3.900938 2.541577 5.633165 0
M  V30 45 H -3.219334 2.217851 2.757960 0
M  V30 46 H -3.008233 3.661288 3.763449 0
M  V30 47 H 0.358780 -1.682760 -0.033018 0
M  V30 END ATOM
M  V30 BEGIN BOND
M  V30 1 1 1 2
M  V30 2 2 2 3
M  V30 3 1 3 4
M  V30 4 1 4 5
M  V30 5 1 5 6
M  V30 6 2 6 7
M  V30 7 1 7 8
M  V30 8 2 8 9
M  V30 9 1 9 10
M  V30 10 1 10 11
M  V30 11 2 11 12
M  V30 12 1 12 13
M  V30 13 2 13 14
M  V30 14 1 14 15
M  V30 15 1 15 16
M  V30 16 1 16 17
M  V30 17 1 17 18
M  V30 18 1 18 19
M  V30 19 1 19 20
M  V30 20 1 20 21
M  V30 21 1 14 22
M  V30 22 1 22 23
M  V30 23 3 23 24
M  V30 24 2 22 25
M  V30 25 2 10 26
M  V30 26 2 4 27
M  V30 27 1 27 28
M  V30 28 1 28 2
M  V30 29 1 26 6
M  V30 30 1 25 11
M  V30 31 1 21 16
M  V30 32 1 1 29
M  V30 33 1 1 30
M  V30 34 1 1 31
M  V30 35 1 3 32
M  V30 36 1 5 33
M  V30 37 1 8 34
M  V30 38 1 9 35
M  V30 39 1 12 36
M  V30 40 1 13 37
M  V30 41 1 16 38
M  V30 42 1 17 39
M  V30 43 1 17 40
M  V30 44 1 18 41
M  V30 45 1 18 42
M  V30 46 1 20 43
M  V30 47 1 20 44
M  V30 48 1 21 45
M  V30 49 1 21 46
M  V30 50 1 25 47
M  V30 END BOND
M  V30 END CTAB
M  END
>  <Dataset>  (166) 
ChEMBL_Kinases

>  <Ligand_Instance>  (166) 
nan

>  <PDB_ID>  (166) 
nan

>  <Standardized_SMILES>  (166) 
Cc1cc(Nc2nccc(-c3ccc(OC4CCOCC4)c(C#N)c3)n2)no1

>  <Name>  (166) 
nan

>  <Pocket>  (166) 
nan

>  <ATP_Site>  (166) 
nan

>  <Peripheral>  (166) 
nan

>  <Num_H_Atoms_ProtBoundConf>  (166) 
nan

>  <Num_Resolved_Atoms>  (166) 
nan

>  <Num_Not_Resolved_Atoms>  (166) 
nan

$$$$
CHEMBL3687111
     RDKit          3D

  0  0  0  0  0  0  0  0  0  0999 V3000
M  V30 BEGIN CTAB
M  V30 COUNTS 59 62 0 0 0
M  V30 BEGIN ATOM
M  V30 1 C 3.876574 1.351008 5.322898 0
M  V30 2 N 3.679019 -0.080671 5.450924 0
M  V30 3 C 2.883231 -0.296646 6.650250 0
M  V30 4 C 2.894498 -0.569383 4.346886 0
M  V30 5 C 3.519602 -0.346828 3.017700 0
M  V30 6 C 4.342048 -1.337333 2.518379 0
M  V30 7 C 4.902129 -1.090029 1.277567 0
M  V30 8 N 4.643173 0.069522 0.606591 0
M  V30 9 C 3.825212 1.011144 1.146171 0
M  V30 10 N 3.701106 2.128381 0.272174 0
M  V30 11 C 2.619629 2.111007 -0.653250 0
M  V30 12 C 1.728976 1.058343 -0.680219 0
M  V30 13 C 0.647251 0.946634 -1.538000 0
M  V30 14 C -0.221079 -0.219288 -1.461527 0
M  V30 15 C -1.559161 -0.030403 -1.791119 0
M  V30 16 C -2.432647 -1.093455 -1.735951 0
M  V30 17 C -2.061793 -2.367408 -1.366285 0
M  V30 18 O -2.790742 -3.522511 -1.257703 0
M  V30 19 C -4.195037 -3.631369 -1.507518 0
M  V30 20 C -5.002399 -2.794607 -0.585755 0
M  V30 21 C -6.060452 -1.940723 -1.153245 0
M  V30 22 O -6.221850 -1.898371 -2.501352 0
M  V30 23 C -5.930707 -3.086563 -3.156561 0
M  V30 24 C -4.518070 -3.526999 -2.953679 0
M  V30 25 C -0.714618 -2.551713 -1.036224 0
M  V30 26 C -0.152203 -3.808140 -0.630033 0
M  V30 27 N 0.287465 -4.818355 -0.304854 0
M  V30 28 C 0.184878 -1.482353 -1.087215 0
M  V30 29 C 0.431610 1.964736 -2.444829 0
M  V30 30 C 1.335110 3.007374 -2.399721 0
M  V30 31 N 2.392575 3.092441 -1.544029 0
M  V30 32 C 3.238368 0.828958 2.371117 0
M  V30 33 H 4.264044 1.719007 6.316640 0
M  V30 34 H 2.858950 1.820521 5.184409 0
M  V30 35 H 4.536692 1.643838 4.494729 0
M  V30 36 H 1.916164 0.246330 6.543928 0
M  V30 37 H 3.392379 0.128912 7.545178 0
M  V30 38 H 2.622642 -1.371438 6.776396 0
M  V30 39 H 2.682149 -1.654507 4.430740 0
M  V30 40 H 1.894084 -0.079758 4.428680 0
M  V30 41 H 4.523660 -2.242475 3.079061 0
M  V30 42 H 5.556565 -1.851746 0.853854 0
M  V30 43 H 4.344021 2.970441 0.251684 0
M  V30 44 H 1.876457 0.250279 0.018792 0
M  V30 45 H -2.010404 0.920218 -2.104414 0
M  V30 46 H -3.466138 -0.997116 -1.983080 0
M  V30 47 H -4.417067 -4.708469 -1.219434 0
M  V30 48 H -4.286138 -2.103323 -0.038236 0
M  V30 49 H -5.437856 -3.412223 0.260720 0
M  V30 50 H -7.057404 -2.271715 -0.730696 0
M  V30 51 H -6.001921 -0.866903 -0.806674 0
M  V30 52 H -6.061841 -2.887319 -4.247655 0
M  V30 53 H -6.700524 -3.833678 -2.868270 0
M  V30 54 H -3.867923 -2.808882 -3.499892 0
M  V30 55 H -4.407135 -4.507474 -3.488035 0
M  V30 56 H 1.227195 -1.583623 -0.841315 0
M  V30 57 H -0.382569 1.936713 -3.130184 0
M  V30 58 H 1.182766 3.831197 -3.114994 0
M  V30 59 H 2.616323 1.621854 2.706030 0
M  V30 END ATOM
M  V30 BEGIN BOND
M  V30 1 1 1 2
M  V30 2 1 2 3
M  V30 3 1 2 4
M  V30 4 1 4 5
M  V30 5 2 5 6
M  V30 6 1 6 7
M  V30 7 2 7 8
M  V30 8 1 8 9
M  V30 9 1 9 10
M  V30 10 1 10 11
M  V30 11 2 11 12
M  V30 12 1 12 13
M  V30 13 1 13 14
M  V30 14 2 14 15
M  V30 15 1 15 16
M  V30 16 2 16 17
M  V30 17 1 17 18
M  V30 18 1 18 19
M  V30 19 1 19 20
M  V30 20 1 20 21
M  V30 21 1 21 22
M  V30 22 1 22 23
M  V30 23 1 23 24
M  V30 24 1 17 25
M  V30 25 1 25 26
M  V30 26 3 26 27
M  V30 27 2 25 28
M  V30 28 2 13 29
M  V30 29 1 29 30
M  V30 30 2 30 31
M  V30 31 2 9 32
M  V30 32 1 32 5
M  V30 33 1 31 11
M  V30 34 1 28 14
M  V30 35 1 24 19
M  V30 36 1 1 33
M  V30 37 1 1 34
M  V30 38 1 1 35
M  V30 39 1 3 36
M  V30 40 1 3 37
M  V30 41 1 3 38
M  V30 42 1 4 39
M  V30 43 1 4 40
M  V30 44 1 6 41
M  V30 45 1 7 42
M  V30 46 1 10 43
M  V30 47 1 12 44
M  V30 48 1 15 45
M  V30 49 1 16 46
M  V30 50 1 19 47
M  V30 51 1 20 48
M  V30 52 1 20 49
M  V30 53 1 21 50
M  V30 54 1 21 51
M  V30 55 1 23 52
M  V30 56 1 23 53
M  V30 57 1 24 54
M  V30 58 1 24 55
M  V30 59 1 28 56
M  V30 60 1 29 57
M  V30 61 1 30 58
M  V30 62 1 32 59
M  V30 END BOND
M  V30 END CTAB
M  END
>  <Dataset>  (167) 
ChEMBL_Kinases

>  <Ligand_Instance>  (167) 
nan

>  <PDB_ID>  (167) 
nan

>  <Standardized_SMILES>  (167) 
CN(C)Cc1ccnc(Nc2cc(-c3ccc(OC4CCOCC4)c(C#N)c3)ccn2)c1

>  <Name>  (167) 
nan

>  <Pocket>  (167) 
nan

>  <ATP_Site>  (167) 
nan

>  <Peripheral>  (167) 
nan

>  <Num_H_Atoms_ProtBoundConf>  (167) 
nan

>  <Num_Resolved_Atoms>  (167) 
nan

>  <Num_Not_Resolved_Atoms>  (167) 
nan

$$$$
CHEMBL3687112
     RDKit          3D

  0  0  0  0  0  0  0  0  0  0999 V3000
M  V30 BEGIN CTAB
M  V30 COUNTS 61 65 0 0 0
M  V30 BEGIN ATOM
M  V30 1 N -0.509648 -5.681986 2.703761 0
M  V30 2 C -0.111132 -4.866361 1.955430 0
M  V30 3 C 0.385241 -3.847348 1.047786 0
M  V30 4 C 1.493563 -3.106333 1.465103 0
M  V30 5 C 2.028947 -2.107493 0.634247 0
M  V30 6 C 3.149616 -1.269522 1.082141 0
M  V30 7 C 4.206733 -1.489061 1.899230 0
M  V30 8 C 5.086535 -0.466352 2.181317 0
M  V30 9 N 4.993933 0.783782 1.706506 0
M  V30 10 C 3.973731 1.109939 0.881863 0
M  V30 11 N 3.622376 2.356364 0.230334 0
M  V30 12 C 2.274528 2.761858 0.452571 0
M  V30 13 C 1.406022 2.175621 1.339324 0
M  V30 14 C 0.086438 2.497520 1.552795 0
M  V30 15 N -0.759966 1.836797 2.480941 0
M  V30 16 C -0.457529 0.606073 3.188173 0
M  V30 17 C -1.584684 -0.323629 2.731748 0
M  V30 18 O -2.700195 0.116386 3.445906 0
M  V30 19 C -3.121183 1.328290 2.970538 0
M  V30 20 C -2.057160 2.370400 2.844778 0
M  V30 21 C -0.400337 3.534049 0.775127 0
M  V30 22 C 0.437416 4.156826 -0.130485 0
M  V30 23 N 1.697267 3.766695 -0.258513 0
M  V30 24 C 3.098679 0.057200 0.610190 0
M  V30 25 C 1.462873 -1.863144 -0.592283 0
M  V30 26 C 0.372651 -2.635806 -0.930021 0
M  V30 27 C -0.222486 -3.629061 -0.185530 0
M  V30 28 O -1.295474 -4.369267 -0.519789 0
M  V30 29 C -2.160232 -4.360082 -1.592259 0
M  V30 30 C -1.601359 -4.669652 -2.937550 0
M  V30 31 C -2.338039 -3.850384 -4.002406 0
M  V30 32 O -2.055520 -2.511894 -3.754116 0
M  V30 33 C -2.706077 -2.098013 -2.621646 0
M  V30 34 C -3.063354 -3.147723 -1.632172 0
M  V30 35 H 1.950071 -3.299157 2.441063 0
M  V30 36 H 4.262555 -2.512806 2.270668 0
M  V30 37 H 5.929648 -0.665887 2.840554 0
M  V30 38 H 4.206503 2.978970 -0.367720 0
M  V30 39 H 1.737681 1.386462 1.982376 0
M  V30 40 H 0.525122 0.179139 2.985725 0
M  V30 41 H -0.582360 0.743314 4.294253 0
M  V30 42 H -1.365758 -1.379080 2.837927 0
M  V30 43 H -1.830119 -0.149533 1.665998 0
M  V30 44 H -3.891173 1.725286 3.682204 0
M  V30 45 H -3.631538 1.121481 1.991778 0
M  V30 46 H -1.914084 2.772937 3.900671 0
M  V30 47 H -2.414520 3.204968 2.238302 0
M  V30 48 H -1.379842 3.928376 0.776734 0
M  V30 49 H 0.113775 4.966139 -0.763097 0
M  V30 50 H 2.277909 0.335056 -0.061467 0
M  V30 51 H 1.822921 -1.113363 -1.307803 0
M  V30 52 H -0.041420 -2.426723 -1.896187 0
M  V30 53 H -2.886887 -5.227892 -1.375949 0
M  V30 54 H -0.523700 -4.437934 -3.053301 0
M  V30 55 H -1.702238 -5.749359 -3.211722 0
M  V30 56 H -1.887880 -4.143712 -4.996108 0
M  V30 57 H -3.432670 -4.050289 -3.994363 0
M  V30 58 H -3.674482 -1.609899 -2.946747 0
M  V30 59 H -2.147637 -1.260344 -2.122557 0
M  V30 60 H -4.119418 -3.475802 -1.771080 0
M  V30 61 H -3.060451 -2.665654 -0.627762 0
M  V30 END ATOM
M  V30 BEGIN BOND
M  V30 1 3 1 2
M  V30 2 1 2 3
M  V30 3 2 3 4
M  V30 4 1 4 5
M  V30 5 1 5 6
M  V30 6 2 6 7
M  V30 7 1 7 8
M  V30 8 2 8 9
M  V30 9 1 9 10
M  V30 10 1 10 11
M  V30 11 1 11 12
M  V30 12 2 12 13
M  V30 13 1 13 14
M  V30 14 1 14 15
M  V30 15 1 15 16
M  V30 16 1 16 17
M  V30 17 1 17 18
M  V30 18 1 18 19
M  V30 19 1 19 20
M  V30 20 2 14 21
M  V30 21 1 21 22
M  V30 22 2 22 23
M  V30 23 2 10 24
M  V30 24 2 5 25
M  V30 25 1 25 26
M  V30 26 2 26 27
M  V30 27 1 27 28
M  V30 28 1 28 29
M  V30 29 1 29 30
M  V30 30 1 30 31
M  V30 31 1 31 32
M  V30 32 1 32 33
M  V30 33 1 33 34
M  V30 34 1 27 3
M  V30 35 1 34 29
M  V30 36 1 24 6
M  V30 37 1 23 12
M  V30 38 1 20 15
M  V30 39 1 4 35
M  V30 40 1 7 36
M  V30 41 1 8 37
M  V30 42 1 11 38
M  V30 43 1 13 39
M  V30 44 1 16 40
M  V30 45 1 16 41
M  V30 46 1 17 42
M  V30 47 1 17 43
M  V30 48 1 19 44
M  V30 49 1 19 45
M  V30 50 1 20 46
M  V30 51 1 20 47
M  V30 52 1 21 48
M  V30 53 1 22 49
M  V30 54 1 24 50
M  V30 55 1 25 51
M  V30 56 1 26 52
M  V30 57 1 29 53
M  V30 58 1 30 54
M  V30 59 1 30 55
M  V30 60 1 31 56
M  V30 61 1 31 57
M  V30 62 1 33 58
M  V30 63 1 33 59
M  V30 64 1 34 60
M  V30 65 1 34 61
M  V30 END BOND
M  V30 END CTAB
M  END
>  <Dataset>  (168) 
ChEMBL_Kinases

>  <Ligand_Instance>  (168) 
nan

>  <PDB_ID>  (168) 
nan

>  <Standardized_SMILES>  (168) 
N#Cc1cc(-c2ccnc(Nc3cc(N4CCOCC4)ccn3)c2)ccc1OC1CCOCC1

>  <Name>  (168) 
nan

>  <Pocket>  (168) 
nan

>  <ATP_Site>  (168) 
nan

>  <Peripheral>  (168) 
nan

>  <Num_H_Atoms_ProtBoundConf>  (168) 
nan

>  <Num_Resolved_Atoms>  (168) 
nan

>  <Num_Not_Resolved_Atoms>  (168) 
nan

$$$$
CHEMBL3687113
     RDKit          3D

  0  0  0  0  0  0  0  0  0  0999 V3000
M  V30 BEGIN CTAB
M  V30 COUNTS 63 67 0 0 0
M  V30 BEGIN ATOM
M  V30 1 N -2.270863 -1.017903 0.329295 0
M  V30 2 C -1.293074 -1.131408 -0.248486 0
M  V30 3 C -0.068523 -1.281168 -0.999788 0
M  V30 4 C 1.070764 -0.720950 -0.406991 0
M  V30 5 C 2.308904 -0.785074 -1.008269 0
M  V30 6 C 3.501278 -0.207401 -0.403991 0
M  V30 7 C 4.725297 -0.258403 -1.029221 0
M  V30 8 C 5.838966 0.314122 -0.442124 0
M  V30 9 N 5.687116 0.915581 0.746527 0
M  V30 10 C 4.510414 0.978394 1.374208 0
M  V30 11 N 4.427472 1.656059 2.637270 0
M  V30 12 C 3.291422 1.726862 3.485378 0
M  V30 13 C 3.147145 2.550338 4.611460 0
M  V30 14 N 1.938967 2.296286 5.134918 0
M  V30 15 N 1.273880 1.380395 4.457759 0
M  V30 16 C -0.038333 0.938713 4.819378 0
M  V30 17 C -1.150264 1.702554 4.180530 0
M  V30 18 N -2.466134 1.262317 4.564481 0
M  V30 19 C -3.542669 1.959630 3.931839 0
M  V30 20 C -4.715534 1.029635 3.911680 0
M  V30 21 C -4.111548 -0.345190 3.939782 0
M  V30 22 C -2.721211 -0.128225 4.471558 0
M  V30 23 C 2.100555 1.038053 3.455942 0
M  V30 24 N 3.437030 0.420908 0.798211 0
M  V30 25 C 2.351877 -1.431861 -2.221597 0
M  V30 26 C 1.253470 -1.996308 -2.837454 0
M  V30 27 C 0.011108 -1.934090 -2.238772 0
M  V30 28 O -1.220347 -2.414739 -2.647081 0
M  V30 29 C -1.439059 -3.110154 -3.826199 0
M  V30 30 C -1.914527 -4.546817 -3.545018 0
M  V30 31 C -1.789951 -5.239028 -4.896472 0
M  V30 32 O -2.481983 -4.621264 -5.902821 0
M  V30 33 C -3.186609 -3.497128 -5.573213 0
M  V30 34 C -2.407986 -2.464585 -4.790769 0
M  V30 35 H 1.012179 -0.217459 0.546571 0
M  V30 36 H 4.887396 -0.727430 -1.975102 0
M  V30 37 H 6.838974 0.337297 -0.831573 0
M  V30 38 H 5.300055 2.159892 2.981982 0
M  V30 39 H 3.902492 3.241976 4.946388 0
M  V30 40 H -0.174310 -0.165203 4.676105 0
M  V30 41 H -0.177475 1.070156 5.930599 0
M  V30 42 H -1.124466 1.631500 3.056003 0
M  V30 43 H -1.071915 2.779548 4.495231 0
M  V30 44 H -3.834709 2.894208 4.476464 0
M  V30 45 H -3.275509 2.190150 2.872158 0
M  V30 46 H -5.364335 1.244140 4.804561 0
M  V30 47 H -5.311976 1.166367 2.981278 0
M  V30 48 H -4.104903 -0.739518 2.896808 0
M  V30 49 H -4.695844 -1.023791 4.605202 0
M  V30 50 H -2.682392 -0.610709 5.494478 0
M  V30 51 H -1.963257 -0.691462 3.880573 0
M  V30 52 H 1.837334 0.301818 2.724286 0
M  V30 53 H 3.247947 -1.549878 -2.790087 0
M  V30 54 H 1.258077 -2.505263 -3.782878 0
M  V30 55 H -0.498537 -3.243326 -4.394232 0
M  V30 56 H -2.952143 -4.587891 -3.212665 0
M  V30 57 H -1.167416 -4.986181 -2.882397 0
M  V30 58 H -0.691647 -5.277185 -5.160459 0
M  V30 59 H -2.166372 -6.271980 -4.785808 0
M  V30 60 H -3.503540 -3.015405 -6.520213 0
M  V30 61 H -4.157730 -3.731140 -5.048687 0
M  V30 62 H -3.170552 -1.841123 -4.269629 0
M  V30 63 H -1.907942 -1.802825 -5.526617 0
M  V30 END ATOM
M  V30 BEGIN BOND
M  V30 1 3 1 2
M  V30 2 1 2 3
M  V30 3 2 3 4
M  V30 4 1 4 5
M  V30 5 1 5 6
M  V30 6 2 6 7
M  V30 7 1 7 8
M  V30 8 2 8 9
M  V30 9 1 9 10
M  V30 10 1 10 11
M  V30 11 1 11 12
M  V30 12 1 12 13
M  V30 13 2 13 14
M  V30 14 1 14 15
M  V30 15 1 15 16
M  V30 16 1 16 17
M  V30 17 1 17 18
M  V30 18 1 18 19
M  V30 19 1 19 20
M  V30 20 1 20 21
M  V30 21 1 21 22
M  V30 22 1 15 23
M  V30 23 2 10 24
M  V30 24 2 5 25
M  V30 25 1 25 26
M  V30 26 2 26 27
M  V30 27 1 27 28
M  V30 28 1 28 29
M  V30 29 1 29 30
M  V30 30 1 30 31
M  V30 31 1 31 32
M  V30 32 1 32 33
M  V30 33 1 33 34
M  V30 34 1 27 3
M  V30 35 1 34 29
M  V30 36 1 24 6
M  V30 37 2 23 12
M  V30 38 1 22 18
M  V30 39 1 4 35
M  V30 40 1 7 36
M  V30 41 1 8 37
M  V30 42 1 11 38
M  V30 43 1 13 39
M  V30 44 1 16 40
M  V30 45 1 16 41
M  V30 46 1 17 42
M  V30 47 1 17 43
M  V30 48 1 19 44
M  V30 49 1 19 45
M  V30 50 1 20 46
M  V30 51 1 20 47
M  V30 52 1 21 48
M  V30 53 1 21 49
M  V30 54 1 22 50
M  V30 55 1 22 51
M  V30 56 1 23 52
M  V30 57 1 25 53
M  V30 58 1 26 54
M  V30 59 1 29 55
M  V30 60 1 30 56
M  V30 61 1 30 57
M  V30 62 1 31 58
M  V30 63 1 31 59
M  V30 64 1 33 60
M  V30 65 1 33 61
M  V30 66 1 34 62
M  V30 67 1 34 63
M  V30 END BOND
M  V30 END CTAB
M  END
>  <Dataset>  (169) 
ChEMBL_Kinases

>  <Ligand_Instance>  (169) 
nan

>  <PDB_ID>  (169) 
nan

>  <Standardized_SMILES>  (169) 
N#Cc1cc(-c2ccnc(Nc3cnn(CCN4CCCC4)c3)n2)ccc1OC1CCOCC1

>  <Name>  (169) 
nan

>  <Pocket>  (169) 
nan

>  <ATP_Site>  (169) 
nan

>  <Peripheral>  (169) 
nan

>  <Num_H_Atoms_ProtBoundConf>  (169) 
nan

>  <Num_Resolved_Atoms>  (169) 
nan

>  <Num_Not_Resolved_Atoms>  (169) 
nan

$$$$
CHEMBL3687114
     RDKit          3D

  0  0  0  0  0  0  0  0  0  0999 V3000
M  V30 BEGIN CTAB
M  V30 COUNTS 65 69 0 0 0
M  V30 BEGIN ATOM
M  V30 1 C 2.829487 0.045026 4.325085 0
M  V30 2 N 4.015480 0.171832 3.490745 0
M  V30 3 C 3.793696 -0.388847 2.167131 0
M  V30 4 C 4.010750 0.647559 1.085630 0
M  V30 5 N 3.164172 1.820633 1.345726 0
M  V30 6 C 2.438929 2.594583 0.418951 0
M  V30 7 C 2.747059 2.763676 -0.900852 0
M  V30 8 C 2.038518 3.491817 -1.811122 0
M  V30 9 N 0.922444 4.112950 -1.382715 0
M  V30 10 C 0.550481 3.990878 -0.083817 0
M  V30 11 N -0.620627 4.557817 0.542138 0
M  V30 12 C -1.581035 3.613220 0.022309 0
M  V30 13 C -1.541763 2.225104 0.112346 0
M  V30 14 C -2.568697 1.492242 -0.483270 0
M  V30 15 C -2.490694 0.043510 -0.385009 0
M  V30 16 C -3.589315 -0.799522 -0.314678 0
M  V30 17 C -3.448842 -2.168692 -0.238747 0
M  V30 18 C -2.202027 -2.772710 -0.229054 0
M  V30 19 O -1.991724 -4.140236 -0.151918 0
M  V30 20 C -2.992660 -5.112407 0.045258 0
M  V30 21 C -3.748133 -5.285524 -1.286321 0
M  V30 22 C -3.213054 -6.482739 -2.043845 0
M  V30 23 O -1.850080 -6.601937 -1.960277 0
M  V30 24 C -1.318084 -6.745500 -0.703739 0
M  V30 25 C -2.367895 -6.436097 0.373931 0
M  V30 26 C -1.077346 -1.966035 -0.298121 0
M  V30 27 C 0.234415 -2.552112 -0.281819 0
M  V30 28 N 1.309116 -3.041498 -0.264115 0
M  V30 29 C -1.247041 -0.595222 -0.373492 0
M  V30 30 C -3.534325 2.238790 -1.111946 0
M  V30 31 C -3.614643 3.610168 -1.227272 0
M  V30 32 N -2.584672 4.207612 -0.623348 0
M  V30 33 C 1.285567 3.243714 0.835522 0
M  V30 34 C 3.100463 2.241917 2.754725 0
M  V30 35 C 4.293166 1.593582 3.421349 0
M  V30 36 H 1.920331 -0.158506 3.702309 0
M  V30 37 H 2.962956 -0.777638 5.062319 0
M  V30 38 H 2.633752 0.962466 4.912467 0
M  V30 39 H 4.545135 -1.186058 2.020956 0
M  V30 40 H 2.800248 -0.872948 2.070374 0
M  V30 41 H 3.646024 0.215772 0.122755 0
M  V30 42 H 5.063322 0.895347 0.969604 0
M  V30 43 H 3.628309 2.280809 -1.262999 0
M  V30 44 H 2.271221 3.631675 -2.853651 0
M  V30 45 H -0.725990 5.374783 1.170277 0
M  V30 46 H -0.702575 1.824581 0.655273 0
M  V30 47 H -4.574226 -0.356291 -0.322343 0
M  V30 48 H -4.330003 -2.779405 -0.189439 0
M  V30 49 H -3.771427 -4.779911 0.740497 0
M  V30 50 H -3.582708 -4.380376 -1.877146 0
M  V30 51 H -4.813867 -5.506019 -1.076649 0
M  V30 52 H -3.762024 -7.412097 -1.752290 0
M  V30 53 H -3.461109 -6.344400 -3.118851 0
M  V30 54 H -1.047772 -7.806220 -0.570316 0
M  V30 55 H -0.419578 -6.114274 -0.519644 0
M  V30 56 H -3.072532 -7.301812 0.316301 0
M  V30 57 H -1.832955 -6.427141 1.342504 0
M  V30 58 H -0.384230 0.045673 -0.430072 0
M  V30 59 H -4.304270 1.575683 -1.556307 0
M  V30 60 H -4.446652 4.034462 -1.763879 0
M  V30 61 H 1.014023 3.122711 1.894377 0
M  V30 62 H 2.144964 1.865048 3.144784 0
M  V30 63 H 3.183559 3.345910 2.735819 0
M  V30 64 H 5.187095 1.828441 2.806996 0
M  V30 65 H 4.398828 1.974382 4.445397 0
M  V30 END ATOM
M  V30 BEGIN BOND
M  V30 1 1 1 2
M  V30 2 1 2 3
M  V30 3 1 3 4
M  V30 4 1 4 5
M  V30 5 1 5 6
M  V30 6 2 6 7
M  V30 7 1 7 8
M  V30 8 2 8 9
M  V30 9 1 9 10
M  V30 10 1 10 11
M  V30 11 1 11 12
M  V30 12 2 12 13
M  V30 13 1 13 14
M  V30 14 1 14 15
M  V30 15 2 15 16
M  V30 16 1 16 17
M  V30 17 2 17 18
M  V30 18 1 18 19
M  V30 19 1 19 20
M  V30 20 1 20 21
M  V30 21 1 21 22
M  V30 22 1 22 23
M  V30 23 1 23 24
M  V30 24 1 24 25
M  V30 25 1 18 26
M  V30 26 1 26 27
M  V30 27 3 27 28
M  V30 28 2 26 29
M  V30 29 2 14 30
M  V30 30 1 30 31
M  V30 31 2 31 32
M  V30 32 2 10 33
M  V30 33 1 5 34
M  V30 34 1 34 35
M  V30 35 1 35 2
M  V30 36 1 33 6
M  V30 37 1 32 12
M  V30 38 1 29 15
M  V30 39 1 25 20
M  V30 40 1 1 36
M  V30 41 1 1 37
M  V30 42 1 1 38
M  V30 43 1 3 39
M  V30 44 1 3 40
M  V30 45 1 4 41
M  V30 46 1 4 42
M  V30 47 1 7 43
M  V30 48 1 8 44
M  V30 49 1 11 45
M  V30 50 1 13 46
M  V30 51 1 16 47
M  V30 52 1 17 48
M  V30 53 1 20 49
M  V30 54 1 21 50
M  V30 55 1 21 51
M  V30 56 1 22 52
M  V30 57 1 22 53
M  V30 58 1 24 54
M  V30 59 1 24 55
M  V30 60 1 25 56
M  V30 61 1 25 57
M  V30 62 1 29 58
M  V30 63 1 30 59
M  V30 64 1 31 60
M  V30 65 1 33 61
M  V30 66 1 34 62
M  V30 67 1 34 63
M  V30 68 1 35 64
M  V30 69 1 35 65
M  V30 END BOND
M  V30 END CTAB
M  END
>  <Dataset>  (170) 
ChEMBL_Kinases

>  <Ligand_Instance>  (170) 
nan

>  <PDB_ID>  (170) 
nan

>  <Standardized_SMILES>  (170) 
CN1CCN(c2ccnc(Nc3cc(-c4ccc(OC5CCOCC5)c(C#N)c4)ccn3)c2)CC1

>  <Name>  (170) 
nan

>  <Pocket>  (170) 
nan

>  <ATP_Site>  (170) 
nan

>  <Peripheral>  (170) 
nan

>  <Num_H_Atoms_ProtBoundConf>  (170) 
nan

>  <Num_Resolved_Atoms>  (170) 
nan

>  <Num_Not_Resolved_Atoms>  (170) 
nan

$$$$
CHEMBL3687115
     RDKit          3D

  0  0  0  0  0  0  0  0  0  0999 V3000
M  V30 BEGIN CTAB
M  V30 COUNTS 60 64 0 0 0
M  V30 BEGIN ATOM
M  V30 1 N 0.216205 -5.603582 2.791918 0
M  V30 2 C 0.421152 -4.761611 2.026712 0
M  V30 3 C 0.697736 -3.724063 1.068348 0
M  V30 4 C 1.742165 -2.865987 1.411017 0
M  V30 5 C 2.083260 -1.834838 0.566018 0
M  V30 6 C 3.153897 -0.845067 0.827710 0
M  V30 7 C 4.348640 -1.032077 1.497773 0
M  V30 8 C 5.176128 0.056197 1.659080 0
M  V30 9 N 4.924346 1.300236 1.218585 0
M  V30 10 C 3.773182 1.570871 0.551010 0
M  V30 11 N 3.213843 2.775887 -0.010076 0
M  V30 12 C 2.238362 3.234597 0.950807 0
M  V30 13 C 2.270389 4.392126 1.695396 0
M  V30 14 N 1.284722 4.663140 2.554206 0
M  V30 15 C 0.234133 3.856305 2.744390 0
M  V30 16 C 0.173215 2.688237 2.014077 0
M  V30 17 N -0.912678 1.746531 2.148704 0
M  V30 18 C -1.035330 0.462594 1.486952 0
M  V30 19 C -2.329601 0.490608 0.702065 0
M  V30 20 O -3.368288 0.541580 1.614748 0
M  V30 21 C -3.011132 0.873499 2.896416 0
M  V30 22 C -2.042566 2.021418 3.013687 0
M  V30 23 N 1.172276 2.432860 1.155267 0
M  V30 24 C 2.925757 0.468089 0.381838 0
M  V30 25 C 1.381528 -1.655222 -0.634713 0
M  V30 26 C 0.357110 -2.528844 -0.930421 0
M  V30 27 C -0.017672 -3.562495 -0.122937 0
M  V30 28 O -0.998047 -4.476680 -0.293045 0
M  V30 29 C -1.924664 -4.621999 -1.330134 0
M  V30 30 C -3.018301 -3.621170 -1.080379 0
M  V30 31 C -3.503245 -2.879146 -2.276632 0
M  V30 32 O -2.536682 -2.569565 -3.195433 0
M  V30 33 C -1.993360 -3.717075 -3.696142 0
M  V30 34 C -1.384489 -4.657155 -2.707354 0
M  V30 35 H 2.335911 -2.914127 2.289107 0
M  V30 36 H 4.517869 -2.025564 1.834327 0
M  V30 37 H 6.104635 -0.076641 2.171327 0
M  V30 38 H 3.479893 3.207540 -0.930474 0
M  V30 39 H 3.154502 5.018113 1.494596 0
M  V30 40 H -0.548795 4.099849 3.445175 0
M  V30 41 H -1.142688 -0.339768 2.273001 0
M  V30 42 H -0.166293 0.220141 0.866659 0
M  V30 43 H -2.340084 1.445724 0.144080 0
M  V30 44 H -2.429283 -0.388032 0.029504 0
M  V30 45 H -3.961253 1.231435 3.394961 0
M  V30 46 H -2.712609 -0.005112 3.525353 0
M  V30 47 H -1.755127 2.070362 4.088089 0
M  V30 48 H -2.607202 2.929511 2.705646 0
M  V30 49 H 1.986677 0.620215 -0.140510 0
M  V30 50 H 1.564619 -0.891703 -1.376099 0
M  V30 51 H -0.193479 -2.415472 -1.824470 0
M  V30 52 H -2.376774 -5.647056 -1.148112 0
M  V30 53 H -2.682225 -2.862774 -0.305058 0
M  V30 54 H -3.900453 -4.090725 -0.595220 0
M  V30 55 H -3.918792 -1.900129 -1.893777 0
M  V30 56 H -4.358666 -3.368354 -2.775068 0
M  V30 57 H -2.792175 -4.212973 -4.300050 0
M  V30 58 H -1.217549 -3.428167 -4.452009 0
M  V30 59 H -1.530182 -5.686746 -3.181410 0
M  V30 60 H -0.265792 -4.552710 -2.774154 0
M  V30 END ATOM
M  V30 BEGIN BOND
M  V30 1 3 1 2
M  V30 2 1 2 3
M  V30 3 2 3 4
M  V30 4 1 4 5
M  V30 5 1 5 6
M  V30 6 2 6 7
M  V30 7 1 7 8
M  V30 8 2 8 9
M  V30 9 1 9 10
M  V30 10 1 10 11
M  V30 11 1 11 12
M  V30 12 2 12 13
M  V30 13 1 13 14
M  V30 14 2 14 15
M  V30 15 1 15 16
M  V30 16 1 16 17
M  V30 17 1 17 18
M  V30 18 1 18 19
M  V30 19 1 19 20
M  V30 20 1 20 21
M  V30 21 1 21 22
M  V30 22 2 16 23
M  V30 23 2 10 24
M  V30 24 2 5 25
M  V30 25 1 25 26
M  V30 26 2 26 27
M  V30 27 1 27 28
M  V30 28 1 28 29
M  V30 29 1 29 30
M  V30 30 1 30 31
M  V30 31 1 31 32
M  V30 32 1 32 33
M  V30 33 1 33 34
M  V30 34 1 27 3
M  V30 35 1 34 29
M  V30 36 1 24 6
M  V30 37 1 23 12
M  V30 38 1 22 17
M  V30 39 1 4 35
M  V30 40 1 7 36
M  V30 41 1 8 37
M  V30 42 1 11 38
M  V30 43 1 13 39
M  V30 44 1 15 40
M  V30 45 1 18 41
M  V30 46 1 18 42
M  V30 47 1 19 43
M  V30 48 1 19 44
M  V30 49 1 21 45
M  V30 50 1 21 46
M  V30 51 1 22 47
M  V30 52 1 22 48
M  V30 53 1 24 49
M  V30 54 1 25 50
M  V30 55 1 26 51
M  V30 56 1 29 52
M  V30 57 1 30 53
M  V30 58 1 30 54
M  V30 59 1 31 55
M  V30 60 1 31 56
M  V30 61 1 33 57
M  V30 62 1 33 58
M  V30 63 1 34 59
M  V30 64 1 34 60
M  V30 END BOND
M  V30 END CTAB
M  END
>  <Dataset>  (171) 
ChEMBL_Kinases

>  <Ligand_Instance>  (171) 
nan

>  <PDB_ID>  (171) 
nan

>  <Standardized_SMILES>  (171) 
N#Cc1cc(-c2ccnc(Nc3cncc(N4CCOCC4)n3)c2)ccc1OC1CCOCC1

>  <Name>  (171) 
nan

>  <Pocket>  (171) 
nan

>  <ATP_Site>  (171) 
nan

>  <Peripheral>  (171) 
nan

>  <Num_H_Atoms_ProtBoundConf>  (171) 
nan

>  <Num_Resolved_Atoms>  (171) 
nan

>  <Num_Not_Resolved_Atoms>  (171) 
nan

$$$$
CHEMBL3687116
     RDKit          3D

  0  0  0  0  0  0  0  0  0  0999 V3000
M  V30 BEGIN CTAB
M  V30 COUNTS 60 64 0 0 0
M  V30 BEGIN ATOM
M  V30 1 N 0.467746 -5.339858 2.715298 0
M  V30 2 C 0.694974 -4.574627 1.899475 0
M  V30 3 C 0.978868 -3.615696 0.869903 0
M  V30 4 C 1.841992 -2.571536 1.264793 0
M  V30 5 C 2.230133 -1.569539 0.412458 0
M  V30 6 C 3.185625 -0.536105 0.822765 0
M  V30 7 C 4.296155 -0.744469 1.662214 0
M  V30 8 C 4.984999 0.400342 1.952955 0
M  V30 9 N 4.733187 1.635994 1.547224 0
M  V30 10 C 3.655234 1.866384 0.732991 0
M  V30 11 N 3.381183 3.217674 0.344657 0
M  V30 12 C 2.096407 3.300988 -0.285478 0
M  V30 13 C 1.141083 3.175542 0.720286 0
M  V30 14 C -0.220094 3.200459 0.566341 0
M  V30 15 C -1.227139 3.038638 1.606518 0
M  V30 16 C -0.872007 2.856845 2.866088 0
M  V30 17 C -1.860477 2.679367 3.984674 0
M  V30 18 C -2.984464 1.802969 3.399380 0
M  V30 19 C -3.583455 2.581898 2.260375 0
M  V30 20 O -2.588286 3.059616 1.397078 0
M  V30 21 C -0.748095 3.367240 -0.726256 0
M  V30 22 C 0.239794 3.491005 -1.721071 0
M  V30 23 N 1.559261 3.460104 -1.517591 0
M  V30 24 C 2.936000 0.749225 0.414963 0
M  V30 25 C 1.780058 -1.540432 -0.915305 0
M  V30 26 C 0.946440 -2.573166 -1.247241 0
M  V30 27 C 0.502673 -3.613724 -0.476346 0
M  V30 28 O -0.258415 -4.670464 -0.583708 0
M  V30 29 C -0.898069 -5.500570 -1.429771 0
M  V30 30 C -1.928485 -6.383821 -0.795458 0
M  V30 31 C -3.306024 -6.220181 -1.386785 0
M  V30 32 O -3.735632 -4.949968 -1.634969 0
M  V30 33 C -2.776282 -4.043459 -2.031035 0
M  V30 34 C -1.630350 -4.814037 -2.604664 0
M  V30 35 H 2.266300 -2.466430 2.263411 0
M  V30 36 H 4.465232 -1.754536 1.964941 0
M  V30 37 H 5.855633 0.221169 2.601037 0
M  V30 38 H 4.081077 3.963675 0.536053 0
M  V30 39 H 1.382556 3.041928 1.769673 0
M  V30 40 H 0.123580 2.816647 3.222572 0
M  V30 41 H -2.228432 3.616953 4.404877 0
M  V30 42 H -1.422334 2.026993 4.789625 0
M  V30 43 H -3.687652 1.512777 4.176204 0
M  V30 44 H -2.440959 0.910005 2.969084 0
M  V30 45 H -4.091431 3.483082 2.705663 0
M  V30 46 H -4.347365 1.995062 1.698868 0
M  V30 47 H -1.770707 3.411224 -1.078710 0
M  V30 48 H 0.036243 3.628661 -2.786473 0
M  V30 49 H 2.071634 0.939663 -0.239683 0
M  V30 50 H 2.038710 -0.793321 -1.637294 0
M  V30 51 H 0.545384 -2.649191 -2.252350 0
M  V30 52 H -0.133508 -6.104052 -2.014212 0
M  V30 53 H -1.652310 -7.463247 -0.879287 0
M  V30 54 H -2.021171 -6.126622 0.305120 0
M  V30 55 H -4.024797 -6.633463 -0.601843 0
M  V30 56 H -3.449362 -6.903028 -2.250736 0
M  V30 57 H -2.494226 -3.410980 -1.154985 0
M  V30 58 H -3.173953 -3.408278 -2.864107 0
M  V30 59 H -0.937252 -4.211470 -3.209407 0
M  V30 60 H -2.068749 -5.610822 -3.257929 0
M  V30 END ATOM
M  V30 BEGIN BOND
M  V30 1 3 1 2
M  V30 2 1 2 3
M  V30 3 2 3 4
M  V30 4 1 4 5
M  V30 5 1 5 6
M  V30 6 2 6 7
M  V30 7 1 7 8
M  V30 8 2 8 9
M  V30 9 1 9 10
M  V30 10 1 10 11
M  V30 11 1 11 12
M  V30 12 2 12 13
M  V30 13 1 13 14
M  V30 14 1 14 15
M  V30 15 2 15 16
M  V30 16 1 16 17
M  V30 17 1 17 18
M  V30 18 1 18 19
M  V30 19 1 19 20
M  V30 20 2 14 21
M  V30 21 1 21 22
M  V30 22 2 22 23
M  V30 23 2 10 24
M  V30 24 2 5 25
M  V30 25 1 25 26
M  V30 26 2 26 27
M  V30 27 1 27 28
M  V30 28 1 28 29
M  V30 29 1 29 30
M  V30 30 1 30 31
M  V30 31 1 31 32
M  V30 32 1 32 33
M  V30 33 1 33 34
M  V30 34 1 27 3
M  V30 35 1 34 29
M  V30 36 1 24 6
M  V30 37 1 23 12
M  V30 38 1 20 15
M  V30 39 1 4 35
M  V30 40 1 7 36
M  V30 41 1 8 37
M  V30 42 1 11 38
M  V30 43 1 13 39
M  V30 44 1 16 40
M  V30 45 1 17 41
M  V30 46 1 17 42
M  V30 47 1 18 43
M  V30 48 1 18 44
M  V30 49 1 19 45
M  V30 50 1 19 46
M  V30 51 1 21 47
M  V30 52 1 22 48
M  V30 53 1 24 49
M  V30 54 1 25 50
M  V30 55 1 26 51
M  V30 56 1 29 52
M  V30 57 1 30 53
M  V30 58 1 30 54
M  V30 59 1 31 55
M  V30 60 1 31 56
M  V30 61 1 33 57
M  V30 62 1 33 58
M  V30 63 1 34 59
M  V30 64 1 34 60
M  V30 END BOND
M  V30 END CTAB
M  END
>  <Dataset>  (172) 
ChEMBL_Kinases

>  <Ligand_Instance>  (172) 
nan

>  <PDB_ID>  (172) 
nan

>  <Standardized_SMILES>  (172) 
N#Cc1cc(-c2ccnc(Nc3cc(C4=CCCCO4)ccn3)c2)ccc1OC1CCOCC1

>  <Name>  (172) 
nan

>  <Pocket>  (172) 
nan

>  <ATP_Site>  (172) 
nan

>  <Peripheral>  (172) 
nan

>  <Num_H_Atoms_ProtBoundConf>  (172) 
nan

>  <Num_Resolved_Atoms>  (172) 
nan

>  <Num_Not_Resolved_Atoms>  (172) 
nan

$$$$
CHEMBL3687126
     RDKit          3D

  0  0  0  0  0  0  0  0  0  0999 V3000
M  V30 BEGIN CTAB
M  V30 COUNTS 62 66 0 0 0
M  V30 BEGIN ATOM
M  V30 1 N -1.307785 -3.705802 1.111761 0
M  V30 2 C -0.754784 -3.007325 0.392899 0
M  V30 3 C -0.064208 -2.134311 -0.538086 0
M  V30 4 C 0.955398 -1.382276 0.025879 0
M  V30 5 C 1.707241 -0.503484 -0.740729 0
M  V30 6 C 2.773088 0.259179 -0.104832 0
M  V30 7 C 3.863941 0.581700 -0.879897 0
M  V30 8 C 4.862679 1.291140 -0.250190 0
M  V30 9 N 4.826877 1.669407 1.033205 0
M  V30 10 C 3.782086 1.375195 1.821411 0
M  V30 11 N 3.751244 1.756320 3.179305 0
M  V30 12 C 2.749481 1.617326 4.173199 0
M  V30 13 C 3.031992 2.003457 5.475898 0
M  V30 14 N 2.095553 1.890797 6.447836 0
M  V30 15 C 0.864961 1.393948 6.140820 0
M  V30 16 C 0.562975 1.007649 4.866105 0
M  V30 17 C -0.801570 0.476732 4.633739 0
M  V30 18 C -0.746736 -0.712572 3.743075 0
M  V30 19 C -2.013511 -0.982132 2.986171 0
M  V30 20 N -3.093020 -0.098255 3.379352 0
M  V30 21 C -2.653966 1.252293 3.090310 0
M  V30 22 C -1.622390 1.618264 4.094826 0
M  V30 23 N 1.519693 1.135082 3.930489 0
M  V30 24 C 2.762492 0.661525 1.212092 0
M  V30 25 C 1.397381 -0.411346 -2.080820 0
M  V30 26 C 0.385249 -1.156075 -2.645548 0
M  V30 27 C -0.374316 -2.035083 -1.903319 0
M  V30 28 O -1.415656 -2.873905 -2.222419 0
M  V30 29 C -1.937109 -3.014446 -3.520321 0
M  V30 30 C -1.891334 -4.453452 -3.990498 0
M  V30 31 C -2.367232 -4.477567 -5.424592 0
M  V30 32 O -2.822616 -3.237180 -5.836976 0
M  V30 33 C -3.844525 -2.753311 -5.020890 0
M  V30 34 C -3.358563 -2.491469 -3.613121 0
M  V30 35 H 1.212476 -1.443873 1.076391 0
M  V30 36 H 4.011410 0.340537 -1.908631 0
M  V30 37 H 5.783124 1.612037 -0.744074 0
M  V30 38 H 4.646258 2.233877 3.508797 0
M  V30 39 H 4.004338 2.410935 5.785404 0
M  V30 40 H 0.215548 1.359650 7.012801 0
M  V30 41 H -1.230456 0.246785 5.632603 0
M  V30 42 H 0.073013 -0.597570 3.001939 0
M  V30 43 H -0.508435 -1.612975 4.341498 0
M  V30 44 H -1.879666 -0.817330 1.898990 0
M  V30 45 H -2.376761 -2.019276 3.115114 0
M  V30 46 H -3.933580 -0.389420 2.847688 0
M  V30 47 H -2.261123 1.336121 2.052891 0
M  V30 48 H -3.533193 1.945525 3.214697 0
M  V30 49 H -0.961085 2.398492 3.614928 0
M  V30 50 H -2.120046 2.180214 4.920938 0
M  V30 51 H 1.876570 0.370641 1.750111 0
M  V30 52 H 1.949919 0.252965 -2.711232 0
M  V30 53 H 0.087959 -1.136167 -3.681677 0
M  V30 54 H -1.360790 -2.416726 -4.249688 0
M  V30 55 H -0.871995 -4.848847 -3.917228 0
M  V30 56 H -2.531891 -5.117520 -3.376379 0
M  V30 57 H -3.116630 -5.281242 -5.591021 0
M  V30 58 H -1.510685 -4.748070 -6.080897 0
M  V30 59 H -4.229751 -1.834340 -5.503921 0
M  V30 60 H -4.656732 -3.526692 -4.938560 0
M  V30 61 H -4.039927 -2.908400 -2.873037 0
M  V30 62 H -3.362062 -1.371594 -3.480872 0
M  V30 END ATOM
M  V30 BEGIN BOND
M  V30 1 3 1 2
M  V30 2 1 2 3
M  V30 3 2 3 4
M  V30 4 1 4 5
M  V30 5 1 5 6
M  V30 6 2 6 7
M  V30 7 1 7 8
M  V30 8 2 8 9
M  V30 9 1 9 10
M  V30 10 1 10 11
M  V30 11 1 11 12
M  V30 12 2 12 13
M  V30 13 1 13 14
M  V30 14 2 14 15
M  V30 15 1 15 16
M  V30 16 1 16 17
M  V30 17 1 17 18
M  V30 18 1 18 19
M  V30 19 1 19 20
M  V30 20 1 20 21
M  V30 21 1 21 22
M  V30 22 2 16 23
M  V30 23 2 10 24
M  V30 24 2 5 25
M  V30 25 1 25 26
M  V30 26 2 26 27
M  V30 27 1 27 28
M  V30 28 1 28 29
M  V30 29 1 29 30
M  V30 30 1 30 31
M  V30 31 1 31 32
M  V30 32 1 32 33
M  V30 33 1 33 34
M  V30 34 1 27 3
M  V30 35 1 34 29
M  V30 36 1 24 6
M  V30 37 1 23 12
M  V30 38 1 22 17
M  V30 39 1 4 35
M  V30 40 1 7 36
M  V30 41 1 8 37
M  V30 42 1 11 38
M  V30 43 1 13 39
M  V30 44 1 15 40
M  V30 45 1 17 41
M  V30 46 1 18 42
M  V30 47 1 18 43
M  V30 48 1 19 44
M  V30 49 1 19 45
M  V30 50 1 20 46
M  V30 51 1 21 47
M  V30 52 1 21 48
M  V30 53 1 22 49
M  V30 54 1 22 50
M  V30 55 1 24 51
M  V30 56 1 25 52
M  V30 57 1 26 53
M  V30 58 1 29 54
M  V30 59 1 30 55
M  V30 60 1 30 56
M  V30 61 1 31 57
M  V30 62 1 31 58
M  V30 63 1 33 59
M  V30 64 1 33 60
M  V30 65 1 34 61
M  V30 66 1 34 62
M  V30 END BOND
M  V30 END CTAB
M  END
>  <Dataset>  (173) 
ChEMBL_Kinases

>  <Ligand_Instance>  (173) 
nan

>  <PDB_ID>  (173) 
nan

>  <Standardized_SMILES>  (173) 
N#Cc1cc(-c2ccnc(Nc3cncc(C4CCNCC4)n3)c2)ccc1OC1CCOCC1

>  <Name>  (173) 
nan

>  <Pocket>  (173) 
nan

>  <ATP_Site>  (173) 
nan

>  <Peripheral>  (173) 
nan

>  <Num_H_Atoms_ProtBoundConf>  (173) 
nan

>  <Num_Resolved_Atoms>  (173) 
nan

>  <Num_Not_Resolved_Atoms>  (173) 
nan

$$$$
CHEMBL3687118
     RDKit          3D

  0  0  0  0  0  0  0  0  0  0999 V3000
M  V30 BEGIN CTAB
M  V30 COUNTS 65 70 0 0 0
M  V30 BEGIN ATOM
M  V30 1 N -1.205741 -5.699597 -1.715027 0
M  V30 2 C -0.569429 -4.772779 -1.491816 0
M  V30 3 C 0.225999 -3.582656 -1.187575 0
M  V30 4 C 1.201440 -3.825212 -0.209201 0
M  V30 5 C 2.021344 -2.797387 0.159709 0
M  V30 6 C 3.100611 -2.797581 1.144973 0
M  V30 7 C 3.917636 -3.923541 1.338830 0
M  V30 8 C 4.858784 -3.785732 2.329901 0
M  V30 9 N 5.025349 -2.681808 3.082231 0
M  V30 10 C 4.270638 -1.582836 2.935368 0
M  V30 11 N 4.354022 -0.351285 3.633941 0
M  V30 12 C 3.248878 0.547615 3.619525 0
M  V30 13 C 3.193256 1.890016 3.545350 0
M  V30 14 C 2.021397 2.597825 3.596208 0
M  V30 15 C 0.803952 1.973792 3.729942 0
M  V30 16 C -0.561229 2.490562 3.842006 0
M  V30 17 N -1.312235 2.691327 2.650600 0
M  V30 18 C -1.451835 1.604725 1.710203 0
M  V30 19 C -2.814147 1.373095 2.200602 0
M  V30 20 C -3.121857 0.096229 2.898243 0
M  V30 21 O -4.226991 -0.043412 2.053523 0
M  V30 22 C -3.926919 1.068548 1.268973 0
M  V30 23 C -2.776493 2.649583 2.901541 0
M  V30 24 C 0.870696 0.570389 3.805927 0
M  V30 25 N 2.039327 -0.078838 3.751867 0
M  V30 26 C 3.332255 -1.694242 1.960048 0
M  V30 27 C 1.877307 -1.546964 -0.436155 0
M  V30 28 C 0.919165 -1.315332 -1.397085 0
M  V30 29 C 0.067401 -2.327522 -1.796695 0
M  V30 30 O -0.920004 -2.406243 -2.666380 0
M  V30 31 C -1.543440 -1.746991 -3.667703 0
M  V30 32 C -2.625862 -2.530836 -4.358760 0
M  V30 33 C -3.250236 -1.665681 -5.429596 0
M  V30 34 O -2.414971 -0.538726 -5.668040 0
M  V30 35 C -2.610961 0.274914 -4.565427 0
M  V30 36 C -2.156888 -0.390046 -3.291821 0
M  V30 37 H 1.385683 -4.753367 0.299100 0
M  V30 38 H 3.790117 -4.813788 0.740648 0
M  V30 39 H 5.546503 -4.617637 2.552948 0
M  V30 40 H 5.252200 -0.180951 4.134805 0
M  V30 41 H 4.149790 2.384388 3.442915 0
M  V30 42 H 1.951807 3.657844 3.539342 0
M  V30 43 H -0.503532 3.517412 4.340765 0
M  V30 44 H -1.128527 1.874850 4.585625 0
M  V30 45 H -0.688025 0.830479 1.857001 0
M  V30 46 H -1.474842 2.019045 0.658855 0
M  V30 47 H -3.461200 0.182054 3.944981 0
M  V30 48 H -2.429491 -0.750912 2.684407 0
M  V30 49 H -3.558199 0.833304 0.244329 0
M  V30 50 H -4.680386 1.885007 1.259067 0
M  V30 51 H -3.318801 3.492991 2.494004 0
M  V30 52 H -2.906273 2.524114 4.013175 0
M  V30 53 H 0.000635 -0.089622 3.918678 0
M  V30 54 H 2.664862 -0.877327 1.727745 0
M  V30 55 H 2.446422 -0.638523 -0.261055 0
M  V30 56 H 0.731310 -0.391416 -1.916510 0
M  V30 57 H -0.773649 -1.440765 -4.443276 0
M  V30 58 H -3.421175 -2.721961 -3.580064 0
M  V30 59 H -2.283886 -3.500158 -4.757207 0
M  V30 60 H -3.403483 -2.168138 -6.387011 0
M  V30 61 H -4.208035 -1.226162 -5.041933 0
M  V30 62 H -3.721348 0.505642 -4.516925 0
M  V30 63 H -2.148249 1.291484 -4.701959 0
M  V30 64 H -3.012587 -0.463240 -2.613330 0
M  V30 65 H -1.338920 0.284172 -2.892559 0
M  V30 END ATOM
M  V30 BEGIN BOND
M  V30 1 3 1 2
M  V30 2 1 2 3
M  V30 3 2 3 4
M  V30 4 1 4 5
M  V30 5 1 5 6
M  V30 6 2 6 7
M  V30 7 1 7 8
M  V30 8 2 8 9
M  V30 9 1 9 10
M  V30 10 1 10 11
M  V30 11 1 11 12
M  V30 12 2 12 13
M  V30 13 1 13 14
M  V30 14 2 14 15
M  V30 15 1 15 16
M  V30 16 1 16 17
M  V30 17 1 17 18
M  V30 18 1 18 19
M  V30 19 1 19 20
M  V30 20 1 20 21
M  V30 21 1 21 22
M  V30 22 1 19 23
M  V30 23 1 15 24
M  V30 24 2 24 25
M  V30 25 2 10 26
M  V30 26 2 5 27
M  V30 27 1 27 28
M  V30 28 2 28 29
M  V30 29 1 29 30
M  V30 30 1 30 31
M  V30 31 1 31 32
M  V30 32 1 32 33
M  V30 33 1 33 34
M  V30 34 1 34 35
M  V30 35 1 35 36
M  V30 36 1 29 3
M  V30 37 1 36 31
M  V30 38 1 26 6
M  V30 39 1 25 12
M  V30 40 1 23 17
M  V30 41 1 22 19
M  V30 42 1 4 37
M  V30 43 1 7 38
M  V30 44 1 8 39
M  V30 45 1 11 40
M  V30 46 1 13 41
M  V30 47 1 14 42
M  V30 48 1 16 43
M  V30 49 1 16 44
M  V30 50 1 18 45
M  V30 51 1 18 46
M  V30 52 1 20 47
M  V30 53 1 20 48
M  V30 54 1 22 49
M  V30 55 1 22 50
M  V30 56 1 23 51
M  V30 57 1 23 52
M  V30 58 1 24 53
M  V30 59 1 26 54
M  V30 60 1 27 55
M  V30 61 1 28 56
M  V30 62 1 31 57
M  V30 63 1 32 58
M  V30 64 1 32 59
M  V30 65 1 33 60
M  V30 66 1 33 61
M  V30 67 1 35 62
M  V30 68 1 35 63
M  V30 69 1 36 64
M  V30 70 1 36 65
M  V30 END BOND
M  V30 END CTAB
M  END
>  <Dataset>  (174) 
ChEMBL_Kinases

>  <Ligand_Instance>  (174) 
nan

>  <PDB_ID>  (174) 
nan

>  <Standardized_SMILES>  (174) 
N#Cc1cc(-c2ccnc(Nc3ccc(CN4CC5(COC5)C4)cn3)c2)ccc1OC1CCOCC1

>  <Name>  (174) 
nan

>  <Pocket>  (174) 
nan

>  <ATP_Site>  (174) 
nan

>  <Peripheral>  (174) 
nan

>  <Num_H_Atoms_ProtBoundConf>  (174) 
nan

>  <Num_Resolved_Atoms>  (174) 
nan

>  <Num_Not_Resolved_Atoms>  (174) 
nan

$$$$
CHEMBL3687119
     RDKit          3D

  0  0  0  0  0  0  0  0  0  0999 V3000
M  V30 BEGIN CTAB
M  V30 COUNTS 62 66 0 0 0
M  V30 BEGIN ATOM
M  V30 1 N -2.727617 -1.819822 0.859612 0
M  V30 2 C -1.704573 -2.258676 0.615215 0
M  V30 3 C -0.416586 -2.792338 0.327648 0
M  V30 4 C 0.687203 -2.319718 1.003161 0
M  V30 5 C 1.921317 -2.856435 0.703233 0
M  V30 6 C 3.056378 -2.319617 1.447050 0
M  V30 7 C 4.128698 -3.134610 1.720703 0
M  V30 8 C 5.166455 -2.565347 2.425763 0
M  V30 9 N 5.157981 -1.290004 2.834915 0
M  V30 10 C 4.150817 -0.447122 2.602959 0
M  V30 11 N 4.164804 0.901386 3.047279 0
M  V30 12 C 3.207419 1.934433 2.901692 0
M  V30 13 N 3.459122 3.143178 3.420303 0
M  V30 14 C 2.578551 4.129998 3.298232 0
M  V30 15 C 1.388068 3.979859 2.651638 0
M  V30 16 C 1.137036 2.748673 2.126050 0
M  V30 17 C -0.168914 2.556143 1.407750 0
M  V30 18 C -0.158542 3.522478 0.255149 0
M  V30 19 C -1.496700 3.633491 -0.441009 0
M  V30 20 N -2.595789 3.582308 0.508492 0
M  V30 21 C -2.136311 3.943871 1.839622 0
M  V30 22 C -1.324432 2.787364 2.368849 0
M  V30 23 N 2.045760 1.777211 2.267257 0
M  V30 24 C 3.114484 -1.018371 1.897984 0
M  V30 25 C 2.040136 -3.845261 -0.253965 0
M  V30 26 C 0.879872 -4.289875 -0.912374 0
M  V30 27 C -0.399758 -3.767864 -0.635624 0
M  V30 28 O -1.246873 -4.413941 -1.434814 0
M  V30 29 C -2.593296 -4.374773 -1.651574 0
M  V30 30 C -2.889592 -3.889013 -3.088086 0
M  V30 31 C -4.343570 -3.557973 -3.154017 0
M  V30 32 O -5.082335 -4.319122 -2.253410 0
M  V30 33 C -4.634116 -5.611545 -2.143286 0
M  V30 34 C -3.294204 -5.709717 -1.444780 0
M  V30 35 H 0.524767 -1.547599 1.738110 0
M  V30 36 H 4.171021 -4.150353 1.412639 0
M  V30 37 H 6.054696 -3.149574 2.681882 0
M  V30 38 H 5.056359 1.151484 3.575933 0
M  V30 39 H 2.875438 5.071023 3.752701 0
M  V30 40 H 0.756921 4.842522 2.614559 0
M  V30 41 H -0.190040 1.507244 1.054564 0
M  V30 42 H 0.242633 4.508959 0.553770 0
M  V30 43 H 0.542981 3.112474 -0.500725 0
M  V30 44 H -1.521128 4.658676 -0.890855 0
M  V30 45 H -1.617614 2.921155 -1.265115 0
M  V30 46 H -3.393381 4.189117 0.244427 0
M  V30 47 H -3.039150 4.138100 2.451721 0
M  V30 48 H -1.478653 4.811021 1.743329 0
M  V30 49 H -0.947772 3.025408 3.393859 0
M  V30 50 H -1.980639 1.901920 2.396488 0
M  V30 51 H 2.235396 -0.446298 1.641968 0
M  V30 52 H 3.049134 -4.170901 -0.387085 0
M  V30 53 H 1.205972 -5.067046 -1.620879 0
M  V30 54 H -3.089749 -3.626199 -1.016646 0
M  V30 55 H -2.308994 -2.963119 -3.258312 0
M  V30 56 H -2.600034 -4.710607 -3.771331 0
M  V30 57 H -4.676857 -3.726983 -4.210822 0
M  V30 58 H -4.481358 -2.473172 -2.977228 0
M  V30 59 H -5.407222 -6.147042 -1.518154 0
M  V30 60 H -4.629940 -6.149953 -3.118466 0
M  V30 61 H -2.716035 -6.572867 -1.800704 0
M  V30 62 H -3.508827 -5.798880 -0.353538 0
M  V30 END ATOM
M  V30 BEGIN BOND
M  V30 1 3 1 2
M  V30 2 1 2 3
M  V30 3 2 3 4
M  V30 4 1 4 5
M  V30 5 1 5 6
M  V30 6 2 6 7
M  V30 7 1 7 8
M  V30 8 2 8 9
M  V30 9 1 9 10
M  V30 10 1 10 11
M  V30 11 1 11 12
M  V30 12 2 12 13
M  V30 13 1 13 14
M  V30 14 2 14 15
M  V30 15 1 15 16
M  V30 16 1 16 17
M  V30 17 1 17 18
M  V30 18 1 18 19
M  V30 19 1 19 20
M  V30 20 1 20 21
M  V30 21 1 21 22
M  V30 22 2 16 23
M  V30 23 2 10 24
M  V30 24 2 5 25
M  V30 25 1 25 26
M  V30 26 2 26 27
M  V30 27 1 27 28
M  V30 28 1 28 29
M  V30 29 1 29 30
M  V30 30 1 30 31
M  V30 31 1 31 32
M  V30 32 1 32 33
M  V30 33 1 33 34
M  V30 34 1 27 3
M  V30 35 1 34 29
M  V30 36 1 24 6
M  V30 37 1 23 12
M  V30 38 1 22 17
M  V30 39 1 4 35
M  V30 40 1 7 36
M  V30 41 1 8 37
M  V30 42 1 11 38
M  V30 43 1 14 39
M  V30 44 1 15 40
M  V30 45 1 17 41
M  V30 46 1 18 42
M  V30 47 1 18 43
M  V30 48 1 19 44
M  V30 49 1 19 45
M  V30 50 1 20 46
M  V30 51 1 21 47
M  V30 52 1 21 48
M  V30 53 1 22 49
M  V30 54 1 22 50
M  V30 55 1 24 51
M  V30 56 1 25 52
M  V30 57 1 26 53
M  V30 58 1 29 54
M  V30 59 1 30 55
M  V30 60 1 30 56
M  V30 61 1 31 57
M  V30 62 1 31 58
M  V30 63 1 33 59
M  V30 64 1 33 60
M  V30 65 1 34 61
M  V30 66 1 34 62
M  V30 END BOND
M  V30 END CTAB
M  END
>  <Dataset>  (175) 
ChEMBL_Kinases

>  <Ligand_Instance>  (175) 
nan

>  <PDB_ID>  (175) 
nan

>  <Standardized_SMILES>  (175) 
N#Cc1cc(-c2ccnc(Nc3nccc(C4CCNCC4)n3)c2)ccc1OC1CCOCC1

>  <Name>  (175) 
nan

>  <Pocket>  (175) 
nan

>  <ATP_Site>  (175) 
nan

>  <Peripheral>  (175) 
nan

>  <Num_H_Atoms_ProtBoundConf>  (175) 
nan

>  <Num_Resolved_Atoms>  (175) 
nan

>  <Num_Not_Resolved_Atoms>  (175) 
nan

$$$$
CHEMBL3687120
     RDKit          3D

  0  0  0  0  0  0  0  0  0  0999 V3000
M  V30 BEGIN CTAB
M  V30 COUNTS 60 64 0 0 0
M  V30 BEGIN ATOM
M  V30 1 N -2.087546 -3.665836 0.985253 0
M  V30 2 C -1.127505 -3.477066 0.384413 0
M  V30 3 C 0.065915 -3.223468 -0.384737 0
M  V30 4 C 0.972172 -2.343447 0.176654 0
M  V30 5 C 2.156298 -2.009804 -0.448931 0
M  V30 6 C 3.154642 -1.089958 0.085825 0
M  V30 7 C 4.465646 -1.291275 -0.214233 0
M  V30 8 C 5.354166 -0.395638 0.317249 0
M  V30 9 N 5.001893 0.626413 1.087122 0
M  V30 10 C 3.714850 0.881006 1.422283 0
M  V30 11 N 3.390440 1.974912 2.241076 0
M  V30 12 C 2.115178 2.406287 2.696592 0
M  V30 13 C 1.996505 3.515689 3.506924 0
M  V30 14 C 0.796740 3.988148 3.982614 0
M  V30 15 C -0.362312 3.327816 3.639948 0
M  V30 16 N -1.680140 3.681933 4.044351 0
M  V30 17 C -2.884602 2.961968 3.659467 0
M  V30 18 C -3.545131 3.879420 2.621390 0
M  V30 19 O -3.393028 5.191133 3.053555 0
M  V30 20 C -3.369427 5.289578 4.440851 0
M  V30 21 C -1.982761 4.815503 4.898261 0
M  V30 22 N -0.217237 2.250984 2.850030 0
M  V30 23 N 0.946248 1.818506 2.407226 0
M  V30 24 C 2.821114 -0.006871 0.896892 0
M  V30 25 C 2.399063 -2.599560 -1.673010 0
M  V30 26 C 1.506559 -3.480174 -2.249087 0
M  V30 27 C 0.320853 -3.816628 -1.626743 0
M  V30 28 O -0.677329 -4.658066 -2.032498 0
M  V30 29 C -0.750686 -5.405676 -3.204516 0
M  V30 30 C -0.940903 -6.870173 -2.903027 0
M  V30 31 C -2.407149 -7.245940 -3.065417 0
M  V30 32 O -2.799778 -7.171055 -4.400678 0
M  V30 33 C -2.125734 -6.147010 -5.071211 0
M  V30 34 C -1.899378 -4.980780 -4.102471 0
M  V30 35 H 0.794119 -1.865982 1.149226 0
M  V30 36 H 4.814940 -2.095685 -0.828853 0
M  V30 37 H 6.418938 -0.530272 0.093968 0
M  V30 38 H 4.210682 2.567753 2.569681 0
M  V30 39 H 2.850297 4.093335 3.824795 0
M  V30 40 H 0.708250 4.843971 4.607250 0
M  V30 41 H -2.538222 2.024236 3.157060 0
M  V30 42 H -3.546628 2.717472 4.490234 0
M  V30 43 H -4.604223 3.669183 2.487856 0
M  V30 44 H -2.989196 3.669110 1.668868 0
M  V30 45 H -3.539264 6.336705 4.743219 0
M  V30 46 H -4.169081 4.647496 4.841021 0
M  V30 47 H -2.124030 4.458227 5.935501 0
M  V30 48 H -1.285524 5.653058 4.815840 0
M  V30 49 H 1.777656 0.088685 1.089637 0
M  V30 50 H 3.296466 -2.375300 -2.194635 0
M  V30 51 H 1.647508 -3.965152 -3.197540 0
M  V30 52 H 0.171205 -5.225234 -3.813605 0
M  V30 53 H -0.701567 -7.026038 -1.830198 0
M  V30 54 H -0.370346 -7.545007 -3.575635 0
M  V30 55 H -3.082826 -6.657737 -2.436171 0
M  V30 56 H -2.493635 -8.309539 -2.763779 0
M  V30 57 H -1.116359 -6.542049 -5.311172 0
M  V30 58 H -2.641872 -5.828675 -5.977552 0
M  V30 59 H -2.824646 -4.756172 -3.562293 0
M  V30 60 H -1.633601 -4.122223 -4.739272 0
M  V30 END ATOM
M  V30 BEGIN BOND
M  V30 1 3 1 2
M  V30 2 1 2 3
M  V30 3 2 3 4
M  V30 4 1 4 5
M  V30 5 1 5 6
M  V30 6 2 6 7
M  V30 7 1 7 8
M  V30 8 2 8 9
M  V30 9 1 9 10
M  V30 10 1 10 11
M  V30 11 1 11 12
M  V30 12 2 12 13
M  V30 13 1 13 14
M  V30 14 2 14 15
M  V30 15 1 15 16
M  V30 16 1 16 17
M  V30 17 1 17 18
M  V30 18 1 18 19
M  V30 19 1 19 20
M  V30 20 1 20 21
M  V30 21 1 15 22
M  V30 22 2 22 23
M  V30 23 2 10 24
M  V30 24 2 5 25
M  V30 25 1 25 26
M  V30 26 2 26 27
M  V30 27 1 27 28
M  V30 28 1 28 29
M  V30 29 1 29 30
M  V30 30 1 30 31
M  V30 31 1 31 32
M  V30 32 1 32 33
M  V30 33 1 33 34
M  V30 34 1 27 3
M  V30 35 1 34 29
M  V30 36 1 24 6
M  V30 37 1 23 12
M  V30 38 1 21 16
M  V30 39 1 4 35
M  V30 40 1 7 36
M  V30 41 1 8 37
M  V30 42 1 11 38
M  V30 43 1 13 39
M  V30 44 1 14 40
M  V30 45 1 17 41
M  V30 46 1 17 42
M  V30 47 1 18 43
M  V30 48 1 18 44
M  V30 49 1 20 45
M  V30 50 1 20 46
M  V30 51 1 21 47
M  V30 52 1 21 48
M  V30 53 1 24 49
M  V30 54 1 25 50
M  V30 55 1 26 51
M  V30 56 1 29 52
M  V30 57 1 30 53
M  V30 58 1 30 54
M  V30 59 1 31 55
M  V30 60 1 31 56
M  V30 61 1 33 57
M  V30 62 1 33 58
M  V30 63 1 34 59
M  V30 64 1 34 60
M  V30 END BOND
M  V30 END CTAB
M  END
>  <Dataset>  (176) 
ChEMBL_Kinases

>  <Ligand_Instance>  (176) 
nan

>  <PDB_ID>  (176) 
nan

>  <Standardized_SMILES>  (176) 
N#Cc1cc(-c2ccnc(Nc3ccc(N4CCOCC4)nn3)c2)ccc1OC1CCOCC1

>  <Name>  (176) 
nan

>  <Pocket>  (176) 
nan

>  <ATP_Site>  (176) 
nan

>  <Peripheral>  (176) 
nan

>  <Num_H_Atoms_ProtBoundConf>  (176) 
nan

>  <Num_Resolved_Atoms>  (176) 
nan

>  <Num_Not_Resolved_Atoms>  (176) 
nan

$$$$
CHEMBL3687121
     RDKit          3D

  0  0  0  0  0  0  0  0  0  0999 V3000
M  V30 BEGIN CTAB
M  V30 COUNTS 63 67 0 0 0
M  V30 BEGIN ATOM
M  V30 1 N -1.863173 -3.167810 2.074969 0
M  V30 2 C -1.040642 -3.311329 1.273432 0
M  V30 3 C -0.098318 -3.472124 0.336142 0
M  V30 4 C 1.288666 -3.303921 0.764233 0
M  V30 5 C 2.412642 -3.556666 -0.006897 0
M  V30 6 C 3.618033 -2.812098 0.344328 0
M  V30 7 C 4.710366 -2.072953 0.678711 0
M  V30 8 C 5.300355 -0.915788 0.829399 0
M  V30 9 N 4.659493 0.258090 0.563652 0
M  V30 10 C 3.285842 0.062357 0.158666 0
M  V30 11 N 2.347734 1.128332 -0.028691 0
M  V30 12 C 1.704322 1.618859 1.143569 0
M  V30 13 C 2.252608 2.428727 1.987302 0
M  V30 14 C 1.772165 2.876492 3.179920 0
M  V30 15 C 0.501469 2.339710 3.365156 0
M  V30 16 C -0.204137 1.514770 2.508839 0
M  V30 17 C -1.493929 0.946939 2.862489 0
M  V30 18 C -2.273572 0.446404 1.691580 0
M  V30 19 C -3.618041 -0.109682 2.148187 0
M  V30 20 N -4.371539 0.806155 2.968837 0
M  V30 21 C -3.624503 1.339178 4.061119 0
M  V30 22 C -2.316789 1.976642 3.571700 0
M  V30 23 N 0.385763 1.119619 1.332793 0
M  V30 24 C 3.019849 -1.378015 0.112812 0
M  V30 25 C 2.194486 -4.021890 -1.253804 0
M  V30 26 C 0.955831 -4.214067 -1.850149 0
M  V30 27 C 0.073292 -3.868481 -0.898947 0
M  V30 28 O -1.369640 -3.786486 -1.462740 0
M  V30 29 C -1.332518 -2.425375 -2.120742 0
M  V30 30 C -1.239981 -2.531281 -3.625002 0
M  V30 31 C -0.996769 -1.092494 -4.166675 0
M  V30 32 O -1.905653 -0.181868 -3.675670 0
M  V30 33 C -2.892162 -0.750423 -2.903578 0
M  V30 34 C -2.275973 -1.417946 -1.645102 0
M  V30 35 H 1.499532 -2.978623 1.771731 0
M  V30 36 H 5.087550 -3.082885 1.017150 0
M  V30 37 H 6.326236 -0.974021 1.097910 0
M  V30 38 H 2.150088 1.445144 -0.974837 0
M  V30 39 H 3.254970 2.816589 1.692374 0
M  V30 40 H 2.206243 3.545354 3.857389 0
M  V30 41 H 0.068912 2.528112 4.320504 0
M  V30 42 H -1.392482 0.067801 3.581168 0
M  V30 43 H -1.714237 -0.431839 1.274506 0
M  V30 44 H -2.483112 1.222719 0.939677 0
M  V30 45 H -3.552907 -1.108978 2.621636 0
M  V30 46 H -4.230006 -0.273443 1.211698 0
M  V30 47 H -4.861776 1.539246 2.454829 0
M  V30 48 H -4.229509 2.183223 4.489723 0
M  V30 49 H -3.399590 0.643054 4.868628 0
M  V30 50 H -2.551540 2.826781 2.875609 0
M  V30 51 H -1.875220 2.397437 4.487537 0
M  V30 52 H 2.023102 -1.133391 -0.459796 0
M  V30 53 H 3.113838 -4.232723 -1.838394 0
M  V30 54 H 0.809444 -4.726650 -2.769480 0
M  V30 55 H -0.288861 -2.019808 -1.835180 0
M  V30 56 H -0.265460 -3.057719 -3.830231 0
M  V30 57 H -2.113675 -2.997552 -4.078453 0
M  V30 58 H 0.018104 -0.807498 -3.761717 0
M  V30 59 H -0.883178 -1.119333 -5.248206 0
M  V30 60 H -3.532751 0.080996 -2.540429 0
M  V30 61 H -3.509823 -1.478280 -3.430723 0
M  V30 62 H -3.100591 -1.765922 -0.984646 0
M  V30 63 H -1.794343 -0.511934 -1.109520 0
M  V30 END ATOM
M  V30 BEGIN BOND
M  V30 1 3 1 2
M  V30 2 1 2 3
M  V30 3 2 3 4
M  V30 4 1 4 5
M  V30 5 1 5 6
M  V30 6 2 6 7
M  V30 7 1 7 8
M  V30 8 2 8 9
M  V30 9 1 9 10
M  V30 10 1 10 11
M  V30 11 1 11 12
M  V30 12 2 12 13
M  V30 13 1 13 14
M  V30 14 2 14 15
M  V30 15 1 15 16
M  V30 16 1 16 17
M  V30 17 1 17 18
M  V30 18 1 18 19
M  V30 19 1 19 20
M  V30 20 1 20 21
M  V30 21 1 21 22
M  V30 22 2 16 23
M  V30 23 2 10 24
M  V30 24 2 5 25
M  V30 25 1 25 26
M  V30 26 2 26 27
M  V30 27 1 27 28
M  V30 28 1 28 29
M  V30 29 1 29 30
M  V30 30 1 30 31
M  V30 31 1 31 32
M  V30 32 1 32 33
M  V30 33 1 33 34
M  V30 34 1 27 3
M  V30 35 1 34 29
M  V30 36 1 24 6
M  V30 37 1 23 12
M  V30 38 1 22 17
M  V30 39 1 4 35
M  V30 40 1 7 36
M  V30 41 1 8 37
M  V30 42 1 11 38
M  V30 43 1 13 39
M  V30 44 1 14 40
M  V30 45 1 15 41
M  V30 46 1 17 42
M  V30 47 1 18 43
M  V30 48 1 18 44
M  V30 49 1 19 45
M  V30 50 1 19 46
M  V30 51 1 20 47
M  V30 52 1 21 48
M  V30 53 1 21 49
M  V30 54 1 22 50
M  V30 55 1 22 51
M  V30 56 1 24 52
M  V30 57 1 25 53
M  V30 58 1 26 54
M  V30 59 1 29 55
M  V30 60 1 30 56
M  V30 61 1 30 57
M  V30 62 1 31 58
M  V30 63 1 31 59
M  V30 64 1 33 60
M  V30 65 1 33 61
M  V30 66 1 34 62
M  V30 67 1 34 63
M  V30 END BOND
M  V30 END CTAB
M  END
>  <Dataset>  (177) 
ChEMBL_Kinases

>  <Ligand_Instance>  (177) 
nan

>  <PDB_ID>  (177) 
nan

>  <Standardized_SMILES>  (177) 
N#Cc1cc(-c2ccnc(Nc3cccc(C4CCNCC4)n3)c2)ccc1OC1CCOCC1

>  <Name>  (177) 
nan

>  <Pocket>  (177) 
nan

>  <ATP_Site>  (177) 
nan

>  <Peripheral>  (177) 
nan

>  <Num_H_Atoms_ProtBoundConf>  (177) 
nan

>  <Num_Resolved_Atoms>  (177) 
nan

>  <Num_Not_Resolved_Atoms>  (177) 
nan

$$$$
CHEMBL3687122
     RDKit          3D

  0  0  0  0  0  0  0  0  0  0999 V3000
M  V30 BEGIN CTAB
M  V30 COUNTS 59 63 0 0 0
M  V30 BEGIN ATOM
M  V30 1 N -2.971413 -3.401157 2.249615 0
M  V30 2 C -2.035694 -3.120109 1.665798 0
M  V30 3 C -0.852079 -2.763762 0.955554 0
M  V30 4 C 0.319831 -2.534120 1.640564 0
M  V30 5 C 1.440080 -2.193991 0.913770 0
M  V30 6 C 2.685764 -1.944185 1.634585 0
M  V30 7 C 3.092312 -2.561961 2.807226 0
M  V30 8 C 4.302453 -2.191383 3.373760 0
M  V30 9 N 5.118857 -1.262152 2.858644 0
M  V30 10 C 4.787655 -0.623498 1.724958 0
M  V30 11 N 5.511335 0.404977 1.010755 0
M  V30 12 C 4.716937 1.571550 0.679637 0
M  V30 13 C 5.237415 2.644255 -0.039559 0
M  V30 14 N 4.469799 3.725624 -0.324344 0
M  V30 15 C 3.192307 3.764023 0.091254 0
M  V30 16 C 2.650498 2.719401 0.803091 0
M  V30 17 C 1.290363 2.696541 1.278609 0
M  V30 18 C 0.839936 1.657046 1.959967 0
M  V30 19 C -0.496424 1.416087 2.537778 0
M  V30 20 C -1.494339 2.304253 1.822777 0
M  V30 21 C -0.928609 3.691048 1.743731 0
M  V30 22 O 0.327874 3.673834 1.110618 0
M  V30 23 N 3.438571 1.672572 1.063591 0
M  V30 24 C 3.574597 -0.978067 1.132184 0
M  V30 25 C 1.417266 -2.078394 -0.481438 0
M  V30 26 C 0.191113 -2.327975 -1.092651 0
M  V30 27 C -0.984099 -2.676836 -0.409751 0
M  V30 28 O -1.981654 -2.845801 -1.290485 0
M  V30 29 C -3.306020 -3.152646 -1.265909 0
M  V30 30 C -3.586269 -4.500605 -1.935948 0
M  V30 31 C -5.106317 -4.693531 -1.857407 0
M  V30 32 O -5.687547 -3.775323 -2.737133 0
M  V30 33 C -5.555306 -2.511536 -2.117381 0
M  V30 34 C -4.107603 -2.110959 -2.055947 0
M  V30 35 H 0.298316 -2.633092 2.708857 0
M  V30 36 H 2.419323 -3.303526 3.203813 0
M  V30 37 H 4.610301 -2.676451 4.282192 0
M  V30 38 H 6.510979 0.418521 0.706758 0
M  V30 39 H 6.286559 2.579520 -0.363639 0
M  V30 40 H 2.552104 4.622122 -0.124165 0
M  V30 41 H 1.518981 0.813286 2.157364 0
M  V30 42 H -0.822680 0.352493 2.389700 0
M  V30 43 H -0.516287 1.659328 3.639711 0
M  V30 44 H -2.481185 2.304067 2.338002 0
M  V30 45 H -1.584188 1.907966 0.798350 0
M  V30 46 H -0.883178 4.102376 2.780746 0
M  V30 47 H -1.630209 4.297243 1.101464 0
M  V30 48 H 3.255985 -0.499983 0.215163 0
M  V30 49 H 2.318963 -1.811907 -0.993574 0
M  V30 50 H 0.303791 -2.206588 -2.183938 0
M  V30 51 H -3.815955 -3.227295 -0.287874 0
M  V30 52 H -3.146810 -5.323739 -1.337401 0
M  V30 53 H -3.279898 -4.481395 -2.990214 0
M  V30 54 H -5.410655 -5.728451 -2.055102 0
M  V30 55 H -5.449893 -4.377174 -0.843507 0
M  V30 56 H -6.061586 -1.793361 -2.813124 0
M  V30 57 H -6.080778 -2.470498 -1.150703 0
M  V30 58 H -3.736764 -2.065446 -3.108911 0
M  V30 59 H -4.017957 -1.166173 -1.510931 0
M  V30 END ATOM
M  V30 BEGIN BOND
M  V30 1 3 1 2
M  V30 2 1 2 3
M  V30 3 2 3 4
M  V30 4 1 4 5
M  V30 5 1 5 6
M  V30 6 2 6 7
M  V30 7 1 7 8
M  V30 8 2 8 9
M  V30 9 1 9 10
M  V30 10 1 10 11
M  V30 11 1 11 12
M  V30 12 2 12 13
M  V30 13 1 13 14
M  V30 14 2 14 15
M  V30 15 1 15 16
M  V30 16 1 16 17
M  V30 17 2 17 18
M  V30 18 1 18 19
M  V30 19 1 19 20
M  V30 20 1 20 21
M  V30 21 1 21 22
M  V30 22 2 16 23
M  V30 23 2 10 24
M  V30 24 2 5 25
M  V30 25 1 25 26
M  V30 26 2 26 27
M  V30 27 1 27 28
M  V30 28 1 28 29
M  V30 29 1 29 30
M  V30 30 1 30 31
M  V30 31 1 31 32
M  V30 32 1 32 33
M  V30 33 1 33 34
M  V30 34 1 27 3
M  V30 35 1 34 29
M  V30 36 1 24 6
M  V30 37 1 23 12
M  V30 38 1 22 17
M  V30 39 1 4 35
M  V30 40 1 7 36
M  V30 41 1 8 37
M  V30 42 1 11 38
M  V30 43 1 13 39
M  V30 44 1 15 40
M  V30 45 1 18 41
M  V30 46 1 19 42
M  V30 47 1 19 43
M  V30 48 1 20 44
M  V30 49 1 20 45
M  V30 50 1 21 46
M  V30 51 1 21 47
M  V30 52 1 24 48
M  V30 53 1 25 49
M  V30 54 1 26 50
M  V30 55 1 29 51
M  V30 56 1 30 52
M  V30 57 1 30 53
M  V30 58 1 31 54
M  V30 59 1 31 55
M  V30 60 1 33 56
M  V30 61 1 33 57
M  V30 62 1 34 58
M  V30 63 1 34 59
M  V30 END BOND
M  V30 END CTAB
M  END
>  <Dataset>  (178) 
ChEMBL_Kinases

>  <Ligand_Instance>  (178) 
nan

>  <PDB_ID>  (178) 
nan

>  <Standardized_SMILES>  (178) 
N#Cc1cc(-c2ccnc(Nc3cncc(C4=CCCCO4)n3)c2)ccc1OC1CCOCC1

>  <Name>  (178) 
nan

>  <Pocket>  (178) 
nan

>  <ATP_Site>  (178) 
nan

>  <Peripheral>  (178) 
nan

>  <Num_H_Atoms_ProtBoundConf>  (178) 
nan

>  <Num_Resolved_Atoms>  (178) 
nan

>  <Num_Not_Resolved_Atoms>  (178) 
nan

$$$$
CHEMBL3687123
     RDKit          3D

  0  0  0  0  0  0  0  0  0  0999 V3000
M  V30 BEGIN CTAB
M  V30 COUNTS 47 50 0 0 0
M  V30 BEGIN ATOM
M  V30 1 C 7.060803 2.366133 2.708121 0
M  V30 2 C 6.232028 1.229666 2.249114 0
M  V30 3 C 5.648567 1.065486 0.989647 0
M  V30 4 O 5.008479 -0.091371 1.012539 0
M  V30 5 C 5.120882 -0.691046 2.162458 0
M  V30 6 N 4.598642 -1.935040 2.614454 0
M  V30 7 C 3.821173 -2.729868 1.706684 0
M  V30 8 N 4.293339 -3.881930 1.151983 0
M  V30 9 C 3.463731 -4.552288 0.298163 0
M  V30 10 C 2.188535 -4.052973 0.023435 0
M  V30 11 C 1.738345 -2.886315 0.597241 0
M  V30 12 C 0.431422 -2.260096 0.357382 0
M  V30 13 C 0.182116 -1.064303 0.993940 0
M  V30 14 C -1.026397 -0.417330 0.837438 0
M  V30 15 C -2.053710 -0.927177 0.037234 0
M  V30 16 O -3.287559 -0.335541 -0.164058 0
M  V30 17 C -3.702247 0.889132 0.359423 0
M  V30 18 C -4.592097 0.734390 1.580033 0
M  V30 19 C -6.008794 0.377105 1.277066 0
M  V30 20 O -6.475643 0.788277 0.051435 0
M  V30 21 C -5.867075 1.944190 -0.402352 0
M  V30 22 C -4.385615 1.741169 -0.642133 0
M  V30 23 C -1.750979 -2.122928 -0.575631 0
M  V30 24 C -2.714879 -2.777200 -1.436791 0
M  V30 25 N -3.498652 -3.297462 -2.109732 0
M  V30 26 C -0.546095 -2.813021 -0.448692 0
M  V30 27 N 2.604960 -2.279127 1.426715 0
M  V30 28 N 5.886065 0.132931 2.937352 0
M  V30 29 H 7.618375 2.090739 3.638465 0
M  V30 30 H 6.491830 3.299101 2.859656 0
M  V30 31 H 7.842300 2.590475 1.955477 0
M  V30 32 H 5.759542 1.802629 0.214898 0
M  V30 33 H 4.771405 -2.273396 3.582436 0
M  V30 34 H 3.776436 -5.475007 -0.176012 0
M  V30 35 H 1.507196 -4.558941 -0.648526 0
M  V30 36 H 0.927970 -0.589395 1.641706 0
M  V30 37 H -1.171851 0.512386 1.353212 0
M  V30 38 H -2.803954 1.458278 0.752878 0
M  V30 39 H -4.144661 0.039243 2.336614 0
M  V30 40 H -4.612048 1.735145 2.082964 0
M  V30 41 H -6.716426 0.743110 2.069931 0
M  V30 42 H -6.112143 -0.740254 1.342798 0
M  V30 43 H -6.095017 2.817597 0.227851 0
M  V30 44 H -6.326028 2.166337 -1.401115 0
M  V30 45 H -4.203471 1.271740 -1.646854 0
M  V30 46 H -3.945998 2.760961 -0.711976 0
M  V30 47 H -0.342716 -3.748481 -0.945275 0
M  V30 END ATOM
M  V30 BEGIN BOND
M  V30 1 1 1 2
M  V30 2 2 2 3
M  V30 3 1 3 4
M  V30 4 1 4 5
M  V30 5 1 5 6
M  V30 6 1 6 7
M  V30 7 2 7 8
M  V30 8 1 8 9
M  V30 9 2 9 10
M  V30 10 1 10 11
M  V30 11 1 11 12
M  V30 12 2 12 13
M  V30 13 1 13 14
M  V30 14 2 14 15
M  V30 15 1 15 16
M  V30 16 1 16 17
M  V30 17 1 17 18
M  V30 18 1 18 19
M  V30 19 1 19 20
M  V30 20 1 20 21
M  V30 21 1 21 22
M  V30 22 1 15 23
M  V30 23 1 23 24
M  V30 24 3 24 25
M  V30 25 2 23 26
M  V30 26 2 11 27
M  V30 27 2 5 28
M  V30 28 1 28 2
M  V30 29 1 27 7
M  V30 30 1 26 12
M  V30 31 1 22 17
M  V30 32 1 1 29
M  V30 33 1 1 30
M  V30 34 1 1 31
M  V30 35 1 3 32
M  V30 36 1 6 33
M  V30 37 1 9 34
M  V30 38 1 10 35
M  V30 39 1 13 36
M  V30 40 1 14 37
M  V30 41 1 17 38
M  V30 42 1 18 39
M  V30 43 1 18 40
M  V30 44 1 19 41
M  V30 45 1 19 42
M  V30 46 1 21 43
M  V30 47 1 21 44
M  V30 48 1 22 45
M  V30 49 1 22 46
M  V30 50 1 26 47
M  V30 END BOND
M  V30 END CTAB
M  END
>  <Dataset>  (179) 
ChEMBL_Kinases

>  <Ligand_Instance>  (179) 
nan

>  <PDB_ID>  (179) 
nan

>  <Standardized_SMILES>  (179) 
Cc1coc(Nc2nccc(-c3ccc(OC4CCOCC4)c(C#N)c3)n2)n1

>  <Name>  (179) 
nan

>  <Pocket>  (179) 
nan

>  <ATP_Site>  (179) 
nan

>  <Peripheral>  (179) 
nan

>  <Num_H_Atoms_ProtBoundConf>  (179) 
nan

>  <Num_Resolved_Atoms>  (179) 
nan

>  <Num_Not_Resolved_Atoms>  (179) 
nan

$$$$
CHEMBL3687124
     RDKit          3D

  0  0  0  0  0  0  0  0  0  0999 V3000
M  V30 BEGIN CTAB
M  V30 COUNTS 51 54 0 0 0
M  V30 BEGIN ATOM
M  V30 1 N 0.741991 -6.609085 1.051302 0
M  V30 2 C 0.707304 -5.447525 1.029438 0
M  V30 3 C 0.647153 -4.004315 1.020922 0
M  V30 4 C 1.523417 -3.431952 0.082842 0
M  V30 5 C 1.552508 -2.059478 -0.014821 0
M  V30 6 C 2.411992 -1.336138 -0.943674 0
M  V30 7 C 3.241627 -2.029501 -1.772037 0
M  V30 8 C 4.082437 -1.415502 -2.676186 0
M  V30 9 N 4.089534 -0.076900 -2.749265 0
M  V30 10 C 3.268787 0.646512 -1.931609 0
M  V30 11 N 3.331795 2.041557 -2.065565 0
M  V30 12 C 2.655950 3.081414 -1.413982 0
M  V30 13 C 2.675837 4.478721 -1.503345 0
M  V30 14 N 1.804250 4.976604 -0.621555 0
M  V30 15 N 1.199148 4.017336 0.054779 0
M  V30 16 C 0.198499 4.182920 1.087159 0
M  V30 17 C -1.197385 4.201853 0.540262 0
M  V30 18 O -2.051513 4.367701 1.651138 0
M  V30 19 C 1.711519 2.869033 -0.421541 0
M  V30 20 N 2.463344 0.025456 -1.063877 0
M  V30 21 C 0.760741 -1.247154 0.768051 0
M  V30 22 C -0.070421 -1.881026 1.662870 0
M  V30 23 C -0.192753 -3.235414 1.855289 0
M  V30 24 O -0.896747 -4.040731 2.628140 0
M  V30 25 C -1.837489 -4.106048 3.591097 0
M  V30 26 C -3.220075 -3.648667 3.375004 0
M  V30 27 C -3.981139 -4.347506 2.252532 0
M  V30 28 C -3.874140 -3.056613 1.450945 0
M  V30 29 C -3.579443 -2.349566 2.790391 0
M  V30 30 H 2.156289 -4.001666 -0.546358 0
M  V30 31 H 3.353334 -3.096144 -1.835806 0
M  V30 32 H 4.765881 -1.917990 -3.361962 0
M  V30 33 H 3.981424 2.469319 -2.761872 0
M  V30 34 H 3.342137 4.968773 -2.220247 0
M  V30 35 H 0.367714 5.168323 1.571031 0
M  V30 36 H 0.267679 3.430377 1.890026 0
M  V30 37 H -1.508349 3.239492 0.087961 0
M  V30 38 H -1.348580 5.055123 -0.127120 0
M  V30 39 H -1.697451 3.918859 2.460468 0
M  V30 40 H 1.393535 1.932418 -0.044864 0
M  V30 41 H 0.707684 -0.171121 0.770296 0
M  V30 42 H -0.697999 -1.308814 2.315328 0
M  V30 43 H -1.865651 -5.118367 4.120304 0
M  V30 44 H -1.445039 -3.454599 4.461120 0
M  V30 45 H -3.820957 -3.846544 4.320855 0
M  V30 46 H -3.485274 -5.225339 1.844271 0
M  V30 47 H -5.050045 -4.550579 2.463794 0
M  V30 48 H -4.809178 -2.723807 0.957755 0
M  V30 49 H -3.039380 -3.000259 0.745972 0
M  V30 50 H -4.590584 -1.942986 3.146025 0
M  V30 51 H -2.896215 -1.517165 2.752979 0
M  V30 END ATOM
M  V30 BEGIN BOND
M  V30 1 3 1 2
M  V30 2 1 2 3
M  V30 3 2 3 4
M  V30 4 1 4 5
M  V30 5 1 5 6
M  V30 6 2 6 7
M  V30 7 1 7 8
M  V30 8 2 8 9
M  V30 9 1 9 10
M  V30 10 1 10 11
M  V30 11 1 11 12
M  V30 12 1 12 13
M  V30 13 2 13 14
M  V30 14 1 14 15
M  V30 15 1 15 16
M  V30 16 1 16 17
M  V30 17 1 17 18
M  V30 18 1 15 19
M  V30 19 2 10 20
M  V30 20 2 5 21
M  V30 21 1 21 22
M  V30 22 2 22 23
M  V30 23 1 23 24
M  V30 24 1 24 25
M  V30 25 1 25 26
M  V30 26 1 26 27
M  V30 27 1 27 28
M  V30 28 1 28 29
M  V30 29 1 23 3
M  V30 30 1 29 26
M  V30 31 1 20 6
M  V30 32 2 19 12
M  V30 33 1 4 30
M  V30 34 1 7 31
M  V30 35 1 8 32
M  V30 36 1 11 33
M  V30 37 1 13 34
M  V30 38 1 16 35
M  V30 39 1 16 36
M  V30 40 1 17 37
M  V30 41 1 17 38
M  V30 42 1 18 39
M  V30 43 1 19 40
M  V30 44 1 21 41
M  V30 45 1 22 42
M  V30 46 1 25 43
M  V30 47 1 25 44
M  V30 48 1 26 45
M  V30 49 1 27 46
M  V30 50 1 27 47
M  V30 51 1 28 48
M  V30 52 1 28 49
M  V30 53 1 29 50
M  V30 54 1 29 51
M  V30 END BOND
M  V30 END CTAB
M  END
>  <Dataset>  (180) 
ChEMBL_Kinases

>  <Ligand_Instance>  (180) 
nan

>  <PDB_ID>  (180) 
nan

>  <Standardized_SMILES>  (180) 
N#Cc1cc(-c2ccnc(Nc3cnn(CCO)c3)n2)ccc1OCC1CCC1

>  <Name>  (180) 
nan

>  <Pocket>  (180) 
nan

>  <ATP_Site>  (180) 
nan

>  <Peripheral>  (180) 
nan

>  <Num_H_Atoms_ProtBoundConf>  (180) 
nan

>  <Num_Resolved_Atoms>  (180) 
nan

>  <Num_Not_Resolved_Atoms>  (180) 
nan

$$$$
CHEMBL3687125
     RDKit          3D

  0  0  0  0  0  0  0  0  0  0999 V3000
M  V30 BEGIN CTAB
M  V30 COUNTS 58 62 0 0 0
M  V30 BEGIN ATOM
M  V30 1 N -0.800382 -5.797801 1.125396 0
M  V30 2 C -0.317284 -4.805863 0.758929 0
M  V30 3 C 0.269610 -3.541885 0.279813 0
M  V30 4 C 1.518296 -3.450695 0.779295 0
M  V30 5 C 2.560562 -2.584249 0.758312 0
M  V30 6 C 3.640520 -1.667046 0.734180 0
M  V30 7 C 4.874457 -2.287972 0.552789 0
M  V30 8 C 6.060024 -1.517489 0.410264 0
M  V30 9 N 5.945024 -0.182399 0.456697 0
M  V30 10 C 4.837783 0.470906 0.622690 0
M  V30 11 N 4.269706 1.794928 0.687127 0
M  V30 12 C 2.960523 2.192631 1.063344 0
M  V30 13 C 2.228486 3.115706 0.396148 0
M  V30 14 N 1.051636 3.295352 0.993598 0
M  V30 15 N 0.983485 2.496288 2.080365 0
M  V30 16 C -0.120572 2.461553 2.974140 0
M  V30 17 C -1.197866 1.460311 2.683694 0 CFG=1
M  V30 18 C -0.815549 -0.000757 2.663817 0
M  V30 19 C -1.625990 0.542767 3.787268 0 CFG=2
M  V30 20 C -3.055136 0.128013 3.875587 0
M  V30 21 O -3.918807 1.186424 4.033049 0
M  V30 22 C 2.140354 1.837766 2.094921 0
M  V30 23 N 4.175823 -0.529968 0.688600 0
M  V30 24 C 1.883208 -1.472441 -0.151898 0
M  V30 25 C 0.567439 -1.610693 -0.667692 0
M  V30 26 C -0.280023 -2.599840 -0.491576 0
M  V30 27 O -1.591902 -2.924409 -0.893677 0
M  V30 28 C -2.075338 -1.883582 -1.791606 0
M  V30 29 C -3.478172 -2.042074 -2.218985 0
M  V30 30 C -3.871625 -3.306888 -2.902265 0
M  V30 31 C -4.361691 -2.550518 -4.134873 0
M  V30 32 C -3.634574 -1.353726 -3.603598 0
M  V30 33 H 2.230096 -4.017211 1.447035 0
M  V30 34 H 5.159056 -3.369331 0.484347 0
M  V30 35 H 7.108447 -1.863063 0.263982 0
M  V30 36 H 4.904656 2.605641 0.441790 0
M  V30 37 H 2.375294 3.727010 -0.520084 0
M  V30 38 H 0.299056 2.259825 4.008948 0
M  V30 39 H -0.602192 3.500019 3.026545 0
M  V30 40 H -1.971392 1.806881 1.962330 0
M  V30 41 H 0.215856 -0.312495 2.954162 0
M  V30 42 H -1.328381 -0.669599 1.944937 0
M  V30 43 H -1.100652 0.694144 4.775485 0
M  V30 44 H -3.183814 -0.539551 4.775438 0
M  V30 45 H -3.348619 -0.478301 2.972346 0
M  V30 46 H -4.743699 1.117702 3.499988 0
M  V30 47 H 2.356073 1.112759 2.870601 0
M  V30 48 H 2.107386 -0.468681 -0.617600 0
M  V30 49 H 0.014185 -0.876390 -1.330747 0
M  V30 50 H -1.969644 -0.946246 -1.229112 0
M  V30 51 H -1.340120 -1.812549 -2.643873 0
M  V30 52 H -4.196977 -1.620362 -1.529264 0
M  V30 53 H -4.758721 -3.742481 -2.333349 0
M  V30 54 H -3.051885 -4.037314 -3.104825 0
M  V30 55 H -5.468855 -2.324636 -4.135939 0
M  V30 56 H -3.971206 -2.989680 -5.057246 0
M  V30 57 H -4.176728 -0.415824 -3.572162 0
M  V30 58 H -2.634641 -1.250469 -4.110317 0
M  V30 END ATOM
M  V30 BEGIN BOND
M  V30 1 3 1 2
M  V30 2 1 2 3
M  V30 3 2 3 4
M  V30 4 1 4 5
M  V30 5 1 5 6
M  V30 6 2 6 7
M  V30 7 1 7 8
M  V30 8 2 8 9
M  V30 9 1 9 10
M  V30 10 1 10 11
M  V30 11 1 11 12
M  V30 12 1 12 13
M  V30 13 2 13 14
M  V30 14 1 14 15
M  V30 15 1 15 16
M  V30 16 1 16 17
M  V30 17 1 17 18
M  V30 18 1 18 19
M  V30 19 1 19 20
M  V30 20 1 20 21
M  V30 21 1 15 22
M  V30 22 2 10 23
M  V30 23 2 5 24
M  V30 24 1 24 25
M  V30 25 2 25 26
M  V30 26 1 26 27
M  V30 27 1 27 28
M  V30 28 1 28 29
M  V30 29 1 29 30
M  V30 30 1 30 31
M  V30 31 1 31 32
M  V30 32 1 26 3
M  V30 33 1 32 29
M  V30 34 1 23 6
M  V30 35 2 22 12
M  V30 36 1 19 17
M  V30 37 1 4 33
M  V30 38 1 7 34
M  V30 39 1 8 35
M  V30 40 1 11 36
M  V30 41 1 13 37
M  V30 42 1 16 38
M  V30 43 1 16 39
M  V30 44 1 17 40 CFG=3
M  V30 45 1 18 41
M  V30 46 1 18 42
M  V30 47 1 19 43 CFG=1
M  V30 48 1 20 44
M  V30 49 1 20 45
M  V30 50 1 21 46
M  V30 51 1 22 47
M  V30 52 1 24 48
M  V30 53 1 25 49
M  V30 54 1 28 50
M  V30 55 1 28 51
M  V30 56 1 29 52
M  V30 57 1 30 53
M  V30 58 1 30 54
M  V30 59 1 31 55
M  V30 60 1 31 56
M  V30 61 1 32 57
M  V30 62 1 32 58
M  V30 END BOND
M  V30 END CTAB
M  END
>  <Dataset>  (181) 
ChEMBL_Kinases

>  <Ligand_Instance>  (181) 
nan

>  <PDB_ID>  (181) 
nan

>  <Standardized_SMILES>  (181) 
N#Cc1cc(-c2ccnc(Nc3cnn(C[C@H]4C[C@@H]4CO)c3)n2)ccc1OCC1CCC1

>  <Name>  (181) 
nan

>  <Pocket>  (181) 
nan

>  <ATP_Site>  (181) 
nan

>  <Peripheral>  (181) 
nan

>  <Num_H_Atoms_ProtBoundConf>  (181) 
nan

>  <Num_Resolved_Atoms>  (181) 
nan

>  <Num_Not_Resolved_Atoms>  (181) 
nan

$$$$
CHEMBL3687117
     RDKit          3D

  0  0  0  0  0  0  0  0  0  0999 V3000
M  V30 BEGIN CTAB
M  V30 COUNTS 51 55 0 0 0
M  V30 BEGIN ATOM
M  V30 1 N -1.592016 -5.923164 -1.691959 0
M  V30 2 C -1.246959 -4.885435 -1.278163 0
M  V30 3 C -0.825355 -3.610631 -0.746889 0
M  V30 4 C 0.120430 -2.896330 -1.467235 0
M  V30 5 C 0.597200 -1.671932 -1.060115 0
M  V30 6 C 1.586699 -0.898366 -1.790437 0
M  V30 7 C 2.101128 -1.393865 -2.970346 0
M  V30 8 C 3.041920 -0.698466 -3.700576 0
M  V30 9 N 3.440150 0.483088 -3.218856 0
M  V30 10 C 2.961316 0.998726 -2.072073 0
M  V30 11 N 3.490781 2.256935 -1.710511 0
M  V30 12 C 3.163752 3.047276 -0.536065 0
M  V30 13 N 3.460035 4.049961 -0.067800 0
M  V30 14 C 3.004158 4.572794 1.053527 0
M  V30 15 C 3.409810 5.874857 1.630855 0
M  V30 16 C 3.456639 6.038440 3.119732 0
M  V30 17 C 2.360793 6.694813 2.324514 0
M  V30 18 C 1.969150 3.696448 1.759548 0
M  V30 19 S 1.882957 2.234655 0.579978 0
M  V30 20 N 2.044998 0.312317 -1.368941 0
M  V30 21 C 0.054341 -1.220290 0.121211 0
M  V30 22 C -0.885577 -1.889608 0.873222 0
M  V30 23 C -1.354812 -3.115540 0.453915 0
M  V30 24 O -2.283870 -3.949726 1.043395 0
M  V30 25 C -2.927800 -3.651700 2.232330 0
M  V30 26 C -2.672972 -4.737599 3.267494 0
M  V30 27 C -3.498468 -5.963448 2.994926 0
M  V30 28 O -4.068130 -5.982148 1.747144 0
M  V30 29 C -4.949112 -4.936160 1.524551 0
M  V30 30 C -4.450795 -3.620185 2.079755 0
M  V30 31 H 0.484603 -3.336590 -2.382052 0
M  V30 32 H 1.839286 -2.334473 -3.433089 0
M  V30 33 H 3.476982 -1.053866 -4.641669 0
M  V30 34 H 4.195199 2.737156 -2.293976 0
M  V30 35 H 4.154813 6.482878 1.089154 0
M  V30 36 H 3.168873 5.197510 3.780414 0
M  V30 37 H 4.260126 6.656264 3.570355 0
M  V30 38 H 2.414551 7.802540 2.299524 0
M  V30 39 H 1.339417 6.296975 2.493422 0
M  V30 40 H 1.548851 4.210533 2.821830 0
M  V30 41 H 0.327616 -0.279503 0.567548 0
M  V30 42 H -1.306356 -1.530240 1.797181 0
M  V30 43 H -2.667018 -2.692489 2.711230 0
M  V30 44 H -3.008790 -4.318767 4.244522 0
M  V30 45 H -1.583095 -4.969073 3.327734 0
M  V30 46 H -4.303275 -6.106342 3.747800 0
M  V30 47 H -2.847230 -6.872725 3.060679 0
M  V30 48 H -5.976829 -5.156579 1.869577 0
M  V30 49 H -5.017502 -4.831748 0.410136 0
M  V30 50 H -4.787360 -2.784166 1.457781 0
M  V30 51 H -4.855550 -3.459717 3.100429 0
M  V30 END ATOM
M  V30 BEGIN BOND
M  V30 1 3 1 2
M  V30 2 1 2 3
M  V30 3 2 3 4
M  V30 4 1 4 5
M  V30 5 1 5 6
M  V30 6 2 6 7
M  V30 7 1 7 8
M  V30 8 2 8 9
M  V30 9 1 9 10
M  V30 10 1 10 11
M  V30 11 1 11 12
M  V30 12 2 12 13
M  V30 13 1 13 14
M  V30 14 1 14 15
M  V30 15 1 15 16
M  V30 16 1 16 17
M  V30 17 2 14 18
M  V30 18 1 18 19
M  V30 19 2 10 20
M  V30 20 2 5 21
M  V30 21 1 21 22
M  V30 22 2 22 23
M  V30 23 1 23 24
M  V30 24 1 24 25
M  V30 25 1 25 26
M  V30 26 1 26 27
M  V30 27 1 27 28
M  V30 28 1 28 29
M  V30 29 1 29 30
M  V30 30 1 23 3
M  V30 31 1 30 25
M  V30 32 1 20 6
M  V30 33 1 19 12
M  V30 34 1 17 15
M  V30 35 1 4 31
M  V30 36 1 7 32
M  V30 37 1 8 33
M  V30 38 1 11 34
M  V30 39 1 15 35
M  V30 40 1 16 36
M  V30 41 1 16 37
M  V30 42 1 17 38
M  V30 43 1 17 39
M  V30 44 1 18 40
M  V30 45 1 21 41
M  V30 46 1 22 42
M  V30 47 1 25 43
M  V30 48 1 26 44
M  V30 49 1 26 45
M  V30 50 1 27 46
M  V30 51 1 27 47
M  V30 52 1 29 48
M  V30 53 1 29 49
M  V30 54 1 30 50
M  V30 55 1 30 51
M  V30 END BOND
M  V30 END CTAB
M  END
>  <Dataset>  (182) 
ChEMBL_Kinases

>  <Ligand_Instance>  (182) 
nan

>  <PDB_ID>  (182) 
nan

>  <Standardized_SMILES>  (182) 
N#Cc1cc(-c2ccnc(Nc3nc(C4CC4)cs3)n2)ccc1OC1CCOCC1

>  <Name>  (182) 
nan

>  <Pocket>  (182) 
nan

>  <ATP_Site>  (182) 
nan

>  <Peripheral>  (182) 
nan

>  <Num_H_Atoms_ProtBoundConf>  (182) 
nan

>  <Num_Resolved_Atoms>  (182) 
nan

>  <Num_Not_Resolved_Atoms>  (182) 
nan

$$$$
CHEMBL3687174
     RDKit          3D

  0  0  0  0  0  0  0  0  0  0999 V3000
M  V30 BEGIN CTAB
M  V30 COUNTS 48 51 0 0 0
M  V30 BEGIN ATOM
M  V30 1 C 2.655552 -7.919223 0.015382 0
M  V30 2 N 2.662698 -6.472612 -0.142354 0
M  V30 3 C 1.681165 -5.674585 0.309740 0
M  V30 4 C 2.112829 -4.410124 -0.060842 0
M  V30 5 C 3.323577 -4.466909 -0.717141 0
M  V30 6 N 4.119493 -3.425110 -1.263289 0
M  V30 7 C 3.787319 -2.047696 -1.227949 0
M  V30 8 N 4.646524 -1.175847 -1.790698 0
M  V30 9 C 4.456306 0.148125 -1.827323 0
M  V30 10 C 3.303956 0.633847 -1.248452 0
M  V30 11 C 2.394701 -0.215221 -0.660737 0
M  V30 12 C 1.190746 0.329526 -0.059866 0
M  V30 13 C 0.925228 1.677773 -0.057860 0
M  V30 14 C -0.205454 2.228887 0.502293 0
M  V30 15 C -1.163287 1.446755 1.109555 0
M  V30 16 O -2.350847 1.803669 1.721470 0
M  V30 17 C -2.804753 3.132599 1.828652 0
M  V30 18 C -2.973963 3.470382 3.316008 0
M  V30 19 C -3.884726 2.465794 3.952482 0
M  V30 20 O -4.456767 1.585468 3.044078 0
M  V30 21 C -5.056731 2.189492 1.960738 0
M  V30 22 C -4.216262 3.212465 1.266259 0
M  V30 23 C -0.936033 0.064268 1.132127 0
M  V30 24 C -1.855758 -0.872160 1.734915 0
M  V30 25 N -2.602692 -1.606895 2.215708 0
M  V30 26 C 0.226367 -0.440927 0.549737 0
M  V30 27 N 2.698031 -1.523956 -0.687623 0
M  V30 28 N 3.595715 -5.778746 -0.726534 0
M  V30 29 H 2.639558 -8.236610 1.078208 0
M  V30 30 H 3.495988 -8.391332 -0.530437 0
M  V30 31 H 1.735105 -8.346684 -0.442177 0
M  V30 32 H 0.783364 -5.967348 0.832001 0
M  V30 33 H 1.558184 -3.510653 0.146940 0
M  V30 34 H 5.021448 -3.718652 -1.725532 0
M  V30 35 H 5.227613 0.741350 -2.312369 0
M  V30 36 H 3.222431 1.707616 -1.317959 0
M  V30 37 H 1.562251 2.408372 -0.484102 0
M  V30 38 H -0.430063 3.282253 0.513252 0
M  V30 39 H -2.143795 3.889201 1.386643 0
M  V30 40 H -2.000205 3.594083 3.804842 0
M  V30 41 H -3.501679 4.452418 3.340127 0
M  V30 42 H -4.671842 2.944482 4.599601 0
M  V30 43 H -3.268908 1.852831 4.644953 0
M  V30 44 H -6.056152 2.604720 2.203408 0
M  V30 45 H -5.254493 1.365562 1.225222 0
M  V30 46 H -4.611998 4.223090 1.573680 0
M  V30 47 H -4.205559 3.089709 0.185029 0
M  V30 48 H 0.369842 -1.510662 0.584917 0
M  V30 END ATOM
M  V30 BEGIN BOND
M  V30 1 1 1 2
M  V30 2 1 2 3
M  V30 3 2 3 4
M  V30 4 1 4 5
M  V30 5 1 5 6
M  V30 6 1 6 7
M  V30 7 2 7 8
M  V30 8 1 8 9
M  V30 9 2 9 10
M  V30 10 1 10 11
M  V30 11 1 11 12
M  V30 12 2 12 13
M  V30 13 1 13 14
M  V30 14 2 14 15
M  V30 15 1 15 16
M  V30 16 1 16 17
M  V30 17 1 17 18
M  V30 18 1 18 19
M  V30 19 1 19 20
M  V30 20 1 20 21
M  V30 21 1 21 22
M  V30 22 1 15 23
M  V30 23 1 23 24
M  V30 24 3 24 25
M  V30 25 2 23 26
M  V30 26 2 11 27
M  V30 27 2 5 28
M  V30 28 1 28 2
M  V30 29 1 27 7
M  V30 30 1 26 12
M  V30 31 1 22 17
M  V30 32 1 1 29
M  V30 33 1 1 30
M  V30 34 1 1 31
M  V30 35 1 3 32
M  V30 36 1 4 33
M  V30 37 1 6 34
M  V30 38 1 9 35
M  V30 39 1 10 36
M  V30 40 1 13 37
M  V30 41 1 14 38
M  V30 42 1 17 39
M  V30 43 1 18 40
M  V30 44 1 18 41
M  V30 45 1 19 42
M  V30 46 1 19 43
M  V30 47 1 21 44
M  V30 48 1 21 45
M  V30 49 1 22 46
M  V30 50 1 22 47
M  V30 51 1 26 48
M  V30 END BOND
M  V30 END CTAB
M  END
>  <Dataset>  (183) 
ChEMBL_Kinases

>  <Ligand_Instance>  (183) 
nan

>  <PDB_ID>  (183) 
nan

>  <Standardized_SMILES>  (183) 
Cn1ccc(Nc2nccc(-c3ccc(OC4CCOCC4)c(C#N)c3)n2)n1

>  <Name>  (183) 
nan

>  <Pocket>  (183) 
nan

>  <ATP_Site>  (183) 
nan

>  <Peripheral>  (183) 
nan

>  <Num_H_Atoms_ProtBoundConf>  (183) 
nan

>  <Num_Resolved_Atoms>  (183) 
nan

>  <Num_Not_Resolved_Atoms>  (183) 
nan

$$$$
CHEMBL3687173
     RDKit          3D

  0  0  0  0  0  0  0  0  0  0999 V3000
M  V30 BEGIN CTAB
M  V30 COUNTS 57 60 0 0 0
M  V30 BEGIN ATOM
M  V30 1 C 1.725861 -0.841399 5.035024 0
M  V30 2 C 2.770409 0.048617 4.357363 0
M  V30 3 C 3.910534 0.176355 5.379711 0
M  V30 4 C 2.133369 1.385980 4.110472 0
M  V30 5 C 3.241665 -0.639609 3.140050 0
M  V30 6 C 4.073281 -0.067392 2.204301 0
M  V30 7 C 4.262862 -1.071906 1.253539 0
M  V30 8 N 5.041672 -1.015874 0.059062 0
M  V30 9 C 4.218193 -0.894423 -1.112918 0
M  V30 10 C 2.850741 -0.913193 -1.095589 0
M  V30 11 C 1.975272 -0.809801 -2.148029 0
M  V30 12 C 0.514787 -0.859139 -1.947334 0
M  V30 13 C -0.362645 -0.177457 -2.762944 0
M  V30 14 C -1.735249 -0.285530 -2.496057 0
M  V30 15 C -2.219910 -1.062858 -1.431138 0
M  V30 16 O -3.542487 -0.977221 -1.425037 0
M  V30 17 C -4.608863 -1.429548 -0.709720 0
M  V30 18 C -5.437982 -2.476413 -1.442726 0
M  V30 19 C -6.430419 -1.889248 -2.406771 0
M  V30 20 O -7.324785 -1.098562 -1.652849 0
M  V30 21 C -6.596372 0.020607 -1.267071 0
M  V30 22 C -5.536566 -0.317463 -0.259812 0
M  V30 23 C -1.257223 -1.694126 -0.690034 0
M  V30 24 C -1.753013 -2.487949 0.390436 0
M  V30 25 N -2.140250 -3.142604 1.254494 0
M  V30 26 C 0.105825 -1.646078 -0.876981 0
M  V30 27 C 2.591878 -0.664580 -3.400235 0
M  V30 28 C 3.968236 -0.640122 -3.456556 0
M  V30 29 N 4.736951 -0.751617 -2.352477 0
M  V30 30 O 3.572727 -2.136603 1.648324 0
M  V30 31 N 2.964031 -1.904209 2.755664 0
M  V30 32 H 1.771211 -0.796051 6.129498 0
M  V30 33 H 1.865939 -1.903503 4.732636 0
M  V30 34 H 0.707176 -0.573627 4.676623 0
M  V30 35 H 3.684168 1.092800 5.961777 0
M  V30 36 H 3.865847 -0.669700 6.106471 0
M  V30 37 H 4.892714 0.227920 4.842731 0
M  V30 38 H 2.931312 2.109470 3.823776 0
M  V30 39 H 1.682115 1.699372 5.079700 0
M  V30 40 H 1.370368 1.266987 3.339212 0
M  V30 41 H 4.498517 0.927103 2.183233 0
M  V30 42 H 6.054386 -1.047512 -0.103885 0
M  V30 43 H 2.371911 -1.019166 -0.129642 0
M  V30 44 H 0.118935 0.384482 -3.544510 0
M  V30 45 H -2.283397 0.319182 -3.239034 0
M  V30 46 H -4.277305 -1.939570 0.217215 0
M  V30 47 H -6.010744 -3.033516 -0.669941 0
M  V30 48 H -4.775593 -3.200319 -1.971962 0
M  V30 49 H -6.984875 -2.758972 -2.835229 0
M  V30 50 H -5.933099 -1.288796 -3.168899 0
M  V30 51 H -7.250720 0.783427 -0.816944 0
M  V30 52 H -6.145889 0.412781 -2.225265 0
M  V30 53 H -4.909461 0.613892 -0.150120 0
M  V30 54 H -6.025464 -0.548613 0.704077 0
M  V30 55 H 0.747745 -2.202086 -0.212150 0
M  V30 56 H 1.936050 -0.580407 -4.258213 0
M  V30 57 H 4.447636 -0.525967 -4.434224 0
M  V30 END ATOM
M  V30 BEGIN BOND
M  V30 1 1 1 2
M  V30 2 1 2 3
M  V30 3 1 2 4
M  V30 4 1 2 5
M  V30 5 1 5 6
M  V30 6 2 6 7
M  V30 7 1 7 8
M  V30 8 1 8 9
M  V30 9 2 9 10
M  V30 10 1 10 11
M  V30 11 1 11 12
M  V30 12 2 12 13
M  V30 13 1 13 14
M  V30 14 2 14 15
M  V30 15 1 15 16
M  V30 16 1 16 17
M  V30 17 1 17 18
M  V30 18 1 18 19
M  V30 19 1 19 20
M  V30 20 1 20 21
M  V30 21 1 21 22
M  V30 22 1 15 23
M  V30 23 1 23 24
M  V30 24 3 24 25
M  V30 25 2 23 26
M  V30 26 2 11 27
M  V30 27 1 27 28
M  V30 28 2 28 29
M  V30 29 1 7 30
M  V30 30 1 30 31
M  V30 31 2 31 5
M  V30 32 1 29 9
M  V30 33 1 26 12
M  V30 34 1 22 17
M  V30 35 1 1 32
M  V30 36 1 1 33
M  V30 37 1 1 34
M  V30 38 1 3 35
M  V30 39 1 3 36
M  V30 40 1 3 37
M  V30 41 1 4 38
M  V30 42 1 4 39
M  V30 43 1 4 40
M  V30 44 1 6 41
M  V30 45 1 8 42
M  V30 46 1 10 43
M  V30 47 1 13 44
M  V30 48 1 14 45
M  V30 49 1 17 46
M  V30 50 1 18 47
M  V30 51 1 18 48
M  V30 52 1 19 49
M  V30 53 1 19 50
M  V30 54 1 21 51
M  V30 55 1 21 52
M  V30 56 1 22 53
M  V30 57 1 22 54
M  V30 58 1 26 55
M  V30 59 1 27 56
M  V30 60 1 28 57
M  V30 END BOND
M  V30 END CTAB
M  END
>  <Dataset>  (184) 
ChEMBL_Kinases

>  <Ligand_Instance>  (184) 
nan

>  <PDB_ID>  (184) 
nan

>  <Standardized_SMILES>  (184) 
CC(C)(C)c1cc(Nc2cc(-c3ccc(OC4CCOCC4)c(C#N)c3)ccn2)on1

>  <Name>  (184) 
nan

>  <Pocket>  (184) 
nan

>  <ATP_Site>  (184) 
nan

>  <Peripheral>  (184) 
nan

>  <Num_H_Atoms_ProtBoundConf>  (184) 
nan

>  <Num_Resolved_Atoms>  (184) 
nan

>  <Num_Not_Resolved_Atoms>  (184) 
nan

$$$$
CHEMBL3687172
     RDKit          3D

  0  0  0  0  0  0  0  0  0  0999 V3000
M  V30 BEGIN CTAB
M  V30 COUNTS 74 78 0 0 0
M  V30 BEGIN ATOM
M  V30 1 N 4.854059 4.119078 -1.147876 0
M  V30 2 C 4.458295 3.277426 -0.424050 0
M  V30 3 C 3.955379 2.250155 0.486792 0
M  V30 4 C 3.502990 2.565885 1.746875 0
M  V30 5 C 3.081047 1.463929 2.431386 0
M  V30 6 C 2.531981 1.798163 3.724015 0
M  V30 7 C 2.805305 2.756997 4.656767 0
M  V30 8 C 2.034905 2.860009 5.831625 0
M  V30 9 N 0.997153 2.011033 6.070234 0
M  V30 10 C 0.639041 1.045616 5.239788 0
M  V30 11 N -0.455530 0.154559 5.457932 0
M  V30 12 C -0.819748 -0.960391 4.570259 0
M  V30 13 C 0.073510 -1.891121 3.940774 0
M  V30 14 N -0.978673 -2.241683 3.505341 0
M  V30 15 N -2.106117 -2.318103 3.283175 0
M  V30 16 C -3.384283 -2.678825 2.755718 0
M  V30 17 C -3.811957 -1.777479 1.631917 0
M  V30 18 C -5.142013 -2.213665 1.053849 0
M  V30 19 C -5.483102 -1.210919 -0.038610 0
M  V30 20 C -4.620967 -1.346866 -1.263566 0
M  V30 21 N -4.776094 -2.702497 -1.801786 0
M  V30 22 C -4.027837 -2.728249 -2.987103 0
M  V30 23 O -3.509581 -1.561358 -3.111614 0
M  V30 24 C -3.658112 -3.615912 -4.097037 0
M  V30 25 N -4.228399 -4.941080 -4.007755 0
M  V30 26 C -5.616594 -3.556281 -0.991859 0
M  V30 27 C -5.036438 -3.581322 0.409837 0
M  V30 28 C -2.162027 -1.216657 4.172028 0
M  V30 29 C 1.453193 1.015621 4.108387 0
M  V30 30 C 3.096903 0.166290 1.947036 0
M  V30 31 C 3.594643 0.000379 0.628150 0
M  V30 32 C 4.066336 1.077336 -0.208866 0
M  V30 33 O 4.410521 0.429399 -1.343907 0
M  V30 34 C 5.021497 0.835432 -2.519368 0
M  V30 35 C 4.075173 1.691539 -3.381883 0
M  V30 36 C 3.885578 1.116359 -4.762350 0
M  V30 37 O 3.439793 -0.192723 -4.639231 0
M  V30 38 C 4.345026 -1.021585 -3.975769 0
M  V30 39 C 5.495604 -0.259243 -3.403048 0
M  V30 40 H 3.559713 3.598750 1.954465 0
M  V30 41 H 3.656592 3.378992 4.368027 0
M  V30 42 H 2.300112 3.627795 6.542343 0
M  V30 43 H -0.977650 0.384087 6.366456 0
M  V30 44 H 1.117692 -2.007287 3.986598 0
M  V30 45 H -4.152846 -2.608015 3.575784 0
M  V30 46 H -3.419432 -3.754283 2.454375 0
M  V30 47 H -3.927806 -0.744502 1.958036 0
M  V30 48 H -3.056263 -1.821315 0.839774 0
M  V30 49 H -5.919410 -2.168128 1.833560 0
M  V30 50 H -6.542806 -1.315408 -0.318213 0
M  V30 51 H -5.330371 -0.165127 0.363673 0
M  V30 52 H -5.061384 -0.653550 -2.012479 0
M  V30 53 H -3.560186 -1.071787 -1.119109 0
M  V30 54 H -4.016836 -3.176839 -5.064538 0
M  V30 55 H -2.538818 -3.696939 -4.230001 0
M  V30 56 H -4.886619 -5.124349 -4.779358 0
M  V30 57 H -3.458114 -5.660650 -3.982025 0
M  V30 58 H -6.671437 -3.202138 -1.005129 0
M  V30 59 H -5.635718 -4.609376 -1.374507 0
M  V30 60 H -5.726707 -4.243248 1.006732 0
M  V30 61 H -4.035674 -3.989169 0.395165 0
M  V30 62 H -2.967204 -0.563093 4.587606 0
M  V30 63 H 1.120825 0.238247 3.415098 0
M  V30 64 H 2.732302 -0.626933 2.585343 0
M  V30 65 H 3.552928 -1.094220 0.472660 0
M  V30 66 H 5.885595 1.518243 -2.234855 0
M  V30 67 H 4.478997 2.694684 -3.481136 0
M  V30 68 H 3.085810 1.652361 -2.892158 0
M  V30 69 H 4.777458 1.197875 -5.386222 0
M  V30 70 H 3.033699 1.712896 -5.210151 0
M  V30 71 H 4.714171 -1.738742 -4.724681 0
M  V30 72 H 3.864989 -1.574898 -3.118638 0
M  V30 73 H 6.146981 -1.019326 -2.889193 0
M  V30 74 H 6.093170 0.190939 -4.238046 0
M  V30 END ATOM
M  V30 BEGIN BOND
M  V30 1 3 1 2
M  V30 2 1 2 3
M  V30 3 2 3 4
M  V30 4 1 4 5
M  V30 5 1 5 6
M  V30 6 2 6 7
M  V30 7 1 7 8
M  V30 8 2 8 9
M  V30 9 1 9 10
M  V30 10 1 10 11
M  V30 11 1 11 12
M  V30 12 1 12 13
M  V30 13 2 13 14
M  V30 14 1 14 15
M  V30 15 1 15 16
M  V30 16 1 16 17
M  V30 17 1 17 18
M  V30 18 1 18 19
M  V30 19 1 19 20
M  V30 20 1 20 21
M  V30 21 1 21 22
M  V30 22 2 22 23
M  V30 23 1 22 24
M  V30 24 1 24 25
M  V30 25 1 21 26
M  V30 26 1 26 27
M  V30 27 1 15 28
M  V30 28 2 10 29
M  V30 29 2 5 30
M  V30 30 1 30 31
M  V30 31 2 31 32
M  V30 32 1 32 33
M  V30 33 1 33 34
M  V30 34 1 34 35
M  V30 35 1 35 36
M  V30 36 1 36 37
M  V30 37 1 37 38
M  V30 38 1 38 39
M  V30 39 1 32 3
M  V30 40 1 39 34
M  V30 41 1 29 6
M  V30 42 2 28 12
M  V30 43 1 27 18
M  V30 44 1 4 40
M  V30 45 1 7 41
M  V30 46 1 8 42
M  V30 47 1 11 43
M  V30 48 1 13 44
M  V30 49 1 16 45
M  V30 50 1 16 46
M  V30 51 1 17 47
M  V30 52 1 17 48
M  V30 53 1 18 49
M  V30 54 1 19 50
M  V30 55 1 19 51
M  V30 56 1 20 52
M  V30 57 1 20 53
M  V30 58 1 24 54
M  V30 59 1 24 55
M  V30 60 1 25 56
M  V30 61 1 25 57
M  V30 62 1 26 58
M  V30 63 1 26 59
M  V30 64 1 27 60
M  V30 65 1 27 61
M  V30 66 1 28 62
M  V30 67 1 29 63
M  V30 68 1 30 64
M  V30 69 1 31 65
M  V30 70 1 34 66
M  V30 71 1 35 67
M  V30 72 1 35 68
M  V30 73 1 36 69
M  V30 74 1 36 70
M  V30 75 1 38 71
M  V30 76 1 38 72
M  V30 77 1 39 73
M  V30 78 1 39 74
M  V30 END BOND
M  V30 END CTAB
M  END
>  <Dataset>  (185) 
ChEMBL_Kinases

>  <Ligand_Instance>  (185) 
nan

>  <PDB_ID>  (185) 
nan

>  <Standardized_SMILES>  (185) 
N#Cc1cc(-c2ccnc(Nc3cnn(CCC4CCN(C(=O)CN)CC4)c3)c2)ccc1OC1CCOCC1

>  <Name>  (185) 
nan

>  <Pocket>  (185) 
nan

>  <ATP_Site>  (185) 
nan

>  <Peripheral>  (185) 
nan

>  <Num_H_Atoms_ProtBoundConf>  (185) 
nan

>  <Num_Resolved_Atoms>  (185) 
nan

>  <Num_Not_Resolved_Atoms>  (185) 
nan

$$$$
CHEMBL3687171
     RDKit          3D

  0  0  0  0  0  0  0  0  0  0999 V3000
M  V30 BEGIN CTAB
M  V30 COUNTS 73 77 0 0 0
M  V30 BEGIN ATOM
M  V30 1 N 1.494897 -3.879028 1.574036 0
M  V30 2 C 2.181455 -3.000416 1.240756 0
M  V30 3 C 3.038376 -1.909186 0.799724 0
M  V30 4 C 2.843176 -0.728702 1.529387 0
M  V30 5 C 3.627567 0.360475 1.167581 0
M  V30 6 C 3.429664 1.597519 1.923806 0
M  V30 7 C 4.510971 2.438977 2.100664 0
M  V30 8 C 4.249745 3.586742 2.827803 0
M  V30 9 N 3.054484 3.902766 3.341381 0
M  V30 10 C 1.980871 3.103595 3.185343 0
M  V30 11 N 0.734806 3.462192 3.759566 0
M  V30 12 C -0.561144 2.898551 3.646793 0
M  V30 13 C -1.588200 2.922508 4.566139 0
M  V30 14 N -2.633491 2.302375 4.055562 0
M  V30 15 N -2.410134 1.845514 2.838225 0
M  V30 16 C -3.273332 1.111443 1.921005 0
M  V30 17 C -4.026191 2.104142 1.085103 0
M  V30 18 C -4.954766 1.501207 0.080990 0
M  V30 19 C -4.229389 0.627796 -0.912285 0
M  V30 20 C -5.314617 -0.036111 -1.773308 0
M  V30 21 N -5.858079 -1.087586 -0.952592 0
M  V30 22 C -6.136955 -2.287728 -1.637349 0
M  V30 23 O -5.807606 -2.064493 -2.839657 0
M  V30 24 C -6.617005 -3.668156 -1.661546 0
M  V30 25 O -6.501162 -4.103810 -2.999546 0
M  V30 26 C -6.032784 -0.753264 0.438361 0
M  V30 27 C -6.087268 0.725216 0.680584 0
M  V30 28 C -1.125621 2.215103 2.585523 0
M  V30 29 C 2.216878 1.964329 2.471128 0
M  V30 30 C 4.542658 0.268335 0.143559 0
M  V30 31 C 4.703013 -0.924434 -0.554162 0
M  V30 32 C 3.957790 -2.042710 -0.246639 0
M  V30 33 O 3.947793 -3.290091 -0.783952 0
M  V30 34 C 4.758553 -3.717883 -1.843775 0
M  V30 35 C 3.834446 -4.197195 -2.942798 0
M  V30 36 C 4.515320 -5.161593 -3.873675 0
M  V30 37 O 5.314908 -6.091933 -3.260721 0
M  V30 38 C 5.056244 -6.139082 -1.897640 0
M  V30 39 C 5.607164 -4.855502 -1.307660 0
M  V30 40 H 2.139795 -0.646012 2.320988 0
M  V30 41 H 5.501067 2.261406 1.723184 0
M  V30 42 H 5.073485 4.273125 2.987245 0
M  V30 43 H 0.742793 4.311227 4.400246 0
M  V30 44 H -1.545893 3.379749 5.557585 0
M  V30 45 H -4.021709 0.599265 2.565818 0
M  V30 46 H -2.724504 0.392614 1.317492 0
M  V30 47 H -3.272665 2.711834 0.528431 0
M  V30 48 H -4.583117 2.840307 1.697303 0
M  V30 49 H -5.389210 2.341286 -0.510498 0
M  V30 50 H -3.630724 1.309330 -1.574203 0
M  V30 51 H -3.590620 -0.135957 -0.436852 0
M  V30 52 H -4.898256 -0.364939 -2.734028 0
M  V30 53 H -6.102380 0.751353 -1.911161 0
M  V30 54 H -5.931226 -4.302822 -1.038039 0
M  V30 55 H -7.655125 -3.825671 -1.361675 0
M  V30 56 H -5.594853 -4.414657 -3.224113 0
M  V30 57 H -5.275416 -1.214632 1.090368 0
M  V30 58 H -7.024143 -1.151820 0.803942 0
M  V30 59 H -6.109375 0.860323 1.800295 0
M  V30 60 H -7.079803 1.105883 0.320305 0
M  V30 61 H -0.670327 1.974834 1.635484 0
M  V30 62 H 1.441300 1.260764 2.295626 0
M  V30 63 H 5.151445 1.113856 -0.138431 0
M  V30 64 H 5.409518 -1.045625 -1.361247 0
M  V30 65 H 5.382781 -2.869784 -2.175716 0
M  V30 66 H 2.922529 -4.619154 -2.471309 0
M  V30 67 H 3.537203 -3.316784 -3.552690 0
M  V30 68 H 5.045168 -4.629899 -4.702650 0
M  V30 69 H 3.704149 -5.734093 -4.403345 0
M  V30 70 H 3.973210 -6.181486 -1.699785 0
M  V30 71 H 5.594746 -6.987141 -1.413342 0
M  V30 72 H 6.644561 -4.672790 -1.653207 0
M  V30 73 H 5.633293 -4.879398 -0.194607 0
M  V30 END ATOM
M  V30 BEGIN BOND
M  V30 1 3 1 2
M  V30 2 1 2 3
M  V30 3 2 3 4
M  V30 4 1 4 5
M  V30 5 1 5 6
M  V30 6 2 6 7
M  V30 7 1 7 8
M  V30 8 2 8 9
M  V30 9 1 9 10
M  V30 10 1 10 11
M  V30 11 1 11 12
M  V30 12 1 12 13
M  V30 13 2 13 14
M  V30 14 1 14 15
M  V30 15 1 15 16
M  V30 16 1 16 17
M  V30 17 1 17 18
M  V30 18 1 18 19
M  V30 19 1 19 20
M  V30 20 1 20 21
M  V30 21 1 21 22
M  V30 22 2 22 23
M  V30 23 1 22 24
M  V30 24 1 24 25
M  V30 25 1 21 26
M  V30 26 1 26 27
M  V30 27 1 15 28
M  V30 28 2 10 29
M  V30 29 2 5 30
M  V30 30 1 30 31
M  V30 31 2 31 32
M  V30 32 1 32 33
M  V30 33 1 33 34
M  V30 34 1 34 35
M  V30 35 1 35 36
M  V30 36 1 36 37
M  V30 37 1 37 38
M  V30 38 1 38 39
M  V30 39 1 32 3
M  V30 40 1 39 34
M  V30 41 1 29 6
M  V30 42 2 28 12
M  V30 43 1 27 18
M  V30 44 1 4 40
M  V30 45 1 7 41
M  V30 46 1 8 42
M  V30 47 1 11 43
M  V30 48 1 13 44
M  V30 49 1 16 45
M  V30 50 1 16 46
M  V30 51 1 17 47
M  V30 52 1 17 48
M  V30 53 1 18 49
M  V30 54 1 19 50
M  V30 55 1 19 51
M  V30 56 1 20 52
M  V30 57 1 20 53
M  V30 58 1 24 54
M  V30 59 1 24 55
M  V30 60 1 25 56
M  V30 61 1 26 57
M  V30 62 1 26 58
M  V30 63 1 27 59
M  V30 64 1 27 60
M  V30 65 1 28 61
M  V30 66 1 29 62
M  V30 67 1 30 63
M  V30 68 1 31 64
M  V30 69 1 34 65
M  V30 70 1 35 66
M  V30 71 1 35 67
M  V30 72 1 36 68
M  V30 73 1 36 69
M  V30 74 1 38 70
M  V30 75 1 38 71
M  V30 76 1 39 72
M  V30 77 1 39 73
M  V30 END BOND
M  V30 END CTAB
M  END
>  <Dataset>  (186) 
ChEMBL_Kinases

>  <Ligand_Instance>  (186) 
nan

>  <PDB_ID>  (186) 
nan

>  <Standardized_SMILES>  (186) 
N#Cc1cc(-c2ccnc(Nc3cnn(CCC4CCN(C(=O)CO)CC4)c3)c2)ccc1OC1CCOCC1

>  <Name>  (186) 
nan

>  <Pocket>  (186) 
nan

>  <ATP_Site>  (186) 
nan

>  <Peripheral>  (186) 
nan

>  <Num_H_Atoms_ProtBoundConf>  (186) 
nan

>  <Num_Resolved_Atoms>  (186) 
nan

>  <Num_Not_Resolved_Atoms>  (186) 
nan

$$$$
CHEMBL3687170
     RDKit          3D

  0  0  0  0  0  0  0  0  0  0999 V3000
M  V30 BEGIN CTAB
M  V30 COUNTS 58 62 0 0 0
M  V30 BEGIN ATOM
M  V30 1 N -2.547924 -1.869289 0.002198 0
M  V30 2 C -1.434249 -2.077469 -0.147359 0
M  V30 3 C -0.037815 -2.321742 -0.315498 0
M  V30 4 C 0.886378 -1.657307 0.457550 0
M  V30 5 C 2.229395 -1.910759 0.277209 0
M  V30 6 C 3.168628 -1.182160 1.120444 0
M  V30 7 C 4.360009 -1.764230 1.478676 0
M  V30 8 C 5.194094 -1.017647 2.275446 0
M  V30 9 N 4.905815 0.206528 2.701814 0
M  V30 10 C 3.754667 0.838432 2.388906 0
M  V30 11 N 3.490407 2.148942 2.850638 0
M  V30 12 C 2.361474 2.999448 2.768786 0
M  V30 13 C 2.389236 4.394981 2.846424 0
M  V30 14 N 1.127296 4.813233 2.745100 0
M  V30 15 N 0.266987 3.841714 2.608952 0
M  V30 16 C -1.170312 3.974933 2.474647 0
M  V30 17 C -1.838861 3.656227 3.794695 0
M  V30 18 C -2.405841 2.277428 3.538952 0
M  V30 19 N -2.918467 2.403492 2.191532 0
M  V30 20 C -1.748539 2.967572 1.513720 0
M  V30 21 C 1.018930 2.729504 2.623236 0
M  V30 22 C 2.921409 0.088894 1.590397 0
M  V30 23 C 2.618387 -2.828665 -0.677893 0
M  V30 24 C 1.639173 -3.484927 -1.445709 0
M  V30 25 C 0.259697 -3.246111 -1.283683 0
M  V30 26 O -0.356144 -4.032085 -2.165575 0
M  V30 27 C -1.650317 -4.238238 -2.479619 0
M  V30 28 C -2.108858 -5.695067 -2.289892 0
M  V30 29 C -3.571206 -5.706398 -2.681730 0
M  V30 30 O -4.068012 -4.442420 -2.981014 0
M  V30 31 C -3.461939 -3.864898 -4.068674 0
M  V30 32 C -1.958089 -3.980957 -3.971730 0
M  V30 33 H 0.493475 -0.957166 1.179748 0
M  V30 34 H 4.627436 -2.752129 1.153277 0
M  V30 35 H 6.144537 -1.432193 2.584245 0
M  V30 36 H 4.302564 2.584959 3.366317 0
M  V30 37 H 3.230137 5.052928 2.963866 0
M  V30 38 H -1.448045 4.990456 2.117821 0
M  V30 39 H -1.093047 3.632502 4.623486 0
M  V30 40 H -2.681027 4.344946 4.017258 0
M  V30 41 H -3.222559 2.067110 4.267822 0
M  V30 42 H -1.591143 1.532802 3.621717 0
M  V30 43 H -3.077907 1.438244 1.801248 0
M  V30 44 H -2.109319 3.444458 0.587142 0
M  V30 45 H -1.071028 2.129916 1.291240 0
M  V30 46 H 0.544317 1.781730 2.534980 0
M  V30 47 H 1.978135 0.488623 1.265055 0
M  V30 48 H 3.689453 -2.943306 -0.728347 0
M  V30 49 H 2.182853 -4.157277 -2.127780 0
M  V30 50 H -2.407957 -3.656949 -1.929294 0
M  V30 51 H -1.490373 -6.404172 -2.846515 0
M  V30 52 H -2.101692 -5.858011 -1.175430 0
M  V30 53 H -4.233387 -6.106823 -1.866950 0
M  V30 54 H -3.679495 -6.303815 -3.610345 0
M  V30 55 H -3.672841 -2.756852 -4.030081 0
M  V30 56 H -3.846677 -4.236223 -5.039848 0
M  V30 57 H -1.415476 -3.097146 -4.354318 0
M  V30 58 H -1.621735 -4.885421 -4.519994 0
M  V30 END ATOM
M  V30 BEGIN BOND
M  V30 1 3 1 2
M  V30 2 1 2 3
M  V30 3 2 3 4
M  V30 4 1 4 5
M  V30 5 1 5 6
M  V30 6 2 6 7
M  V30 7 1 7 8
M  V30 8 2 8 9
M  V30 9 1 9 10
M  V30 10 1 10 11
M  V30 11 1 11 12
M  V30 12 1 12 13
M  V30 13 2 13 14
M  V30 14 1 14 15
M  V30 15 1 15 16
M  V30 16 1 16 17
M  V30 17 1 17 18
M  V30 18 1 18 19
M  V30 19 1 19 20
M  V30 20 1 15 21
M  V30 21 2 10 22
M  V30 22 2 5 23
M  V30 23 1 23 24
M  V30 24 2 24 25
M  V30 25 1 25 26
M  V30 26 1 26 27
M  V30 27 1 27 28
M  V30 28 1 28 29
M  V30 29 1 29 30
M  V30 30 1 30 31
M  V30 31 1 31 32
M  V30 32 1 25 3
M  V30 33 1 32 27
M  V30 34 1 22 6
M  V30 35 2 21 12
M  V30 36 1 20 16
M  V30 37 1 4 33
M  V30 38 1 7 34
M  V30 39 1 8 35
M  V30 40 1 11 36
M  V30 41 1 13 37
M  V30 42 1 16 38
M  V30 43 1 17 39
M  V30 44 1 17 40
M  V30 45 1 18 41
M  V30 46 1 18 42
M  V30 47 1 19 43
M  V30 48 1 20 44
M  V30 49 1 20 45
M  V30 50 1 21 46
M  V30 51 1 22 47
M  V30 52 1 23 48
M  V30 53 1 24 49
M  V30 54 1 27 50
M  V30 55 1 28 51
M  V30 56 1 28 52
M  V30 57 1 29 53
M  V30 58 1 29 54
M  V30 59 1 31 55
M  V30 60 1 31 56
M  V30 61 1 32 57
M  V30 62 1 32 58
M  V30 END BOND
M  V30 END CTAB
M  END
>  <Dataset>  (187) 
ChEMBL_Kinases

>  <Ligand_Instance>  (187) 
nan

>  <PDB_ID>  (187) 
nan

>  <Standardized_SMILES>  (187) 
N#Cc1cc(-c2ccnc(Nc3cnn(C4CCNC4)c3)c2)ccc1OC1CCOCC1

>  <Name>  (187) 
nan

>  <Pocket>  (187) 
nan

>  <ATP_Site>  (187) 
nan

>  <Peripheral>  (187) 
nan

>  <Num_H_Atoms_ProtBoundConf>  (187) 
nan

>  <Num_Resolved_Atoms>  (187) 
nan

>  <Num_Not_Resolved_Atoms>  (187) 
nan

$$$$
CHEMBL3687169
     RDKit          3D

  0  0  0  0  0  0  0  0  0  0999 V3000
M  V30 BEGIN CTAB
M  V30 COUNTS 60 64 0 0 0
M  V30 BEGIN ATOM
M  V30 1 N 2.712349 -6.617479 -0.966495 0
M  V30 2 C 2.381649 -5.515202 -0.926555 0
M  V30 3 C 1.955586 -4.132876 -0.898978 0
M  V30 4 C 2.950238 -3.238766 -0.502464 0
M  V30 5 C 2.695677 -1.903239 -0.432808 0
M  V30 6 C 3.613970 -0.835751 -0.047622 0
M  V30 7 C 4.990038 -0.868513 -0.299265 0
M  V30 8 C 5.722039 0.216895 0.128542 0
M  V30 9 N 5.242341 1.294218 0.759525 0
M  V30 10 C 3.932724 1.365798 1.019904 0
M  V30 11 N 3.384301 2.504161 1.669362 0
M  V30 12 C 2.103647 2.815624 2.197426 0
M  V30 13 C 1.425017 4.022756 2.304885 0
M  V30 14 N 0.265674 3.735557 2.912638 0
M  V30 15 N 0.157746 2.456328 3.195238 0
M  V30 16 C -1.003337 1.889737 3.852695 0
M  V30 17 C -2.069843 1.419398 2.903946 0
M  V30 18 C -2.631421 2.483329 2.018747 0
M  V30 19 C -3.891864 2.900992 2.722953 0
M  V30 20 O -3.875090 2.263121 3.965184 0
M  V30 21 C -3.266703 1.027460 3.744994 0
M  V30 22 C 1.292295 1.824898 2.765869 0
M  V30 23 C 3.161382 0.299772 0.608233 0
M  V30 24 C 1.427453 -1.470464 -0.766974 0
M  V30 25 C 0.450059 -2.350409 -1.156857 0
M  V30 26 C 0.663898 -3.707560 -1.240424 0
M  V30 27 O -0.127285 -4.761529 -1.591406 0
M  V30 28 C -1.461132 -4.797847 -1.961034 0
M  V30 29 C -2.394415 -4.068754 -0.988888 0
M  V30 30 C -3.306618 -3.112973 -1.708547 0
M  V30 31 O -4.020872 -3.786679 -2.707231 0
M  V30 32 C -3.213397 -4.406721 -3.635218 0
M  V30 33 C -1.736148 -4.268098 -3.344610 0
M  V30 34 H 3.950765 -3.544654 -0.236504 0
M  V30 35 H 5.393865 -1.715737 -0.800538 0
M  V30 36 H 6.801503 0.233569 -0.048339 0
M  V30 37 H 4.032542 3.332172 1.815311 0
M  V30 38 H 1.857370 4.941931 1.932029 0
M  V30 39 H -1.466739 2.649810 4.510745 0
M  V30 40 H -0.718525 1.020065 4.468157 0
M  V30 41 H -1.748110 0.531205 2.316743 0
M  V30 42 H -2.920702 2.048102 1.045370 0
M  V30 43 H -1.951857 3.334285 1.817045 0
M  V30 44 H -3.991199 3.992107 2.807175 0
M  V30 45 H -4.802861 2.500418 2.208185 0
M  V30 46 H -2.888742 0.636589 4.711907 0
M  V30 47 H -3.934224 0.313920 3.228344 0
M  V30 48 H 1.347041 0.765815 2.937870 0
M  V30 49 H 2.095822 0.301467 0.782358 0
M  V30 50 H 1.044486 -0.439189 -0.770690 0
M  V30 51 H -0.551263 -2.075837 -1.435460 0
M  V30 52 H -1.746522 -5.898162 -1.972203 0
M  V30 53 H -1.859382 -3.570483 -0.179810 0
M  V30 54 H -3.042837 -4.851333 -0.516010 0
M  V30 55 H -4.078006 -2.802509 -0.964064 0
M  V30 56 H -2.829209 -2.213578 -2.091137 0
M  V30 57 H -3.395334 -3.933252 -4.631284 0
M  V30 58 H -3.498228 -5.477254 -3.694480 0
M  V30 59 H -1.211860 -4.887631 -4.108348 0
M  V30 60 H -1.461074 -3.213985 -3.462264 0
M  V30 END ATOM
M  V30 BEGIN BOND
M  V30 1 3 1 2
M  V30 2 1 2 3
M  V30 3 2 3 4
M  V30 4 1 4 5
M  V30 5 1 5 6
M  V30 6 2 6 7
M  V30 7 1 7 8
M  V30 8 2 8 9
M  V30 9 1 9 10
M  V30 10 1 10 11
M  V30 11 1 11 12
M  V30 12 1 12 13
M  V30 13 2 13 14
M  V30 14 1 14 15
M  V30 15 1 15 16
M  V30 16 1 16 17
M  V30 17 1 17 18
M  V30 18 1 18 19
M  V30 19 1 19 20
M  V30 20 1 20 21
M  V30 21 1 15 22
M  V30 22 2 10 23
M  V30 23 2 5 24
M  V30 24 1 24 25
M  V30 25 2 25 26
M  V30 26 1 26 27
M  V30 27 1 27 28
M  V30 28 1 28 29
M  V30 29 1 29 30
M  V30 30 1 30 31
M  V30 31 1 31 32
M  V30 32 1 32 33
M  V30 33 1 26 3
M  V30 34 1 33 28
M  V30 35 1 23 6
M  V30 36 2 22 12
M  V30 37 1 21 17
M  V30 38 1 4 34
M  V30 39 1 7 35
M  V30 40 1 8 36
M  V30 41 1 11 37
M  V30 42 1 13 38
M  V30 43 1 16 39
M  V30 44 1 16 40
M  V30 45 1 17 41
M  V30 46 1 18 42
M  V30 47 1 18 43
M  V30 48 1 19 44
M  V30 49 1 19 45
M  V30 50 1 21 46
M  V30 51 1 21 47
M  V30 52 1 22 48
M  V30 53 1 23 49
M  V30 54 1 24 50
M  V30 55 1 25 51
M  V30 56 1 28 52
M  V30 57 1 29 53
M  V30 58 1 29 54
M  V30 59 1 30 55
M  V30 60 1 30 56
M  V30 61 1 32 57
M  V30 62 1 32 58
M  V30 63 1 33 59
M  V30 64 1 33 60
M  V30 END BOND
M  V30 END CTAB
M  END
>  <Dataset>  (188) 
ChEMBL_Kinases

>  <Ligand_Instance>  (188) 
nan

>  <PDB_ID>  (188) 
nan

>  <Standardized_SMILES>  (188) 
N#Cc1cc(-c2ccnc(Nc3cnn(CC4CCOC4)c3)c2)ccc1OC1CCOCC1

>  <Name>  (188) 
nan

>  <Pocket>  (188) 
nan

>  <ATP_Site>  (188) 
nan

>  <Peripheral>  (188) 
nan

>  <Num_H_Atoms_ProtBoundConf>  (188) 
nan

>  <Num_Resolved_Atoms>  (188) 
nan

>  <Num_Not_Resolved_Atoms>  (188) 
nan

$$$$
CHEMBL3687168
     RDKit          3D

  0  0  0  0  0  0  0  0  0  0999 V3000
M  V30 BEGIN CTAB
M  V30 COUNTS 60 64 0 0 0
M  V30 BEGIN ATOM
M  V30 1 N 2.280258 -5.458681 -3.664383 0
M  V30 2 C 1.917396 -4.671775 -2.884967 0
M  V30 3 C 1.469617 -3.716162 -1.903905 0
M  V30 4 C 2.457676 -2.867664 -1.419531 0
M  V30 5 C 2.088155 -1.925677 -0.472044 0
M  V30 6 C 3.092101 -1.017313 0.068443 0
M  V30 7 C 4.390646 -1.448783 0.195262 0
M  V30 8 C 5.291633 -0.546434 0.713368 0
M  V30 9 N 4.971579 0.698513 1.089787 0
M  V30 10 C 3.704844 1.172607 0.984989 0
M  V30 11 N 3.401650 2.496354 1.378724 0
M  V30 12 C 2.201499 3.239705 1.462118 0
M  V30 13 C 2.132352 4.637188 1.453886 0
M  V30 14 N 0.839922 4.961722 1.563143 0
M  V30 15 N 0.061934 3.917347 1.641913 0
M  V30 16 C -1.376891 4.032940 1.766469 0
M  V30 17 C -1.736285 4.079522 3.254913 0 CFG=1
M  V30 18 C -3.233828 4.204542 3.587232 0
M  V30 19 C -2.539306 2.894982 3.786353 0 CFG=2
M  V30 20 C -2.161646 2.422355 5.153688 0
M  V30 21 O -2.304740 3.394013 6.147358 0
M  V30 22 C 0.900071 2.877074 1.579820 0
M  V30 23 C 2.805682 0.270304 0.467076 0
M  V30 24 C 0.773425 -1.817836 -0.008116 0
M  V30 25 C -0.159453 -2.690022 -0.529065 0
M  V30 26 C 0.145680 -3.647917 -1.472648 0
M  V30 27 O -0.679443 -4.561549 -2.059621 0
M  V30 28 C -2.039577 -4.761380 -1.846467 0
M  V30 29 C -2.874321 -4.578668 -3.104584 0
M  V30 30 C -3.149537 -5.972757 -3.653358 0
M  V30 31 O -2.041215 -6.771736 -3.602996 0
M  V30 32 C -1.714564 -7.168550 -2.328247 0
M  V30 33 C -2.192432 -6.179714 -1.323099 0
M  V30 34 H 3.484986 -2.899899 -1.735819 0
M  V30 35 H 4.687803 -2.444745 -0.097279 0
M  V30 36 H 6.342098 -0.796560 0.851431 0
M  V30 37 H 4.266189 3.051600 1.680710 0
M  V30 38 H 2.956757 5.354058 1.374931 0
M  V30 39 H -1.876274 3.159045 1.326194 0
M  V30 40 H -1.738870 4.937625 1.232989 0
M  V30 41 H -1.014963 4.543391 3.948792 0
M  V30 42 H -3.499155 4.825238 4.478885 0
M  V30 43 H -3.904954 4.341331 2.713528 0
M  V30 44 H -2.782835 2.081851 3.060884 0
M  V30 45 H -2.736368 1.537252 5.463916 0
M  V30 46 H -1.079456 2.098591 5.160118 0
M  V30 47 H -1.521899 3.391248 6.765529 0
M  V30 48 H 0.467666 1.891026 1.637158 0
M  V30 49 H 1.789736 0.536959 0.331476 0
M  V30 50 H 0.458519 -1.092992 0.729300 0
M  V30 51 H -1.199874 -2.666190 -0.217649 0
M  V30 52 H -2.414753 -4.041093 -1.097087 0
M  V30 53 H -3.850786 -4.162638 -2.794323 0
M  V30 54 H -2.388418 -3.989041 -3.880702 0
M  V30 55 H -3.972061 -6.470796 -3.068656 0
M  V30 56 H -3.520829 -5.927953 -4.693315 0
M  V30 57 H -2.153258 -8.183423 -2.118178 0
M  V30 58 H -0.585612 -7.242560 -2.317631 0
M  V30 59 H -1.694976 -6.287135 -0.341429 0
M  V30 60 H -3.284622 -6.385704 -1.150414 0
M  V30 END ATOM
M  V30 BEGIN BOND
M  V30 1 3 1 2
M  V30 2 1 2 3
M  V30 3 2 3 4
M  V30 4 1 4 5
M  V30 5 1 5 6
M  V30 6 2 6 7
M  V30 7 1 7 8
M  V30 8 2 8 9
M  V30 9 1 9 10
M  V30 10 1 10 11
M  V30 11 1 11 12
M  V30 12 1 12 13
M  V30 13 2 13 14
M  V30 14 1 14 15
M  V30 15 1 15 16
M  V30 16 1 16 17
M  V30 17 1 17 18
M  V30 18 1 18 19
M  V30 19 1 19 20
M  V30 20 1 20 21
M  V30 21 1 15 22
M  V30 22 2 10 23
M  V30 23 2 5 24
M  V30 24 1 24 25
M  V30 25 2 25 26
M  V30 26 1 26 27
M  V30 27 1 27 28
M  V30 28 1 28 29
M  V30 29 1 29 30
M  V30 30 1 30 31
M  V30 31 1 31 32
M  V30 32 1 32 33
M  V30 33 1 26 3
M  V30 34 1 33 28
M  V30 35 1 23 6
M  V30 36 2 22 12
M  V30 37 1 19 17
M  V30 38 1 4 34
M  V30 39 1 7 35
M  V30 40 1 8 36
M  V30 41 1 11 37
M  V30 42 1 13 38
M  V30 43 1 16 39
M  V30 44 1 16 40
M  V30 45 1 17 41 CFG=1
M  V30 46 1 18 42
M  V30 47 1 18 43
M  V30 48 1 19 44 CFG=3
M  V30 49 1 20 45
M  V30 50 1 20 46
M  V30 51 1 21 47
M  V30 52 1 22 48
M  V30 53 1 23 49
M  V30 54 1 24 50
M  V30 55 1 25 51
M  V30 56 1 28 52
M  V30 57 1 29 53
M  V30 58 1 29 54
M  V30 59 1 30 55
M  V30 60 1 30 56
M  V30 61 1 32 57
M  V30 62 1 32 58
M  V30 63 1 33 59
M  V30 64 1 33 60
M  V30 END BOND
M  V30 END CTAB
M  END
>  <Dataset>  (189) 
ChEMBL_Kinases

>  <Ligand_Instance>  (189) 
nan

>  <PDB_ID>  (189) 
nan

>  <Standardized_SMILES>  (189) 
N#Cc1cc(-c2ccnc(Nc3cnn(C[C@H]4C[C@@H]4CO)c3)c2)ccc1OC1CCOCC1

>  <Name>  (189) 
nan

>  <Pocket>  (189) 
nan

>  <ATP_Site>  (189) 
nan

>  <Peripheral>  (189) 
nan

>  <Num_H_Atoms_ProtBoundConf>  (189) 
nan

>  <Num_Resolved_Atoms>  (189) 
nan

>  <Num_Not_Resolved_Atoms>  (189) 
nan

$$$$
CHEMBL3687167
     RDKit          3D

  0  0  0  0  0  0  0  0  0  0999 V3000
M  V30 BEGIN CTAB
M  V30 COUNTS 55 59 0 0 0
M  V30 BEGIN ATOM
M  V30 1 N 0.167565 -6.229460 0.794831 0
M  V30 2 C -0.205748 -5.218122 0.420666 0
M  V30 3 C -0.704884 -3.937935 -0.051665 0
M  V30 4 C 0.003198 -2.835717 0.429678 0
M  V30 5 C -0.358657 -1.553093 0.070618 0
M  V30 6 C 0.373932 -0.396408 0.566217 0
M  V30 7 C 1.730018 -0.644389 0.794502 0
M  V30 8 C 2.522560 0.406575 1.258835 0
M  V30 9 N 1.941411 1.602142 1.461597 0
M  V30 10 C 0.648064 1.870964 1.252077 0
M  V30 11 N 0.074632 3.159445 1.476785 0
M  V30 12 C 0.792245 4.271853 1.995161 0
M  V30 13 C 0.382545 5.585932 2.052929 0
M  V30 14 N 1.369882 6.282819 2.634807 0
M  V30 15 N 2.386266 5.524309 2.957719 0
M  V30 16 C 3.621477 5.963586 3.614804 0
M  V30 17 C 3.662061 5.545638 5.063573 0
M  V30 18 N 4.668778 4.534827 4.833074 0
M  V30 19 C 4.769986 4.995433 3.464684 0
M  V30 20 C 2.065766 4.252501 2.573165 0
M  V30 21 C -0.151080 0.852689 0.796202 0
M  V30 22 C -1.443359 -1.442768 -0.776374 0
M  V30 23 C -2.162837 -2.510599 -1.268145 0
M  V30 24 C -1.803832 -3.792124 -0.912344 0
M  V30 25 O -2.338048 -5.031019 -1.252427 0
M  V30 26 C -3.484463 -5.173455 -2.067483 0
M  V30 27 C -4.424611 -6.223801 -1.573690 0
M  V30 28 C -4.016775 -7.612874 -2.019503 0
M  V30 29 O -2.810821 -7.643791 -2.699501 0
M  V30 30 C -2.731829 -6.828144 -3.794199 0
M  V30 31 C -3.092135 -5.403013 -3.523990 0
M  V30 32 H 0.841808 -2.918818 1.088004 0
M  V30 33 H 2.295067 -1.556693 0.664814 0
M  V30 34 H 3.570387 0.455077 1.502926 0
M  V30 35 H -0.936716 3.305547 1.248178 0
M  V30 36 H -0.565277 5.978764 1.691870 0
M  V30 37 H 3.856919 7.027460 3.419886 0
M  V30 38 H 3.933540 6.338267 5.796774 0
M  V30 39 H 2.714891 5.047643 5.393120 0
M  V30 40 H 5.552226 4.620828 5.384192 0
M  V30 41 H 4.604660 4.226806 2.687891 0
M  V30 42 H 5.753037 5.481145 3.259394 0
M  V30 43 H 2.729283 3.440632 2.727523 0
M  V30 44 H -1.208673 0.945547 0.591176 0
M  V30 45 H -1.751645 -0.456105 -1.074234 0
M  V30 46 H -3.002583 -2.471348 -1.918232 0
M  V30 47 H -4.000883 -4.207307 -2.081237 0
M  V30 48 H -5.465068 -6.067855 -1.918167 0
M  V30 49 H -4.467276 -6.144026 -0.449441 0
M  V30 50 H -4.784163 -8.130774 -2.626026 0
M  V30 51 H -3.870927 -8.216406 -1.100275 0
M  V30 52 H -3.361473 -7.293389 -4.607683 0
M  V30 53 H -1.700234 -6.879846 -4.174904 0
M  V30 54 H -3.948714 -5.162339 -4.192923 0
M  V30 55 H -2.294409 -4.675746 -3.777978 0
M  V30 END ATOM
M  V30 BEGIN BOND
M  V30 1 3 1 2
M  V30 2 1 2 3
M  V30 3 2 3 4
M  V30 4 1 4 5
M  V30 5 1 5 6
M  V30 6 2 6 7
M  V30 7 1 7 8
M  V30 8 2 8 9
M  V30 9 1 9 10
M  V30 10 1 10 11
M  V30 11 1 11 12
M  V30 12 1 12 13
M  V30 13 2 13 14
M  V30 14 1 14 15
M  V30 15 1 15 16
M  V30 16 1 16 17
M  V30 17 1 17 18
M  V30 18 1 18 19
M  V30 19 1 15 20
M  V30 20 2 10 21
M  V30 21 2 5 22
M  V30 22 1 22 23
M  V30 23 2 23 24
M  V30 24 1 24 25
M  V30 25 1 25 26
M  V30 26 1 26 27
M  V30 27 1 27 28
M  V30 28 1 28 29
M  V30 29 1 29 30
M  V30 30 1 30 31
M  V30 31 1 24 3
M  V30 32 1 31 26
M  V30 33 1 21 6
M  V30 34 2 20 12
M  V30 35 1 19 16
M  V30 36 1 4 32
M  V30 37 1 7 33
M  V30 38 1 8 34
M  V30 39 1 11 35
M  V30 40 1 13 36
M  V30 41 1 16 37
M  V30 42 1 17 38
M  V30 43 1 17 39
M  V30 44 1 18 40
M  V30 45 1 19 41
M  V30 46 1 19 42
M  V30 47 1 20 43
M  V30 48 1 21 44
M  V30 49 1 22 45
M  V30 50 1 23 46
M  V30 51 1 26 47
M  V30 52 1 27 48
M  V30 53 1 27 49
M  V30 54 1 28 50
M  V30 55 1 28 51
M  V30 56 1 30 52
M  V30 57 1 30 53
M  V30 58 1 31 54
M  V30 59 1 31 55
M  V30 END BOND
M  V30 END CTAB
M  END
>  <Dataset>  (190) 
ChEMBL_Kinases

>  <Ligand_Instance>  (190) 
nan

>  <PDB_ID>  (190) 
nan

>  <Standardized_SMILES>  (190) 
N#Cc1cc(-c2ccnc(Nc3cnn(C4CNC4)c3)c2)ccc1OC1CCOCC1

>  <Name>  (190) 
nan

>  <Pocket>  (190) 
nan

>  <ATP_Site>  (190) 
nan

>  <Peripheral>  (190) 
nan

>  <Num_H_Atoms_ProtBoundConf>  (190) 
nan

>  <Num_Resolved_Atoms>  (190) 
nan

>  <Num_Not_Resolved_Atoms>  (190) 
nan

$$$$
CHEMBL3687166
     RDKit          3D

  0  0  0  0  0  0  0  0  0  0999 V3000
M  V30 BEGIN CTAB
M  V30 COUNTS 57 61 0 0 0
M  V30 BEGIN ATOM
M  V30 1 N 1.406806 -6.896126 0.017463 0
M  V30 2 C 1.180849 -5.780445 -0.004811 0
M  V30 3 C 0.868831 -4.366298 -0.031621 0
M  V30 4 C 1.841430 -3.552011 0.552249 0
M  V30 5 C 1.716862 -2.181925 0.618794 0
M  V30 6 C 2.662891 -1.256657 1.197834 0
M  V30 7 C 3.491091 -1.519555 2.272911 0
M  V30 8 C 4.369155 -0.579947 2.769249 0
M  V30 9 N 4.458191 0.643548 2.223778 0
M  V30 10 C 3.683895 0.972066 1.174964 0
M  V30 11 N 3.668856 2.240945 0.490105 0
M  V30 12 C 2.749678 3.232126 0.995223 0
M  V30 13 C 2.516808 4.518805 0.540452 0
M  V30 14 N 1.579369 5.109463 1.292803 0
M  V30 15 N 1.183049 4.251675 2.234192 0
M  V30 16 C 0.205342 4.400664 3.281436 0
M  V30 17 C -1.183734 3.991587 2.891943 0
M  V30 18 C -1.434016 2.569545 2.450015 0
M  V30 19 C -1.561397 3.682302 1.503215 0
M  V30 20 C -2.948336 3.992559 1.081858 0
M  V30 21 N -4.029232 4.250141 0.759097 0
M  V30 22 C 1.874748 3.106714 2.078237 0
M  V30 23 C 2.794391 0.024424 0.669963 0
M  V30 24 C 0.561597 -1.642380 0.069580 0
M  V30 25 C -0.401385 -2.437002 -0.507368 0
M  V30 26 C -0.295456 -3.807843 -0.583578 0
M  V30 27 O -1.092128 -4.804440 -1.093195 0
M  V30 28 C -2.304821 -4.536479 -1.697064 0
M  V30 29 C -3.480180 -5.188296 -0.986644 0
M  V30 30 C -4.708323 -5.068582 -1.836119 0
M  V30 31 O -4.578722 -4.093573 -2.822731 0
M  V30 32 C -3.602068 -4.340854 -3.751777 0
M  V30 33 C -2.375514 -4.976561 -3.142928 0
M  V30 34 H 2.754360 -3.940586 0.989592 0
M  V30 35 H 3.426685 -2.505387 2.721728 0
M  V30 36 H 5.016026 -0.806830 3.619932 0
M  V30 37 H 4.237552 2.541375 -0.328355 0
M  V30 38 H 3.014798 4.980913 -0.295171 0
M  V30 39 H 0.159329 5.467575 3.618775 0
M  V30 40 H 0.522742 3.840917 4.205122 0
M  V30 41 H -1.988213 4.408184 3.534472 0
M  V30 42 H -2.362675 2.052478 2.808044 0
M  V30 43 H -0.565147 1.907537 2.501762 0
M  V30 44 H -0.848036 3.875721 0.693461 0
M  V30 45 H 1.813557 2.205582 2.656030 0
M  V30 46 H 2.150569 0.260843 -0.182657 0
M  V30 47 H 0.306460 -0.579912 0.038916 0
M  V30 48 H -1.306394 -2.071157 -0.942644 0
M  V30 49 H -2.516078 -3.454430 -1.700418 0
M  V30 50 H -3.274642 -6.254313 -0.801222 0
M  V30 51 H -3.665800 -4.711380 -0.007456 0
M  V30 52 H -4.952616 -6.057910 -2.290752 0
M  V30 53 H -5.556951 -4.763605 -1.193100 0
M  V30 54 H -3.980911 -4.916636 -4.622396 0
M  V30 55 H -3.290597 -3.337490 -4.153931 0
M  V30 56 H -1.469177 -4.531052 -3.629469 0
M  V30 57 H -2.381353 -6.081777 -3.256697 0
M  V30 END ATOM
M  V30 BEGIN BOND
M  V30 1 3 1 2
M  V30 2 1 2 3
M  V30 3 2 3 4
M  V30 4 1 4 5
M  V30 5 1 5 6
M  V30 6 2 6 7
M  V30 7 1 7 8
M  V30 8 2 8 9
M  V30 9 1 9 10
M  V30 10 1 10 11
M  V30 11 1 11 12
M  V30 12 1 12 13
M  V30 13 2 13 14
M  V30 14 1 14 15
M  V30 15 1 15 16
M  V30 16 1 16 17
M  V30 17 1 17 18
M  V30 18 1 18 19
M  V30 19 1 19 20
M  V30 20 3 20 21
M  V30 21 1 15 22
M  V30 22 2 10 23
M  V30 23 2 5 24
M  V30 24 1 24 25
M  V30 25 2 25 26
M  V30 26 1 26 27
M  V30 27 1 27 28
M  V30 28 1 28 29
M  V30 29 1 29 30
M  V30 30 1 30 31
M  V30 31 1 31 32
M  V30 32 1 32 33
M  V30 33 1 26 3
M  V30 34 1 33 28
M  V30 35 1 23 6
M  V30 36 2 22 12
M  V30 37 1 19 17
M  V30 38 1 4 34
M  V30 39 1 7 35
M  V30 40 1 8 36
M  V30 41 1 11 37
M  V30 42 1 13 38
M  V30 43 1 16 39
M  V30 44 1 16 40
M  V30 45 1 17 41
M  V30 46 1 18 42
M  V30 47 1 18 43
M  V30 48 1 19 44
M  V30 49 1 22 45
M  V30 50 1 23 46
M  V30 51 1 24 47
M  V30 52 1 25 48
M  V30 53 1 28 49
M  V30 54 1 29 50
M  V30 55 1 29 51
M  V30 56 1 30 52
M  V30 57 1 30 53
M  V30 58 1 32 54
M  V30 59 1 32 55
M  V30 60 1 33 56
M  V30 61 1 33 57
M  V30 END BOND
M  V30 END CTAB
M  END
>  <Dataset>  (191) 
ChEMBL_Kinases

>  <Ligand_Instance>  (191) 
nan

>  <PDB_ID>  (191) 
nan

>  <Standardized_SMILES>  (191) 
N#Cc1cc(-c2ccnc(Nc3cnn(CC4CC4C#N)c3)c2)ccc1OC1CCOCC1

>  <Name>  (191) 
nan

>  <Pocket>  (191) 
nan

>  <ATP_Site>  (191) 
nan

>  <Peripheral>  (191) 
nan

>  <Num_H_Atoms_ProtBoundConf>  (191) 
nan

>  <Num_Resolved_Atoms>  (191) 
nan

>  <Num_Not_Resolved_Atoms>  (191) 
nan

$$$$
CHEMBL3687165
     RDKit          3D

  0  0  0  0  0  0  0  0  0  0999 V3000
M  V30 BEGIN CTAB
M  V30 COUNTS 59 62 0 0 0
M  V30 BEGIN ATOM
M  V30 1 C 2.626558 -3.680798 5.293864 0
M  V30 2 O 3.930882 -3.617332 5.785602 0
M  V30 3 C 4.625721 -2.579187 5.156201 0
M  V30 4 C 4.018033 -1.223390 5.385556 0
M  V30 5 C 4.809365 -0.116423 4.657156 0
M  V30 6 N 4.842475 -0.460943 3.219063 0
M  V30 7 C 4.078853 -0.233916 2.146917 0
M  V30 8 C 4.648509 -0.853816 1.081139 0
M  V30 9 N 4.253508 -0.944061 -0.263125 0
M  V30 10 C 3.459634 -0.383988 -1.282794 0
M  V30 11 C 2.078557 -0.625819 -1.163962 0
M  V30 12 C 1.244266 -0.154665 -2.177107 0
M  V30 13 C -0.196006 -0.356059 -1.988112 0
M  V30 14 C -1.007776 -0.624722 -3.092583 0
M  V30 15 C -2.359244 -0.723419 -2.806247 0
M  V30 16 C -2.954669 -0.583493 -1.577122 0
M  V30 17 O -4.204374 -0.640729 -1.109612 0
M  V30 18 C -5.426979 -0.999581 -1.641404 0
M  V30 19 C -5.971061 0.081582 -2.590460 0
M  V30 20 C -6.366744 1.344039 -1.901573 0
M  V30 21 O -6.490177 1.118142 -0.553353 0
M  V30 22 C -7.212577 -0.026112 -0.205873 0
M  V30 23 C -6.450410 -1.285104 -0.563263 0
M  V30 24 C -2.084705 -0.307617 -0.501554 0
M  V30 25 C -2.495893 -0.100917 0.859998 0
M  V30 26 N -2.847917 0.081124 1.961107 0
M  V30 27 C -0.705112 -0.192973 -0.684664 0
M  V30 28 C 1.740812 0.521908 -3.261343 0
M  V30 29 C 3.089046 0.734690 -3.325684 0
M  V30 30 N 3.924433 0.307728 -2.389498 0
M  V30 31 C 5.808069 -1.481448 1.515266 0
M  V30 32 N 5.857397 -1.199890 2.820946 0
M  V30 33 H 2.643835 -3.830985 4.185289 0
M  V30 34 H 2.101333 -4.595317 5.675091 0
M  V30 35 H 2.031490 -2.820976 5.623767 0
M  V30 36 H 4.609683 -2.814328 4.049692 0
M  V30 37 H 5.677816 -2.591777 5.551952 0
M  V30 38 H 2.954268 -1.180527 5.034951 0
M  V30 39 H 4.071698 -1.004694 6.466085 0
M  V30 40 H 4.181217 0.795501 4.731188 0
M  V30 41 H 5.808307 0.007842 5.070017 0
M  V30 42 H 3.185142 0.337953 2.216067 0
M  V30 43 H 4.642111 -1.725297 -0.879548 0
M  V30 44 H 1.685741 -1.175977 -0.285620 0
M  V30 45 H -0.590664 -0.745391 -4.087341 0
M  V30 46 H -3.050857 -0.932466 -3.601474 0
M  V30 47 H -5.320618 -1.867003 -2.289181 0
M  V30 48 H -6.893970 -0.293666 -3.135128 0
M  V30 49 H -5.220032 0.255653 -3.376059 0
M  V30 50 H -7.265553 1.818673 -2.337779 0
M  V30 51 H -5.526924 2.071018 -2.051826 0
M  V30 52 H -8.195214 0.026676 -0.718153 0
M  V30 53 H -7.389294 0.021943 0.885119 0
M  V30 54 H -7.135491 -2.092975 -0.815284 0
M  V30 55 H -5.889319 -1.574002 0.359916 0
M  V30 56 H 0.004460 0.022593 0.106783 0
M  V30 57 H 1.146417 0.909826 -4.058524 0
M  V30 58 H 3.523165 1.281994 -4.189836 0
M  V30 59 H 6.617650 -2.112039 1.075900 0
M  V30 END ATOM
M  V30 BEGIN BOND
M  V30 1 1 1 2
M  V30 2 1 2 3
M  V30 3 1 3 4
M  V30 4 1 4 5
M  V30 5 1 5 6
M  V30 6 1 6 7
M  V30 7 2 7 8
M  V30 8 1 8 9
M  V30 9 1 9 10
M  V30 10 2 10 11
M  V30 11 1 11 12
M  V30 12 1 12 13
M  V30 13 2 13 14
M  V30 14 1 14 15
M  V30 15 2 15 16
M  V30 16 1 16 17
M  V30 17 1 17 18
M  V30 18 1 18 19
M  V30 19 1 19 20
M  V30 20 1 20 21
M  V30 21 1 21 22
M  V30 22 1 22 23
M  V30 23 1 16 24
M  V30 24 1 24 25
M  V30 25 3 25 26
M  V30 26 2 24 27
M  V30 27 2 12 28
M  V30 28 1 28 29
M  V30 29 2 29 30
M  V30 30 1 8 31
M  V30 31 2 31 32
M  V30 32 1 32 6
M  V30 33 1 30 10
M  V30 34 1 27 13
M  V30 35 1 23 18
M  V30 36 1 1 33
M  V30 37 1 1 34
M  V30 38 1 1 35
M  V30 39 1 3 36
M  V30 40 1 3 37
M  V30 41 1 4 38
M  V30 42 1 4 39
M  V30 43 1 5 40
M  V30 44 1 5 41
M  V30 45 1 7 42
M  V30 46 1 9 43
M  V30 47 1 11 44
M  V30 48 1 14 45
M  V30 49 1 15 46
M  V30 50 1 18 47
M  V30 51 1 19 48
M  V30 52 1 19 49
M  V30 53 1 20 50
M  V30 54 1 20 51
M  V30 55 1 22 52
M  V30 56 1 22 53
M  V30 57 1 23 54
M  V30 58 1 23 55
M  V30 59 1 27 56
M  V30 60 1 28 57
M  V30 61 1 29 58
M  V30 62 1 31 59
M  V30 END BOND
M  V30 END CTAB
M  END
>  <Dataset>  (192) 
ChEMBL_Kinases

>  <Ligand_Instance>  (192) 
nan

>  <PDB_ID>  (192) 
nan

>  <Standardized_SMILES>  (192) 
COCCCn1cc(Nc2cc(-c3ccc(OC4CCOCC4)c(C#N)c3)ccn2)cn1

>  <Name>  (192) 
nan

>  <Pocket>  (192) 
nan

>  <ATP_Site>  (192) 
nan

>  <Peripheral>  (192) 
nan

>  <Num_H_Atoms_ProtBoundConf>  (192) 
nan

>  <Num_Resolved_Atoms>  (192) 
nan

>  <Num_Not_Resolved_Atoms>  (192) 
nan

$$$$
CHEMBL3687164
     RDKit          3D

  0  0  0  0  0  0  0  0  0  0999 V3000
M  V30 BEGIN CTAB
M  V30 COUNTS 65 69 0 0 0
M  V30 BEGIN ATOM
M  V30 1 N -2.756745 -4.586949 -1.018561 0
M  V30 2 C -1.872799 -3.859523 -1.175816 0
M  V30 3 C -0.764375 -2.940779 -1.371108 0
M  V30 4 C 0.327733 -3.179186 -0.562004 0
M  V30 5 C 1.411111 -2.336476 -0.707668 0
M  V30 6 C 2.623019 -2.491738 0.130183 0
M  V30 7 C 3.077132 -3.701690 0.608381 0
M  V30 8 C 4.206442 -3.713130 1.396385 0
M  V30 9 N 4.894169 -2.587746 1.724614 0
M  V30 10 C 4.487681 -1.392696 1.281085 0
M  V30 11 N 5.017733 -0.079322 1.511324 0
M  V30 12 C 4.261978 0.716888 2.448847 0
M  V30 13 C 4.497047 2.011978 2.913380 0
M  V30 14 N 3.500059 2.344561 3.776110 0
M  V30 15 N 2.639343 1.371728 3.908320 0
M  V30 16 C 1.414367 1.230572 4.681870 0
M  V30 17 C 0.225403 1.670467 3.893027 0
M  V30 18 N -1.001924 1.522216 4.646111 0
M  V30 19 C -2.106450 1.979121 3.811153 0
M  V30 20 C -2.441803 0.982856 2.725679 0
M  V30 21 O -2.565318 -0.302494 3.204489 0
M  V30 22 C -2.531889 -0.390960 4.588061 0
M  V30 23 C -1.174268 0.157103 5.049928 0
M  V30 24 C 3.084654 0.374153 3.110258 0
M  V30 25 C 3.356750 -1.348537 0.487145 0
M  V30 26 C 1.371107 -1.312599 -1.631826 0
M  V30 27 C 0.258371 -1.110227 -2.421048 0
M  V30 28 C -0.852211 -1.932279 -2.306275 0
M  V30 29 O -2.016567 -1.864922 -2.999525 0
M  V30 30 C -2.404069 -0.970747 -3.994841 0
M  V30 31 C -2.866422 -1.607850 -5.280075 0
M  V30 32 C -4.391370 -1.741027 -5.135579 0
M  V30 33 O -4.987114 -0.485978 -5.269792 0
M  V30 34 C -4.154333 0.528609 -4.789615 0
M  V30 35 C -3.470535 -0.001564 -3.549145 0
M  V30 36 H 0.363384 -3.981231 0.162656 0
M  V30 37 H 2.517719 -4.574854 0.336270 0
M  V30 38 H 4.585893 -4.644389 1.785219 0
M  V30 39 H 5.866476 0.421267 1.120437 0
M  V30 40 H 5.338842 2.613026 2.614323 0
M  V30 41 H 1.469907 1.917951 5.574936 0
M  V30 42 H 1.376829 0.193168 5.056492 0
M  V30 43 H 0.357578 2.754750 3.676949 0
M  V30 44 H 0.088038 1.188111 2.915916 0
M  V30 45 H -1.768894 2.917145 3.344873 0
M  V30 46 H -2.996418 2.102749 4.448125 0
M  V30 47 H -3.444374 1.257563 2.311528 0
M  V30 48 H -1.727483 1.070510 1.859594 0
M  V30 49 H -3.357307 0.103669 5.107036 0
M  V30 50 H -2.468509 -1.483504 4.818080 0
M  V30 51 H -1.086356 0.000522 6.136116 0
M  V30 52 H -0.435568 -0.486122 4.483770 0
M  V30 53 H 2.594826 -0.598785 2.983903 0
M  V30 54 H 2.944699 -0.424098 0.076514 0
M  V30 55 H 2.185942 -0.615585 -1.798222 0
M  V30 56 H 0.194696 -0.324385 -3.149795 0
M  V30 57 H -1.512242 -0.330399 -4.252939 0
M  V30 58 H -2.477654 -2.649318 -5.415804 0
M  V30 59 H -2.673472 -0.966377 -6.162807 0
M  V30 60 H -4.723542 -2.432259 -5.929872 0
M  V30 61 H -4.693969 -2.131357 -4.157651 0
M  V30 62 H -3.362340 0.823978 -5.504364 0
M  V30 63 H -4.855097 1.369136 -4.539666 0
M  V30 64 H -3.042431 0.878904 -3.029047 0
M  V30 65 H -4.236145 -0.529423 -2.951250 0
M  V30 END ATOM
M  V30 BEGIN BOND
M  V30 1 3 1 2
M  V30 2 1 2 3
M  V30 3 2 3 4
M  V30 4 1 4 5
M  V30 5 1 5 6
M  V30 6 2 6 7
M  V30 7 1 7 8
M  V30 8 2 8 9
M  V30 9 1 9 10
M  V30 10 1 10 11
M  V30 11 1 11 12
M  V30 12 1 12 13
M  V30 13 2 13 14
M  V30 14 1 14 15
M  V30 15 1 15 16
M  V30 16 1 16 17
M  V30 17 1 17 18
M  V30 18 1 18 19
M  V30 19 1 19 20
M  V30 20 1 20 21
M  V30 21 1 21 22
M  V30 22 1 22 23
M  V30 23 1 15 24
M  V30 24 2 10 25
M  V30 25 2 5 26
M  V30 26 1 26 27
M  V30 27 2 27 28
M  V30 28 1 28 29
M  V30 29 1 29 30
M  V30 30 1 30 31
M  V30 31 1 31 32
M  V30 32 1 32 33
M  V30 33 1 33 34
M  V30 34 1 34 35
M  V30 35 1 28 3
M  V30 36 1 35 30
M  V30 37 1 25 6
M  V30 38 2 24 12
M  V30 39 1 23 18
M  V30 40 1 4 36
M  V30 41 1 7 37
M  V30 42 1 8 38
M  V30 43 1 11 39
M  V30 44 1 13 40
M  V30 45 1 16 41
M  V30 46 1 16 42
M  V30 47 1 17 43
M  V30 48 1 17 44
M  V30 49 1 19 45
M  V30 50 1 19 46
M  V30 51 1 20 47
M  V30 52 1 20 48
M  V30 53 1 22 49
M  V30 54 1 22 50
M  V30 55 1 23 51
M  V30 56 1 23 52
M  V30 57 1 24 53
M  V30 58 1 25 54
M  V30 59 1 26 55
M  V30 60 1 27 56
M  V30 61 1 30 57
M  V30 62 1 31 58
M  V30 63 1 31 59
M  V30 64 1 32 60
M  V30 65 1 32 61
M  V30 66 1 34 62
M  V30 67 1 34 63
M  V30 68 1 35 64
M  V30 69 1 35 65
M  V30 END BOND
M  V30 END CTAB
M  END
>  <Dataset>  (193) 
ChEMBL_Kinases

>  <Ligand_Instance>  (193) 
nan

>  <PDB_ID>  (193) 
nan

>  <Standardized_SMILES>  (193) 
N#Cc1cc(-c2ccnc(Nc3cnn(CCN4CCOCC4)c3)c2)ccc1OC1CCOCC1

>  <Name>  (193) 
nan

>  <Pocket>  (193) 
nan

>  <ATP_Site>  (193) 
nan

>  <Peripheral>  (193) 
nan

>  <Num_H_Atoms_ProtBoundConf>  (193) 
nan

>  <Num_Resolved_Atoms>  (193) 
nan

>  <Num_Not_Resolved_Atoms>  (193) 
nan

$$$$
CHEMBL3687163
     RDKit          3D

  0  0  0  0  0  0  0  0  0  0999 V3000
M  V30 BEGIN CTAB
M  V30 COUNTS 67 71 0 0 0
M  V30 BEGIN ATOM
M  V30 1 N 2.103085 -5.425736 4.481371 0
M  V30 2 C 2.171286 -4.500020 3.782391 0
M  V30 3 C 2.250032 -3.337964 2.934896 0
M  V30 4 C 2.367216 -3.630108 1.574441 0
M  V30 5 C 2.450802 -2.599021 0.663982 0
M  V30 6 C 2.581466 -2.737761 -0.782827 0
M  V30 7 C 3.269847 -3.821815 -1.300661 0
M  V30 8 C 3.349942 -3.876519 -2.674631 0
M  V30 9 N 2.812412 -2.964340 -3.486221 0
M  V30 10 C 2.134986 -1.895540 -3.025414 0
M  V30 11 N 1.601299 -0.949963 -3.937706 0
M  V30 12 C 0.764822 0.176173 -3.766239 0
M  V30 13 C 0.706758 1.305642 -4.574135 0
M  V30 14 N -0.233064 2.111861 -4.064691 0
M  V30 15 N -0.800342 1.604490 -2.985162 0
M  V30 16 C -1.829086 2.345103 -2.313582 0
M  V30 17 C -3.215237 2.076536 -2.809659 0
M  V30 18 C -3.665843 0.650122 -2.681951 0
M  V30 19 C -3.642112 0.252196 -1.243530 0
M  V30 20 C -4.371940 -1.047394 -0.982101 0
M  V30 21 N -5.050031 -1.530709 -2.173141 0
M  V30 22 C -5.919071 -0.485452 -2.676746 0
M  V30 23 C -5.055984 0.574696 -3.283476 0
M  V30 24 C -0.187568 0.422697 -2.807471 0
M  V30 25 C 2.046297 -1.825518 -1.666553 0
M  V30 26 C 2.415789 -1.277483 1.127587 0
M  V30 27 C 2.299424 -1.031606 2.478305 0
M  V30 28 C 2.212864 -2.026269 3.426964 0
M  V30 29 O 2.094327 -1.978376 4.800812 0
M  V30 30 C 2.041560 -0.779520 5.534514 0
M  V30 31 C 0.718403 -0.674015 6.260667 0
M  V30 32 C 0.733880 0.447966 7.280454 0
M  V30 33 O 1.932960 1.180152 7.182242 0
M  V30 34 C 2.949921 0.333661 7.587099 0
M  V30 35 C 3.211638 -0.662397 6.488370 0
M  V30 36 H 2.397045 -4.619370 1.183950 0
M  V30 37 H 3.718057 -4.579776 -0.679456 0
M  V30 38 H 3.879555 -4.706864 -3.136418 0
M  V30 39 H 1.870080 -1.101756 -4.956571 0
M  V30 40 H 1.320055 1.491601 -5.459509 0
M  V30 41 H -1.768601 2.087964 -1.220216 0
M  V30 42 H -1.673267 3.437453 -2.376099 0
M  V30 43 H -3.332061 2.449798 -3.850584 0
M  V30 44 H -3.895696 2.725125 -2.199830 0
M  V30 45 H -3.024462 -0.011277 -3.319342 0
M  V30 46 H -2.593094 0.181892 -0.908421 0
M  V30 47 H -4.105127 1.088812 -0.657173 0
M  V30 48 H -5.153990 -0.854012 -0.215170 0
M  V30 49 H -3.713227 -1.839923 -0.567155 0
M  V30 50 H -4.413708 -1.839423 -2.915972 0
M  V30 51 H -6.575439 -0.118026 -1.863322 0
M  V30 52 H -6.600561 -0.910081 -3.454259 0
M  V30 53 H -5.594898 1.544059 -3.159618 0
M  V30 54 H -4.997421 0.372650 -4.384579 0
M  V30 55 H -0.490256 -0.185112 -1.981702 0
M  V30 56 H 1.541126 -1.020402 -1.199348 0
M  V30 57 H 2.472875 -0.374359 0.521347 0
M  V30 58 H 2.268130 -0.037458 2.895471 0
M  V30 59 H 2.096591 0.115919 4.886766 0
M  V30 60 H 0.454762 -1.651617 6.691217 0
M  V30 61 H -0.058925 -0.403383 5.516827 0
M  V30 62 H -0.074249 1.185516 7.122100 0
M  V30 63 H 0.680952 -0.022507 8.282420 0
M  V30 64 H 3.886019 0.894922 7.815232 0
M  V30 65 H 2.695529 -0.207901 8.534476 0
M  V30 66 H 4.117863 -0.327988 5.942389 0
M  V30 67 H 3.426367 -1.688461 6.849122 0
M  V30 END ATOM
M  V30 BEGIN BOND
M  V30 1 3 1 2
M  V30 2 1 2 3
M  V30 3 2 3 4
M  V30 4 1 4 5
M  V30 5 1 5 6
M  V30 6 2 6 7
M  V30 7 1 7 8
M  V30 8 2 8 9
M  V30 9 1 9 10
M  V30 10 1 10 11
M  V30 11 1 11 12
M  V30 12 1 12 13
M  V30 13 2 13 14
M  V30 14 1 14 15
M  V30 15 1 15 16
M  V30 16 1 16 17
M  V30 17 1 17 18
M  V30 18 1 18 19
M  V30 19 1 19 20
M  V30 20 1 20 21
M  V30 21 1 21 22
M  V30 22 1 22 23
M  V30 23 1 15 24
M  V30 24 2 10 25
M  V30 25 2 5 26
M  V30 26 1 26 27
M  V30 27 2 27 28
M  V30 28 1 28 29
M  V30 29 1 29 30
M  V30 30 1 30 31
M  V30 31 1 31 32
M  V30 32 1 32 33
M  V30 33 1 33 34
M  V30 34 1 34 35
M  V30 35 1 28 3
M  V30 36 1 35 30
M  V30 37 1 25 6
M  V30 38 2 24 12
M  V30 39 1 23 18
M  V30 40 1 4 36
M  V30 41 1 7 37
M  V30 42 1 8 38
M  V30 43 1 11 39
M  V30 44 1 13 40
M  V30 45 1 16 41
M  V30 46 1 16 42
M  V30 47 1 17 43
M  V30 48 1 17 44
M  V30 49 1 18 45
M  V30 50 1 19 46
M  V30 51 1 19 47
M  V30 52 1 20 48
M  V30 53 1 20 49
M  V30 54 1 21 50
M  V30 55 1 22 51
M  V30 56 1 22 52
M  V30 57 1 23 53
M  V30 58 1 23 54
M  V30 59 1 24 55
M  V30 60 1 25 56
M  V30 61 1 26 57
M  V30 62 1 27 58
M  V30 63 1 30 59
M  V30 64 1 31 60
M  V30 65 1 31 61
M  V30 66 1 32 62
M  V30 67 1 32 63
M  V30 68 1 34 64
M  V30 69 1 34 65
M  V30 70 1 35 66
M  V30 71 1 35 67
M  V30 END BOND
M  V30 END CTAB
M  END
>  <Dataset>  (194) 
ChEMBL_Kinases

>  <Ligand_Instance>  (194) 
nan

>  <PDB_ID>  (194) 
nan

>  <Standardized_SMILES>  (194) 
N#Cc1cc(-c2ccnc(Nc3cnn(CCC4CCNCC4)c3)c2)ccc1OC1CCOCC1

>  <Name>  (194) 
nan

>  <Pocket>  (194) 
nan

>  <ATP_Site>  (194) 
nan

>  <Peripheral>  (194) 
nan

>  <Num_H_Atoms_ProtBoundConf>  (194) 
nan

>  <Num_Resolved_Atoms>  (194) 
nan

>  <Num_Not_Resolved_Atoms>  (194) 
nan

$$$$
CHEMBL3687162
     RDKit          3D

  0  0  0  0  0  0  0  0  0  0999 V3000
M  V30 BEGIN CTAB
M  V30 COUNTS 52 55 0 0 0
M  V30 BEGIN ATOM
M  V30 1 N 1.455753 -6.193746 0.671571 0
M  V30 2 C 1.210134 -5.082749 0.439673 0
M  V30 3 C 0.888857 -3.714355 0.135541 0
M  V30 4 C 1.943330 -2.827237 0.381367 0
M  V30 5 C 1.795113 -1.482227 0.141485 0
M  V30 6 C 2.799926 -0.445587 0.350467 0
M  V30 7 C 4.149691 -0.722139 0.186968 0
M  V30 8 C 4.992077 0.324356 0.416325 0
M  V30 9 N 4.603741 1.537165 0.771425 0
M  V30 10 C 3.301115 1.877371 0.948993 0
M  V30 11 N 2.942395 3.189631 1.346927 0
M  V30 12 C 1.676210 3.801709 1.511154 0
M  V30 13 C 0.452925 3.565096 0.925930 0
M  V30 14 N -0.480315 4.383626 1.419951 0
M  V30 15 N 0.131064 5.152644 2.324300 0
M  V30 16 C -0.584918 6.181663 3.083576 0
M  V30 17 C -1.100795 5.499980 4.348900 0
M  V30 18 F -0.009793 5.022834 5.034277 0
M  V30 19 F -1.959062 4.474943 3.992197 0
M  V30 20 C 1.431384 4.840628 2.415458 0
M  V30 21 C 2.444141 0.823980 0.718934 0
M  V30 22 C 0.579990 -1.055624 -0.344287 0
M  V30 23 C -0.449927 -1.936845 -0.582620 0
M  V30 24 C -0.333875 -3.283786 -0.353571 0
M  V30 25 O -1.204942 -4.324280 -0.513541 0
M  V30 26 C -2.497113 -4.162095 -1.000278 0
M  V30 27 C -3.482719 -4.506858 0.113019 0
M  V30 28 C -4.145549 -5.816688 -0.244493 0
M  V30 29 O -3.152518 -6.748128 -0.452976 0
M  V30 30 C -2.563832 -6.534142 -1.694481 0
M  V30 31 C -2.698356 -5.116890 -2.161344 0
M  V30 32 H 2.908685 -3.130921 0.762591 0
M  V30 33 H 4.484776 -1.703060 -0.102071 0
M  V30 34 H 6.057397 0.160046 0.302264 0
M  V30 35 H 3.760138 3.817790 1.553456 0
M  V30 36 H 0.204911 2.856546 0.173471 0
M  V30 37 H -1.467024 6.539477 2.531984 0
M  V30 38 H 0.093250 6.986608 3.403162 0
M  V30 39 H -1.645997 6.239018 4.961961 0
M  V30 40 H 2.121745 5.321138 3.071465 0
M  V30 41 H 1.393834 0.981176 0.840075 0
M  V30 42 H 0.319880 -0.012675 -0.582225 0
M  V30 43 H -1.409438 -1.630427 -0.961625 0
M  V30 44 H -2.691916 -3.124173 -1.282961 0
M  V30 45 H -2.954163 -4.548447 1.073253 0
M  V30 46 H -4.310174 -3.743919 0.151561 0
M  V30 47 H -4.866191 -6.124712 0.540987 0
M  V30 48 H -4.740826 -5.667968 -1.162422 0
M  V30 49 H -3.055266 -7.239466 -2.425566 0
M  V30 50 H -1.474107 -6.748283 -1.597294 0
M  V30 51 H -1.867742 -4.911779 -2.891377 0
M  V30 52 H -3.631562 -4.934766 -2.707850 0
M  V30 END ATOM
M  V30 BEGIN BOND
M  V30 1 3 1 2
M  V30 2 1 2 3
M  V30 3 2 3 4
M  V30 4 1 4 5
M  V30 5 1 5 6
M  V30 6 2 6 7
M  V30 7 1 7 8
M  V30 8 2 8 9
M  V30 9 1 9 10
M  V30 10 1 10 11
M  V30 11 1 11 12
M  V30 12 1 12 13
M  V30 13 2 13 14
M  V30 14 1 14 15
M  V30 15 1 15 16
M  V30 16 1 16 17
M  V30 17 1 17 18
M  V30 18 1 17 19
M  V30 19 1 15 20
M  V30 20 2 10 21
M  V30 21 2 5 22
M  V30 22 1 22 23
M  V30 23 2 23 24
M  V30 24 1 24 25
M  V30 25 1 25 26
M  V30 26 1 26 27
M  V30 27 1 27 28
M  V30 28 1 28 29
M  V30 29 1 29 30
M  V30 30 1 30 31
M  V30 31 1 24 3
M  V30 32 1 31 26
M  V30 33 1 21 6
M  V30 34 2 20 12
M  V30 35 1 4 32
M  V30 36 1 7 33
M  V30 37 1 8 34
M  V30 38 1 11 35
M  V30 39 1 13 36
M  V30 40 1 16 37
M  V30 41 1 16 38
M  V30 42 1 17 39
M  V30 43 1 20 40
M  V30 44 1 21 41
M  V30 45 1 22 42
M  V30 46 1 23 43
M  V30 47 1 26 44
M  V30 48 1 27 45
M  V30 49 1 27 46
M  V30 50 1 28 47
M  V30 51 1 28 48
M  V30 52 1 30 49
M  V30 53 1 30 50
M  V30 54 1 31 51
M  V30 55 1 31 52
M  V30 END BOND
M  V30 END CTAB
M  END
>  <Dataset>  (195) 
ChEMBL_Kinases

>  <Ligand_Instance>  (195) 
nan

>  <PDB_ID>  (195) 
nan

>  <Standardized_SMILES>  (195) 
N#Cc1cc(-c2ccnc(Nc3cnn(CC(F)F)c3)c2)ccc1OC1CCOCC1

>  <Name>  (195) 
nan

>  <Pocket>  (195) 
nan

>  <ATP_Site>  (195) 
nan

>  <Peripheral>  (195) 
nan

>  <Num_H_Atoms_ProtBoundConf>  (195) 
nan

>  <Num_Resolved_Atoms>  (195) 
nan

>  <Num_Not_Resolved_Atoms>  (195) 
nan

$$$$
CHEMBL3687161
     RDKit          3D

  0  0  0  0  0  0  0  0  0  0999 V3000
M  V30 BEGIN CTAB
M  V30 COUNTS 56 60 0 0 0
M  V30 BEGIN ATOM
M  V30 1 N 2.769916 -5.744421 -0.268810 0
M  V30 2 C 2.222132 -4.819094 0.150991 0
M  V30 3 C 1.562418 -3.658229 0.662924 0
M  V30 4 C 2.336626 -2.600064 1.080152 0
M  V30 5 C 1.641061 -1.512340 1.557700 0
M  V30 6 C 2.467483 -0.382688 1.999018 0
M  V30 7 C 3.714493 -0.611488 2.539354 0
M  V30 8 C 4.428881 0.500617 2.929000 0
M  V30 9 N 3.968669 1.744460 2.804230 0
M  V30 10 C 2.762407 2.021576 2.284918 0
M  V30 11 N 2.324636 3.363957 2.196189 0
M  V30 12 C 1.210254 4.024425 1.627908 0
M  V30 13 C 0.644681 5.159173 2.178248 0
M  V30 14 C -0.424040 5.786085 1.591636 0
M  V30 15 C -0.979711 5.311443 0.428133 0
M  V30 16 O -1.991183 5.759391 -0.282351 0
M  V30 17 C -2.165574 4.968898 -1.335854 0
M  V30 18 C -3.217054 5.192279 -2.334282 0
M  V30 19 N -3.351160 4.305415 -3.437283 0
M  V30 20 O -3.967286 6.185834 -2.157421 0
M  V30 21 C -1.214400 3.973490 -1.283854 0
M  V30 22 C -0.435593 4.184606 -0.139979 0
M  V30 23 C 0.651811 3.550171 0.460081 0
M  V30 24 C 2.040239 0.922471 1.893043 0
M  V30 25 C 0.264633 -1.457455 1.625708 0
M  V30 26 C -0.440495 -2.582413 1.178310 0
M  V30 27 C 0.193825 -3.730725 0.677416 0
M  V30 28 O -0.727649 -4.609104 0.340536 0
M  V30 29 C -0.841194 -5.875526 -0.179051 0
M  V30 30 C -1.615639 -6.798967 0.722848 0
M  V30 31 C -3.095647 -6.739533 0.560653 0
M  V30 32 O -3.514451 -6.383515 -0.713051 0
M  V30 33 C -2.547732 -6.820485 -1.627474 0
M  V30 34 C -1.452584 -5.776980 -1.564627 0
M  V30 35 H 3.412639 -2.676340 1.013314 0
M  V30 36 H 4.105532 -1.612621 2.648740 0
M  V30 37 H 5.419203 0.377035 3.362357 0
M  V30 38 H 2.959924 4.087277 2.652878 0
M  V30 39 H 1.136022 5.483646 3.105451 0
M  V30 40 H -0.780182 6.653567 2.104172 0
M  V30 41 H -2.881798 4.485241 -4.348509 0
M  V30 42 H -3.956128 3.472403 -3.244300 0
M  V30 43 H -1.080901 3.181879 -1.976770 0
M  V30 44 H 0.961868 2.698041 -0.116070 0
M  V30 45 H 1.069488 1.030552 1.481150 0
M  V30 46 H -0.149751 -0.548607 2.019656 0
M  V30 47 H -1.518673 -2.379613 1.298480 0
M  V30 48 H 0.159268 -6.309967 -0.346191 0
M  V30 49 H -1.283673 -7.843033 0.551094 0
M  V30 50 H -1.339967 -6.552537 1.769212 0
M  V30 51 H -3.551280 -6.009398 1.262278 0
M  V30 52 H -3.588075 -7.718734 0.781614 0
M  V30 53 H -2.083759 -7.787031 -1.327280 0
M  V30 54 H -2.942577 -6.843542 -2.663663 0
M  V30 55 H -1.921624 -4.800038 -1.697507 0
M  V30 56 H -0.744826 -6.045310 -2.372221 0
M  V30 END ATOM
M  V30 BEGIN BOND
M  V30 1 3 1 2
M  V30 2 1 2 3
M  V30 3 2 3 4
M  V30 4 1 4 5
M  V30 5 1 5 6
M  V30 6 2 6 7
M  V30 7 1 7 8
M  V30 8 2 8 9
M  V30 9 1 9 10
M  V30 10 1 10 11
M  V30 11 1 11 12
M  V30 12 2 12 13
M  V30 13 1 13 14
M  V30 14 2 14 15
M  V30 15 1 15 16
M  V30 16 1 16 17
M  V30 17 1 17 18
M  V30 18 1 18 19
M  V30 19 2 18 20
M  V30 20 2 17 21
M  V30 21 1 21 22
M  V30 22 2 22 23
M  V30 23 2 10 24
M  V30 24 2 5 25
M  V30 25 1 25 26
M  V30 26 2 26 27
M  V30 27 1 27 28
M  V30 28 1 28 29
M  V30 29 1 29 30
M  V30 30 1 30 31
M  V30 31 1 31 32
M  V30 32 1 32 33
M  V30 33 1 33 34
M  V30 34 1 27 3
M  V30 35 1 34 29
M  V30 36 1 24 6
M  V30 37 1 23 12
M  V30 38 1 22 15
M  V30 39 1 4 35
M  V30 40 1 7 36
M  V30 41 1 8 37
M  V30 42 1 11 38
M  V30 43 1 13 39
M  V30 44 1 14 40
M  V30 45 1 19 41
M  V30 46 1 19 42
M  V30 47 1 21 43
M  V30 48 1 23 44
M  V30 49 1 24 45
M  V30 50 1 25 46
M  V30 51 1 26 47
M  V30 52 1 29 48
M  V30 53 1 30 49
M  V30 54 1 30 50
M  V30 55 1 31 51
M  V30 56 1 31 52
M  V30 57 1 33 53
M  V30 58 1 33 54
M  V30 59 1 34 55
M  V30 60 1 34 56
M  V30 END BOND
M  V30 END CTAB
M  END
>  <Dataset>  (196) 
ChEMBL_Kinases

>  <Ligand_Instance>  (196) 
nan

>  <PDB_ID>  (196) 
nan

>  <Standardized_SMILES>  (196) 
N#Cc1cc(-c2ccnc(Nc3ccc4oc(C(N)=O)cc4c3)c2)ccc1OC1CCOCC1

>  <Name>  (196) 
nan

>  <Pocket>  (196) 
nan

>  <ATP_Site>  (196) 
nan

>  <Peripheral>  (196) 
nan

>  <Num_H_Atoms_ProtBoundConf>  (196) 
nan

>  <Num_Resolved_Atoms>  (196) 
nan

>  <Num_Not_Resolved_Atoms>  (196) 
nan

$$$$
CHEMBL3687160
     RDKit          3D

  0  0  0  0  0  0  0  0  0  0999 V3000
M  V30 BEGIN CTAB
M  V30 COUNTS 52 55 0 0 0
M  V30 BEGIN ATOM
M  V30 1 N 0.415962 -6.014466 -0.092535 0
M  V30 2 C 0.233714 -4.876580 -0.151069 0
M  V30 3 C -0.000236 -3.444764 -0.213009 0
M  V30 4 C 1.119692 -2.706310 -0.610858 0
M  V30 5 C 1.041733 -1.343766 -0.712241 0
M  V30 6 C 2.147778 -0.484002 -1.116999 0
M  V30 7 C 3.089818 -0.947388 -2.014003 0
M  V30 8 C 4.156152 -0.172678 -2.428575 0
M  V30 9 N 4.274189 1.089733 -1.930380 0
M  V30 10 C 3.357258 1.569088 -1.044185 0
M  V30 11 N 3.526969 2.904115 -0.550808 0
M  V30 12 C 2.633109 3.508576 0.377603 0
M  V30 13 C 2.774322 3.442002 1.748537 0
M  V30 14 C 1.833973 4.073684 2.513850 0
M  V30 15 C 1.921934 4.044590 3.997248 0
M  V30 16 O 2.671978 5.137243 4.446191 0
M  V30 17 C 0.786076 4.750165 1.926121 0
M  V30 18 C 0.662770 4.804787 0.544809 0
M  V30 19 N 1.594244 4.179463 -0.194015 0
M  V30 20 C 2.312028 0.798698 -0.642888 0
M  V30 21 C -0.159018 -0.735198 -0.413456 0
M  V30 22 C -1.254969 -1.471605 -0.022985 0
M  V30 23 C -1.229381 -2.843024 0.094667 0
M  V30 24 O -2.161296 -3.783899 0.455727 0
M  V30 25 C -3.464892 -3.407056 0.805883 0
M  V30 26 C -3.703920 -3.938116 2.227615 0
M  V30 27 C -3.632428 -5.425501 2.181834 0
M  V30 28 O -3.285214 -5.968053 0.963955 0
M  V30 29 C -4.156342 -5.607162 -0.058249 0
M  V30 30 C -4.500437 -4.153044 -0.042598 0
M  V30 31 H 2.059032 -3.147494 -0.847422 0
M  V30 32 H 3.059418 -1.935759 -2.449406 0
M  V30 33 H 4.899779 -0.523114 -3.129571 0
M  V30 34 H 4.315572 3.493445 -0.851485 0
M  V30 35 H 3.609662 2.901209 2.156344 0
M  V30 36 H 2.468609 3.102057 4.265795 0
M  V30 37 H 0.939324 3.953455 4.476981 0
M  V30 38 H 3.508934 5.129703 3.917569 0
M  V30 39 H 0.046064 5.247333 2.542955 0
M  V30 40 H -0.146989 5.326881 0.054683 0
M  V30 41 H 1.584189 1.174773 0.058405 0
M  V30 42 H -0.364950 0.330122 -0.450038 0
M  V30 43 H -2.214981 -1.049424 0.221653 0
M  V30 44 H -3.639002 -2.330024 0.751315 0
M  V30 45 H -2.962181 -3.504299 2.927338 0
M  V30 46 H -4.726388 -3.629330 2.509261 0
M  V30 47 H -2.823063 -5.748696 2.897898 0
M  V30 48 H -4.571713 -5.868439 2.594284 0
M  V30 49 H -5.029365 -6.287480 -0.129368 0
M  V30 50 H -3.586838 -5.784249 -1.015684 0
M  V30 51 H -4.596679 -3.700324 -1.043444 0
M  V30 52 H -5.469657 -4.026421 0.480440 0
M  V30 END ATOM
M  V30 BEGIN BOND
M  V30 1 3 1 2
M  V30 2 1 2 3
M  V30 3 2 3 4
M  V30 4 1 4 5
M  V30 5 1 5 6
M  V30 6 2 6 7
M  V30 7 1 7 8
M  V30 8 2 8 9
M  V30 9 1 9 10
M  V30 10 1 10 11
M  V30 11 1 11 12
M  V30 12 2 12 13
M  V30 13 1 13 14
M  V30 14 1 14 15
M  V30 15 1 15 16
M  V30 16 2 14 17
M  V30 17 1 17 18
M  V30 18 2 18 19
M  V30 19 2 10 20
M  V30 20 2 5 21
M  V30 21 1 21 22
M  V30 22 2 22 23
M  V30 23 1 23 24
M  V30 24 1 24 25
M  V30 25 1 25 26
M  V30 26 1 26 27
M  V30 27 1 27 28
M  V30 28 1 28 29
M  V30 29 1 29 30
M  V30 30 1 23 3
M  V30 31 1 30 25
M  V30 32 1 20 6
M  V30 33 1 19 12
M  V30 34 1 4 31
M  V30 35 1 7 32
M  V30 36 1 8 33
M  V30 37 1 11 34
M  V30 38 1 13 35
M  V30 39 1 15 36
M  V30 40 1 15 37
M  V30 41 1 16 38
M  V30 42 1 17 39
M  V30 43 1 18 40
M  V30 44 1 20 41
M  V30 45 1 21 42
M  V30 46 1 22 43
M  V30 47 1 25 44
M  V30 48 1 26 45
M  V30 49 1 26 46
M  V30 50 1 27 47
M  V30 51 1 27 48
M  V30 52 1 29 49
M  V30 53 1 29 50
M  V30 54 1 30 51
M  V30 55 1 30 52
M  V30 END BOND
M  V30 END CTAB
M  END
>  <Dataset>  (197) 
ChEMBL_Kinases

>  <Ligand_Instance>  (197) 
nan

>  <PDB_ID>  (197) 
nan

>  <Standardized_SMILES>  (197) 
N#Cc1cc(-c2ccnc(Nc3cc(CO)ccn3)c2)ccc1OC1CCOCC1

>  <Name>  (197) 
nan

>  <Pocket>  (197) 
nan

>  <ATP_Site>  (197) 
nan

>  <Peripheral>  (197) 
nan

>  <Num_H_Atoms_ProtBoundConf>  (197) 
nan

>  <Num_Resolved_Atoms>  (197) 
nan

>  <Num_Not_Resolved_Atoms>  (197) 
nan

$$$$
CHEMBL3687142
     RDKit          3D

  0  0  0  0  0  0  0  0  0  0999 V3000
M  V30 BEGIN CTAB
M  V30 COUNTS 60 64 0 0 0
M  V30 BEGIN ATOM
M  V30 1 C 2.581252 -6.575086 -0.194672 0 CHG=-1 VAL=3
M  V30 2 N 2.139717 -5.513754 -0.093658 0 CHG=1 VAL=4
M  V30 3 C 1.580214 -4.233108 0.029117 0
M  V30 4 C 2.537989 -3.280630 0.409939 0
M  V30 5 C 2.131015 -1.988801 0.567333 0
M  V30 6 C 3.039676 -0.897516 0.974898 0
M  V30 7 C 4.118310 -1.112523 1.823044 0
M  V30 8 C 4.910050 -0.033051 2.162662 0
M  V30 9 N 4.687794 1.213700 1.712292 0
M  V30 10 C 3.669502 1.455609 0.902045 0
M  V30 11 N 3.217491 2.690540 0.307102 0
M  V30 12 C 1.891593 3.100245 0.697386 0
M  V30 13 C 1.190503 4.234857 0.318615 0
M  V30 14 C -0.056134 4.249474 0.906230 0
M  V30 15 N -0.107221 3.123413 1.640100 0
M  V30 16 C -1.267063 2.760356 2.419686 0
M  V30 17 C -1.148047 1.445395 3.108869 0
M  V30 18 C -1.929988 0.325962 2.443986 0
M  V30 19 N -3.346115 0.620106 2.500492 0
M  V30 20 C -3.643678 2.002945 2.281984 0
M  V30 21 C -2.532320 2.751063 1.587281 0
M  V30 22 N 1.010437 2.473183 1.514704 0
M  V30 23 C 2.831530 0.403511 0.521831 0
M  V30 24 C 0.823977 -1.594155 0.366670 0
M  V30 25 C -0.032374 -2.583355 0.000608 0
M  V30 26 C 0.236958 -3.911718 -0.193025 0
M  V30 27 O -0.418156 -5.008651 -0.535354 0
M  V30 28 C -1.622648 -5.478823 -0.885047 0
M  V30 29 C -2.309053 -5.032121 -2.123259 0
M  V30 30 C -2.676538 -3.617226 -2.347195 0
M  V30 31 C -1.461618 -3.418275 -3.251310 0
M  V30 32 C -1.396179 -4.932925 -3.344020 0
M  V30 33 H 3.570791 -3.429253 0.599743 0
M  V30 34 H 4.303170 -2.103614 2.187232 0
M  V30 35 H 5.765477 -0.167503 2.826754 0
M  V30 36 H 3.707128 3.325538 -0.359360 0
M  V30 37 H 1.590936 4.995742 -0.352185 0
M  V30 38 H -0.758866 5.051302 0.738240 0
M  V30 39 H -1.382236 3.554317 3.181985 0
M  V30 40 H -1.596154 1.535738 4.124413 0
M  V30 41 H -0.100509 1.101685 3.282634 0
M  V30 42 H -1.731513 -0.577260 3.062260 0
M  V30 43 H -1.687053 0.173310 1.387801 0
M  V30 44 H -3.867797 0.005227 1.836533 0
M  V30 45 H -4.529441 2.062130 1.618520 0
M  V30 46 H -3.957561 2.523557 3.227538 0
M  V30 47 H -2.404719 2.329523 0.583580 0
M  V30 48 H -2.903347 3.798625 1.439843 0
M  V30 49 H 1.966514 0.506450 -0.148611 0
M  V30 50 H 0.397470 -0.591912 0.468044 0
M  V30 51 H -1.063642 -2.357461 -0.161882 0
M  V30 52 H -1.511692 -6.619248 -1.012636 0
M  V30 53 H -2.385093 -5.469102 -0.019653 0
M  V30 54 H -3.179040 -5.696129 -2.421320 0
M  V30 55 H -2.790302 -2.929239 -1.522076 0
M  V30 56 H -3.601699 -3.482094 -3.003822 0
M  V30 57 H -0.590880 -2.948647 -2.800696 0
M  V30 58 H -1.690502 -2.928796 -4.214062 0
M  V30 59 H -0.402814 -5.381686 -3.223033 0
M  V30 60 H -1.860826 -5.264802 -4.290249 0
M  V30 END ATOM
M  V30 BEGIN BOND
M  V30 1 3 1 2
M  V30 2 1 2 3
M  V30 3 2 3 4
M  V30 4 1 4 5
M  V30 5 1 5 6
M  V30 6 2 6 7
M  V30 7 1 7 8
M  V30 8 2 8 9
M  V30 9 1 9 10
M  V30 10 1 10 11
M  V30 11 1 11 12
M  V30 12 1 12 13
M  V30 13 2 13 14
M  V30 14 1 14 15
M  V30 15 1 15 16
M  V30 16 1 16 17
M  V30 17 1 17 18
M  V30 18 1 18 19
M  V30 19 1 19 20
M  V30 20 1 20 21
M  V30 21 1 15 22
M  V30 22 2 10 23
M  V30 23 2 5 24
M  V30 24 1 24 25
M  V30 25 2 25 26
M  V30 26 1 26 27
M  V30 27 1 27 28
M  V30 28 1 28 29
M  V30 29 1 29 30
M  V30 30 1 30 31
M  V30 31 1 31 32
M  V30 32 1 26 3
M  V30 33 1 32 29
M  V30 34 1 23 6
M  V30 35 2 22 12
M  V30 36 1 21 16
M  V30 37 1 4 33
M  V30 38 1 7 34
M  V30 39 1 8 35
M  V30 40 1 11 36
M  V30 41 1 13 37
M  V30 42 1 14 38
M  V30 43 1 16 39
M  V30 44 1 17 40
M  V30 45 1 17 41
M  V30 46 1 18 42
M  V30 47 1 18 43
M  V30 48 1 19 44
M  V30 49 1 20 45
M  V30 50 1 20 46
M  V30 51 1 21 47
M  V30 52 1 21 48
M  V30 53 1 23 49
M  V30 54 1 24 50
M  V30 55 1 25 51
M  V30 56 1 28 52
M  V30 57 1 28 53
M  V30 58 1 29 54
M  V30 59 1 30 55
M  V30 60 1 30 56
M  V30 61 1 31 57
M  V30 62 1 31 58
M  V30 63 1 32 59
M  V30 64 1 32 60
M  V30 END BOND
M  V30 END CTAB
M  END
>  <Dataset>  (198) 
ChEMBL_Kinases

>  <Ligand_Instance>  (198) 
nan

>  <PDB_ID>  (198) 
nan

>  <Standardized_SMILES>  (198) 
[C-]#[N+]c1cc(-c2ccnc(Nc3ccn(C4CCNCC4)n3)c2)ccc1OCC1CCC1

>  <Name>  (198) 
nan

>  <Pocket>  (198) 
nan

>  <ATP_Site>  (198) 
nan

>  <Peripheral>  (198) 
nan

>  <Num_H_Atoms_ProtBoundConf>  (198) 
nan

>  <Num_Resolved_Atoms>  (198) 
nan

>  <Num_Not_Resolved_Atoms>  (198) 
nan

$$$$
CHEMBL3687143
     RDKit          3D

  0  0  0  0  0  0  0  0  0  0999 V3000
M  V30 BEGIN CTAB
M  V30 COUNTS 62 66 0 0 0
M  V30 BEGIN ATOM
M  V30 1 N 1.388339 -6.125221 -0.667001 0
M  V30 2 C 1.323422 -4.975885 -0.563010 0
M  V30 3 C 1.256697 -3.540440 -0.452802 0
M  V30 4 C 2.451344 -2.853675 -0.348156 0
M  V30 5 C 2.409725 -1.481881 -0.238769 0
M  V30 6 C 3.564990 -0.570473 -0.112360 0
M  V30 7 C 4.829794 -0.704087 -0.654428 0
M  V30 8 C 5.780978 0.256471 -0.402297 0
M  V30 9 N 5.527443 1.338405 0.363746 0
M  V30 10 C 4.310178 1.552523 0.939328 0
M  V30 11 N 4.042308 2.714202 1.756562 0
M  V30 12 C 2.679223 2.693095 2.237082 0
M  V30 13 C 2.266036 2.169056 3.463557 0
M  V30 14 C 0.917131 2.199602 3.728840 0
M  V30 15 C -0.001767 2.712753 2.853364 0
M  V30 16 N -1.385661 2.703302 3.151152 0
M  V30 17 C -1.991791 2.081853 4.310450 0
M  V30 18 C -2.913794 0.995972 3.735314 0
M  V30 19 O -4.012468 1.667377 3.199558 0
M  V30 20 C -3.549312 2.290538 2.042055 0
M  V30 21 C -2.451581 3.287271 2.381798 0
M  V30 22 C 0.431838 3.222993 1.655604 0
M  V30 23 N 1.759994 3.192218 1.394942 0
M  V30 24 C 3.405149 0.567228 0.654420 0
M  V30 25 C 1.151664 -0.864766 -0.242104 0
M  V30 26 C -0.024842 -1.555009 -0.346740 0
M  V30 27 C 0.013965 -2.948908 -0.456763 0
M  V30 28 C -1.253529 -3.716527 -0.556422 0
M  V30 29 C -1.448831 -4.182724 -1.977440 0
M  V30 30 C -2.742020 -4.972411 -2.078491 0
M  V30 31 C -2.994268 -5.469831 -3.480460 0
M  V30 32 C -3.820360 -4.232115 -3.713800 0
M  V30 33 C -3.971796 -4.130757 -2.197528 0
M  V30 34 H 3.422754 -3.296554 -0.342934 0
M  V30 35 H 4.963099 -1.598582 -1.261713 0
M  V30 36 H 6.759363 0.116555 -0.843589 0
M  V30 37 H 4.846120 3.367706 1.870194 0
M  V30 38 H 3.026121 1.785582 4.100405 0
M  V30 39 H 0.687911 1.779183 4.684501 0
M  V30 40 H -1.270398 1.641679 5.020045 0
M  V30 41 H -2.640320 2.802917 4.826135 0
M  V30 42 H -3.188671 0.243495 4.474282 0
M  V30 43 H -2.322499 0.537702 2.887512 0
M  V30 44 H -4.354947 2.858522 1.542167 0
M  V30 45 H -3.124183 1.499510 1.390920 0
M  V30 46 H -2.945270 4.055991 3.038231 0
M  V30 47 H -2.071382 3.732724 1.463853 0
M  V30 48 H -0.176776 3.653690 0.881060 0
M  V30 49 H 2.425926 0.706898 1.102158 0
M  V30 50 H 0.951293 0.216577 -0.167123 0
M  V30 51 H -1.014443 -1.120494 -0.353062 0
M  V30 52 H -1.200749 -4.546581 0.147153 0
M  V30 53 H -2.121199 -3.058419 -0.312516 0
M  V30 54 H -0.627789 -4.879414 -2.232772 0
M  V30 55 H -1.453625 -3.339702 -2.694297 0
M  V30 56 H -2.767918 -5.743381 -1.285026 0
M  V30 57 H -3.572983 -6.406905 -3.549268 0
M  V30 58 H -2.056319 -5.557372 -4.073568 0
M  V30 59 H -3.317502 -3.363326 -4.162179 0
M  V30 60 H -4.786735 -4.510632 -4.195654 0
M  V30 61 H -3.922379 -3.090850 -1.856748 0
M  V30 62 H -4.895883 -4.628907 -1.793656 0
M  V30 END ATOM
M  V30 BEGIN BOND
M  V30 1 3 1 2
M  V30 2 1 2 3
M  V30 3 2 3 4
M  V30 4 1 4 5
M  V30 5 1 5 6
M  V30 6 2 6 7
M  V30 7 1 7 8
M  V30 8 2 8 9
M  V30 9 1 9 10
M  V30 10 1 10 11
M  V30 11 1 11 12
M  V30 12 2 12 13
M  V30 13 1 13 14
M  V30 14 2 14 15
M  V30 15 1 15 16
M  V30 16 1 16 17
M  V30 17 1 17 18
M  V30 18 1 18 19
M  V30 19 1 19 20
M  V30 20 1 20 21
M  V30 21 1 15 22
M  V30 22 2 22 23
M  V30 23 2 10 24
M  V30 24 2 5 25
M  V30 25 1 25 26
M  V30 26 2 26 27
M  V30 27 1 27 28
M  V30 28 1 28 29
M  V30 29 1 29 30
M  V30 30 1 30 31
M  V30 31 1 31 32
M  V30 32 1 32 33
M  V30 33 1 27 3
M  V30 34 1 33 30
M  V30 35 1 24 6
M  V30 36 1 23 12
M  V30 37 1 21 16
M  V30 38 1 4 34
M  V30 39 1 7 35
M  V30 40 1 8 36
M  V30 41 1 11 37
M  V30 42 1 13 38
M  V30 43 1 14 39
M  V30 44 1 17 40
M  V30 45 1 17 41
M  V30 46 1 18 42
M  V30 47 1 18 43
M  V30 48 1 20 44
M  V30 49 1 20 45
M  V30 50 1 21 46
M  V30 51 1 21 47
M  V30 52 1 22 48
M  V30 53 1 24 49
M  V30 54 1 25 50
M  V30 55 1 26 51
M  V30 56 1 28 52
M  V30 57 1 28 53
M  V30 58 1 29 54
M  V30 59 1 29 55
M  V30 60 1 30 56
M  V30 61 1 31 57
M  V30 62 1 31 58
M  V30 63 1 32 59
M  V30 64 1 32 60
M  V30 65 1 33 61
M  V30 66 1 33 62
M  V30 END BOND
M  V30 END CTAB
M  END
>  <Dataset>  (199) 
ChEMBL_Kinases

>  <Ligand_Instance>  (199) 
nan

>  <PDB_ID>  (199) 
nan

>  <Standardized_SMILES>  (199) 
N#Cc1cc(-c2ccnc(Nc3ccc(N4CCOCC4)cn3)c2)ccc1CCC1CCC1

>  <Name>  (199) 
nan

>  <Pocket>  (199) 
nan

>  <ATP_Site>  (199) 
nan

>  <Peripheral>  (199) 
nan

>  <Num_H_Atoms_ProtBoundConf>  (199) 
nan

>  <Num_Resolved_Atoms>  (199) 
nan

>  <Num_Not_Resolved_Atoms>  (199) 
nan

$$$$
CHEMBL3687144
     RDKit          3D

  0  0  0  0  0  0  0  0  0  0999 V3000
M  V30 BEGIN CTAB
M  V30 COUNTS 65 68 0 0 0
M  V30 BEGIN ATOM
M  V30 1 C 2.903972 -2.283726 -3.233954 0 CHG=-1 VAL=3
M  V30 2 N 2.422391 -2.290765 -2.175970 0 CHG=1 VAL=4
M  V30 3 C 1.858933 -2.296228 -0.903216 0
M  V30 4 C 2.721076 -1.771497 0.068807 0
M  V30 5 C 2.225001 -1.746203 1.355918 0
M  V30 6 C 3.011902 -1.193907 2.482957 0
M  V30 7 C 2.876907 -1.706636 3.781500 0
M  V30 8 C 3.623515 -1.122387 4.789528 0
M  V30 9 N 4.460688 -0.094915 4.566909 0
M  V30 10 C 4.610276 0.422373 3.312518 0
M  V30 11 N 5.392093 1.512958 2.835409 0
M  V30 12 C 4.607332 2.683839 2.519034 0
M  V30 13 C 5.062769 3.937452 2.129986 0
M  V30 14 N 3.996644 4.759806 1.906247 0
M  V30 15 N 2.881380 4.075910 2.139066 0
M  V30 16 C 1.520006 4.629841 2.001056 0
M  V30 17 C 1.017081 4.413475 0.619486 0
M  V30 18 O -0.251008 4.950130 0.489160 0
M  V30 19 C -1.154791 4.365120 1.342530 0
M  V30 20 C 3.236107 2.834351 2.506167 0
M  V30 21 C 3.889147 -0.120224 2.254268 0
M  V30 22 C 0.977758 -2.189982 1.731763 0
M  V30 23 C 0.225614 -2.681132 0.691919 0
M  V30 24 C 0.564257 -2.776775 -0.636705 0
M  V30 25 O -0.013800 -3.208603 -1.732870 0
M  V30 26 C -1.119604 -3.729697 -2.268860 0
M  V30 27 C -2.404011 -2.994602 -2.338559 0
M  V30 28 C -3.052613 -2.518132 -1.114675 0
M  V30 29 C -4.160334 -3.440346 -0.635724 0
M  V30 30 N -5.254546 -3.236630 -1.592758 0
M  V30 31 C -6.615406 -2.785894 -1.514383 0
M  V30 32 C -7.060155 -2.422633 -0.143748 0
M  V30 33 O -7.392238 -2.695237 -2.506248 0
M  V30 34 C -4.810946 -3.575351 -2.906730 0
M  V30 35 C -3.384235 -3.946164 -3.051464 0
M  V30 36 H 3.701964 -1.402929 -0.108872 0
M  V30 37 H 2.196667 -2.533985 3.934640 0
M  V30 38 H 3.532922 -1.498212 5.793887 0
M  V30 39 H 6.416999 1.514710 2.710255 0
M  V30 40 H 6.098342 4.239295 2.017974 0
M  V30 41 H 1.503750 5.716103 2.228687 0
M  V30 42 H 0.918389 4.136293 2.801560 0
M  V30 43 H 1.738934 4.925334 -0.071855 0
M  V30 44 H 1.028623 3.318406 0.427611 0
M  V30 45 H -2.166596 4.845931 1.159218 0
M  V30 46 H -0.974672 4.578859 2.427378 0
M  V30 47 H -1.212020 3.292882 1.129594 0
M  V30 48 H 2.520542 2.065322 2.754908 0
M  V30 49 H 3.919138 0.202042 1.209388 0
M  V30 50 H 0.582277 -2.175612 2.735153 0
M  V30 51 H -0.754541 -3.069669 0.920829 0
M  V30 52 H -0.897234 -4.032306 -3.349162 0
M  V30 53 H -1.341087 -4.744289 -1.805655 0
M  V30 54 H -2.283269 -2.107794 -3.039818 0
M  V30 55 H -2.437866 -2.176549 -0.287063 0
M  V30 56 H -3.628498 -1.564978 -1.407566 0
M  V30 57 H -3.815934 -4.472075 -0.714950 0
M  V30 58 H -4.542321 -3.121913 0.338826 0
M  V30 59 H -8.149421 -2.336035 -0.060310 0
M  V30 60 H -6.670880 -3.197179 0.566359 0
M  V30 61 H -6.524427 -1.477977 0.168650 0
M  V30 62 H -5.036326 -2.794936 -3.676108 0
M  V30 63 H -5.407609 -4.492181 -3.205455 0
M  V30 64 H -3.275090 -4.986328 -2.636010 0
M  V30 65 H -3.132982 -4.015623 -4.125667 0
M  V30 END ATOM
M  V30 BEGIN BOND
M  V30 1 3 1 2
M  V30 2 1 2 3
M  V30 3 2 3 4
M  V30 4 1 4 5
M  V30 5 1 5 6
M  V30 6 2 6 7
M  V30 7 1 7 8
M  V30 8 2 8 9
M  V30 9 1 9 10
M  V30 10 1 10 11
M  V30 11 1 11 12
M  V30 12 1 12 13
M  V30 13 2 13 14
M  V30 14 1 14 15
M  V30 15 1 15 16
M  V30 16 1 16 17
M  V30 17 1 17 18
M  V30 18 1 18 19
M  V30 19 1 15 20
M  V30 20 2 10 21
M  V30 21 2 5 22
M  V30 22 1 22 23
M  V30 23 2 23 24
M  V30 24 1 24 25
M  V30 25 1 25 26
M  V30 26 1 26 27
M  V30 27 1 27 28
M  V30 28 1 28 29
M  V30 29 1 29 30
M  V30 30 1 30 31
M  V30 31 1 31 32
M  V30 32 2 31 33
M  V30 33 1 30 34
M  V30 34 1 34 35
M  V30 35 1 24 3
M  V30 36 1 35 27
M  V30 37 1 21 6
M  V30 38 2 20 12
M  V30 39 1 4 36
M  V30 40 1 7 37
M  V30 41 1 8 38
M  V30 42 1 11 39
M  V30 43 1 13 40
M  V30 44 1 16 41
M  V30 45 1 16 42
M  V30 46 1 17 43
M  V30 47 1 17 44
M  V30 48 1 19 45
M  V30 49 1 19 46
M  V30 50 1 19 47
M  V30 51 1 20 48
M  V30 52 1 21 49
M  V30 53 1 22 50
M  V30 54 1 23 51
M  V30 55 1 26 52
M  V30 56 1 26 53
M  V30 57 1 27 54
M  V30 58 1 28 55
M  V30 59 1 28 56
M  V30 60 1 29 57
M  V30 61 1 29 58
M  V30 62 1 32 59
M  V30 63 1 32 60
M  V30 64 1 32 61
M  V30 65 1 34 62
M  V30 66 1 34 63
M  V30 67 1 35 64
M  V30 68 1 35 65
M  V30 END BOND
M  V30 END CTAB
M  END
>  <Dataset>  (200) 
ChEMBL_Kinases

>  <Ligand_Instance>  (200) 
nan

>  <PDB_ID>  (200) 
nan

>  <Standardized_SMILES>  (200) 
[C-]#[N+]c1cc(-c2ccnc(Nc3cnn(CCOC)c3)c2)ccc1OCC1CCN(C(C)=O)CC1

>  <Name>  (200) 
nan

>  <Pocket>  (200) 
nan

>  <ATP_Site>  (200) 
nan

>  <Peripheral>  (200) 
nan

>  <Num_H_Atoms_ProtBoundConf>  (200) 
nan

>  <Num_Resolved_Atoms>  (200) 
nan

>  <Num_Not_Resolved_Atoms>  (200) 
nan

$$$$
CHEMBL3687145
     RDKit          3D

  0  0  0  0  0  0  0  0  0  0999 V3000
M  V30 BEGIN CTAB
M  V30 COUNTS 61 64 0 0 0
M  V30 BEGIN ATOM
M  V30 1 C 1.277927 -6.312883 1.193676 0 CHG=-1 VAL=3
M  V30 2 N 0.942209 -5.210376 1.150304 0 CHG=1 VAL=4
M  V30 3 C 0.511502 -3.878615 1.093234 0
M  V30 4 C 1.580509 -2.972335 1.055724 0
M  V30 5 C 1.254737 -1.635244 0.998235 0
M  V30 6 C 2.337713 -0.659112 0.957926 0
M  V30 7 C 3.486413 -1.001946 1.625687 0
M  V30 8 C 4.571027 -0.118134 1.631850 0
M  V30 9 N 4.466379 1.054047 0.981007 0
M  V30 10 C 3.347036 1.403824 0.322181 0
M  V30 11 N 3.127186 2.611604 -0.397267 0
M  V30 12 C 2.596716 3.441287 0.632574 0
M  V30 13 C 3.451825 4.222841 1.412833 0
M  V30 14 C 2.949021 5.029743 2.412883 0
M  V30 15 C 1.589102 5.067265 2.647053 0
M  V30 16 C 0.851506 5.862053 3.664564 0
M  V30 17 O 0.527793 7.077346 3.061502 0
M  V30 18 C 0.752910 4.274721 1.851544 0
M  V30 19 N 1.271777 3.484884 0.868826 0
M  V30 20 C 2.252359 0.554692 0.293835 0
M  V30 21 C -0.034962 -1.152071 0.976222 0
M  V30 22 C -1.015567 -2.115459 1.016375 0
M  V30 23 C -0.837084 -3.476813 1.074548 0
M  V30 24 O -1.628075 -4.544575 1.120253 0
M  V30 25 C -2.909397 -4.933883 1.131062 0
M  V30 26 C -3.809102 -4.619280 -0.032486 0
M  V30 27 C -3.232396 -5.232496 -1.259129 0
M  V30 28 C -3.125203 -4.305668 -2.434810 0
M  V30 29 N -2.765200 -2.960913 -2.049556 0
M  V30 30 C -1.580732 -2.221649 -2.369149 0
M  V30 31 C -0.460770 -2.743764 -3.182514 0
M  V30 32 O -1.326646 -1.023156 -2.002261 0
M  V30 33 C -3.812908 -2.383739 -1.245020 0
M  V30 34 C -4.322400 -3.237064 -0.129617 0
M  V30 35 H 2.610309 -3.247385 1.068515 0
M  V30 36 H 3.689551 -1.912481 2.183327 0
M  V30 37 H 5.501081 -0.333541 2.140522 0
M  V30 38 H 3.300310 2.848442 -1.407698 0
M  V30 39 H 4.509200 4.219892 1.260896 0
M  V30 40 H 3.518244 5.667721 3.067657 0
M  V30 41 H -0.005218 5.312972 4.056370 0
M  V30 42 H 1.547720 6.116174 4.512746 0
M  V30 43 H 1.101171 7.809255 3.357470 0
M  V30 44 H -0.324791 4.239730 1.962414 0
M  V30 45 H 1.320718 0.768971 -0.214920 0
M  V30 46 H -0.335298 -0.116719 0.931586 0
M  V30 47 H -2.039551 -1.832590 1.007943 0
M  V30 48 H -3.001058 -6.053845 1.287497 0
M  V30 49 H -3.408923 -4.532396 2.066477 0
M  V30 50 H -4.751143 -5.252180 0.196837 0
M  V30 51 H -3.866264 -6.079872 -1.589111 0
M  V30 52 H -2.231281 -5.683200 -1.062003 0
M  V30 53 H -2.310032 -4.696393 -3.082553 0
M  V30 54 H -4.034573 -4.336608 -3.079727 0
M  V30 55 H -0.527894 -3.798764 -3.450434 0
M  V30 56 H -0.304596 -2.079001 -4.056436 0
M  V30 57 H 0.467461 -2.636078 -2.551427 0
M  V30 58 H -4.643378 -2.101216 -1.943274 0
M  V30 59 H -3.428053 -1.397371 -0.876239 0
M  V30 60 H -5.463493 -3.222968 -0.252255 0
M  V30 61 H -4.203238 -2.676298 0.829164 0
M  V30 END ATOM
M  V30 BEGIN BOND
M  V30 1 3 1 2
M  V30 2 1 2 3
M  V30 3 2 3 4
M  V30 4 1 4 5
M  V30 5 1 5 6
M  V30 6 2 6 7
M  V30 7 1 7 8
M  V30 8 2 8 9
M  V30 9 1 9 10
M  V30 10 1 10 11
M  V30 11 1 11 12
M  V30 12 2 12 13
M  V30 13 1 13 14
M  V30 14 2 14 15
M  V30 15 1 15 16
M  V30 16 1 16 17
M  V30 17 1 15 18
M  V30 18 2 18 19
M  V30 19 2 10 20
M  V30 20 2 5 21
M  V30 21 1 21 22
M  V30 22 2 22 23
M  V30 23 1 23 24
M  V30 24 1 24 25
M  V30 25 1 25 26
M  V30 26 1 26 27
M  V30 27 1 27 28
M  V30 28 1 28 29
M  V30 29 1 29 30
M  V30 30 1 30 31
M  V30 31 2 30 32
M  V30 32 1 29 33
M  V30 33 1 33 34
M  V30 34 1 23 3
M  V30 35 1 34 26
M  V30 36 1 20 6
M  V30 37 1 19 12
M  V30 38 1 4 35
M  V30 39 1 7 36
M  V30 40 1 8 37
M  V30 41 1 11 38
M  V30 42 1 13 39
M  V30 43 1 14 40
M  V30 44 1 16 41
M  V30 45 1 16 42
M  V30 46 1 17 43
M  V30 47 1 18 44
M  V30 48 1 20 45
M  V30 49 1 21 46
M  V30 50 1 22 47
M  V30 51 1 25 48
M  V30 52 1 25 49
M  V30 53 1 26 50
M  V30 54 1 27 51
M  V30 55 1 27 52
M  V30 56 1 28 53
M  V30 57 1 28 54
M  V30 58 1 31 55
M  V30 59 1 31 56
M  V30 60 1 31 57
M  V30 61 1 33 58
M  V30 62 1 33 59
M  V30 63 1 34 60
M  V30 64 1 34 61
M  V30 END BOND
M  V30 END CTAB
M  END
>  <Dataset>  (201) 
ChEMBL_Kinases

>  <Ligand_Instance>  (201) 
nan

>  <PDB_ID>  (201) 
nan

>  <Standardized_SMILES>  (201) 
[C-]#[N+]c1cc(-c2ccnc(Nc3ccc(CO)cn3)c2)ccc1OCC1CCN(C(C)=O)CC1

>  <Name>  (201) 
nan

>  <Pocket>  (201) 
nan

>  <ATP_Site>  (201) 
nan

>  <Peripheral>  (201) 
nan

>  <Num_H_Atoms_ProtBoundConf>  (201) 
nan

>  <Num_Resolved_Atoms>  (201) 
nan

>  <Num_Not_Resolved_Atoms>  (201) 
nan

$$$$
CHEMBL3687146
     RDKit          3D

  0  0  0  0  0  0  0  0  0  0999 V3000
M  V30 BEGIN CTAB
M  V30 COUNTS 70 74 0 0 0
M  V30 BEGIN ATOM
M  V30 1 C 1.360535 -6.636137 2.722498 0 CHG=-1 VAL=3
M  V30 2 N 1.499822 -5.579723 2.273595 0 CHG=1 VAL=4
M  V30 3 C 1.670278 -4.302892 1.704914 0
M  V30 4 C 2.242629 -3.390955 2.605605 0
M  V30 5 C 2.436334 -2.113133 2.100375 0
M  V30 6 C 3.037753 -1.154091 3.016406 0
M  V30 7 C 3.937285 -1.635694 3.939589 0
M  V30 8 C 4.497559 -0.724332 4.804916 0
M  V30 9 N 4.217519 0.581875 4.794553 0
M  V30 10 C 3.338758 1.102951 3.905277 0
M  V30 11 N 3.081919 2.485991 3.921055 0
M  V30 12 C 2.174811 3.340482 3.250914 0
M  V30 13 C 2.277944 4.691634 2.975069 0
M  V30 14 N 1.158273 5.065397 2.343191 0
M  V30 15 N 0.316960 4.075583 2.174869 0
M  V30 16 C -0.972791 4.183324 1.531151 0
M  V30 17 C -1.722910 5.414264 1.989863 0
M  V30 18 C -3.115999 5.279170 1.358014 0
M  V30 19 N -2.960294 5.434469 -0.054918 0
M  V30 20 C -2.077520 4.510371 -0.693326 0
M  V30 21 C -0.779033 4.309427 0.054744 0
M  V30 22 C 0.937495 3.016720 2.730532 0
M  V30 23 C 2.774150 0.197522 3.035973 0
M  V30 24 C 2.116597 -1.693103 0.821915 0
M  V30 25 C 1.563842 -2.692808 0.050196 0
M  V30 26 C 1.305039 -3.988604 0.381885 0
M  V30 27 O 0.799923 -5.023957 -0.222278 0
M  V30 28 C 0.263737 -5.578344 -1.309358 0
M  V30 29 C -1.040997 -5.027371 -1.856938 0
M  V30 30 C -1.339854 -5.925111 -3.077367 0
M  V30 31 C -2.684341 -5.564971 -3.670072 0
M  V30 32 N -2.911615 -4.156610 -3.460112 0
M  V30 33 C -4.249736 -3.742464 -3.276781 0
M  V30 34 C -4.500215 -2.278461 -3.058969 0
M  V30 35 O -5.175842 -4.599161 -3.301066 0
M  V30 36 C -1.805132 -3.244431 -3.444097 0
M  V30 37 C -0.887420 -3.598199 -2.316411 0
M  V30 38 H 2.519490 -3.627448 3.603574 0
M  V30 39 H 4.254074 -2.656856 4.060357 0
M  V30 40 H 5.211201 -1.029048 5.556967 0
M  V30 41 H 3.690068 3.058315 4.581036 0
M  V30 42 H 3.127820 5.310555 3.236749 0
M  V30 43 H -1.594142 3.297559 1.770217 0
M  V30 44 H -1.802644 5.510640 3.077932 0
M  V30 45 H -1.227078 6.319693 1.539731 0
M  V30 46 H -3.744147 6.115453 1.714693 0
M  V30 47 H -3.532950 4.306250 1.680496 0
M  V30 48 H -3.919546 5.296889 -0.491954 0
M  V30 49 H -2.551683 3.513688 -0.889919 0
M  V30 50 H -1.815738 4.925132 -1.689177 0
M  V30 51 H -0.329768 3.366420 -0.319944 0
M  V30 52 H -0.055543 5.133397 -0.124970 0
M  V30 53 H 0.401597 2.076723 2.706647 0
M  V30 54 H 2.080500 0.522038 2.298172 0
M  V30 55 H 2.274375 -0.708248 0.460906 0
M  V30 56 H 1.302877 -2.421323 -0.956594 0
M  V30 57 H 0.953867 -5.723501 -2.187382 0
M  V30 58 H 0.007510 -6.662357 -1.048767 0
M  V30 59 H -1.870574 -5.190665 -1.147704 0
M  V30 60 H -0.508578 -5.862998 -3.785048 0
M  V30 61 H -1.391596 -6.949766 -2.683987 0
M  V30 62 H -2.555446 -5.706626 -4.780114 0
M  V30 63 H -3.506946 -6.215866 -3.355005 0
M  V30 64 H -4.016582 -1.697586 -3.869574 0
M  V30 65 H -4.022610 -1.944262 -2.113724 0
M  V30 66 H -5.583330 -2.061577 -2.992349 0
M  V30 67 H -2.102019 -2.192922 -3.343553 0
M  V30 68 H -1.272324 -3.308115 -4.434322 0
M  V30 69 H -1.081685 -2.937877 -1.473279 0
M  V30 70 H 0.157854 -3.528667 -2.727011 0
M  V30 END ATOM
M  V30 BEGIN BOND
M  V30 1 3 1 2
M  V30 2 1 2 3
M  V30 3 2 3 4
M  V30 4 1 4 5
M  V30 5 1 5 6
M  V30 6 2 6 7
M  V30 7 1 7 8
M  V30 8 2 8 9
M  V30 9 1 9 10
M  V30 10 1 10 11
M  V30 11 1 11 12
M  V30 12 1 12 13
M  V30 13 2 13 14
M  V30 14 1 14 15
M  V30 15 1 15 16
M  V30 16 1 16 17
M  V30 17 1 17 18
M  V30 18 1 18 19
M  V30 19 1 19 20
M  V30 20 1 20 21
M  V30 21 1 15 22
M  V30 22 2 10 23
M  V30 23 2 5 24
M  V30 24 1 24 25
M  V30 25 2 25 26
M  V30 26 1 26 27
M  V30 27 1 27 28
M  V30 28 1 28 29
M  V30 29 1 29 30
M  V30 30 1 30 31
M  V30 31 1 31 32
M  V30 32 1 32 33
M  V30 33 1 33 34
M  V30 34 2 33 35
M  V30 35 1 32 36
M  V30 36 1 36 37
M  V30 37 1 26 3
M  V30 38 1 37 29
M  V30 39 1 23 6
M  V30 40 2 22 12
M  V30 41 1 21 16
M  V30 42 1 4 38
M  V30 43 1 7 39
M  V30 44 1 8 40
M  V30 45 1 11 41
M  V30 46 1 13 42
M  V30 47 1 16 43
M  V30 48 1 17 44
M  V30 49 1 17 45
M  V30 50 1 18 46
M  V30 51 1 18 47
M  V30 52 1 19 48
M  V30 53 1 20 49
M  V30 54 1 20 50
M  V30 55 1 21 51
M  V30 56 1 21 52
M  V30 57 1 22 53
M  V30 58 1 23 54
M  V30 59 1 24 55
M  V30 60 1 25 56
M  V30 61 1 28 57
M  V30 62 1 28 58
M  V30 63 1 29 59
M  V30 64 1 30 60
M  V30 65 1 30 61
M  V30 66 1 31 62
M  V30 67 1 31 63
M  V30 68 1 34 64
M  V30 69 1 34 65
M  V30 70 1 34 66
M  V30 71 1 36 67
M  V30 72 1 36 68
M  V30 73 1 37 69
M  V30 74 1 37 70
M  V30 END BOND
M  V30 END CTAB
M  END
>  <Dataset>  (202) 
ChEMBL_Kinases

>  <Ligand_Instance>  (202) 
nan

>  <PDB_ID>  (202) 
nan

>  <Standardized_SMILES>  (202) 
[C-]#[N+]c1cc(-c2ccnc(Nc3cnn(C4CCNCC4)c3)c2)ccc1OCC1CCN(C(C)=O)CC1

>  <Name>  (202) 
nan

>  <Pocket>  (202) 
nan

>  <ATP_Site>  (202) 
nan

>  <Peripheral>  (202) 
nan

>  <Num_H_Atoms_ProtBoundConf>  (202) 
nan

>  <Num_Resolved_Atoms>  (202) 
nan

>  <Num_Not_Resolved_Atoms>  (202) 
nan

$$$$
CHEMBL3687147
     RDKit          3D

  0  0  0  0  0  0  0  0  0  0999 V3000
M  V30 BEGIN CTAB
M  V30 COUNTS 70 74 0 0 0
M  V30 BEGIN ATOM
M  V30 1 C 2.106075 -5.105262 4.848098 0 CHG=-1 VAL=3
M  V30 2 N 2.013974 -4.293619 4.031098 0 CHG=1 VAL=4
M  V30 3 C 1.884062 -3.313885 3.059775 0
M  V30 4 C 2.703771 -3.556110 1.944381 0
M  V30 5 C 2.665012 -2.651451 0.906340 0
M  V30 6 C 3.498566 -2.824206 -0.286091 0
M  V30 7 C 4.760441 -3.414407 -0.247120 0
M  V30 8 C 5.474060 -3.533460 -1.423238 0
M  V30 9 N 4.998663 -3.101802 -2.609081 0
M  V30 10 C 3.785610 -2.527274 -2.689940 0
M  V30 11 N 3.248300 -2.054322 -3.943199 0
M  V30 12 C 1.957793 -1.486379 -4.082025 0
M  V30 13 C 1.487713 -0.194339 -3.981041 0
M  V30 14 C 0.145302 0.062337 -4.171560 0
M  V30 15 C -0.760190 -0.935821 -4.463676 0
M  V30 16 N -2.117054 -0.548211 -4.636184 0
M  V30 17 C -2.470681 0.834241 -4.480651 0
M  V30 18 C -3.887386 1.012148 -4.980432 0
M  V30 19 O -4.044172 0.459894 -6.258923 0
M  V30 20 C -3.822788 -0.897257 -6.270332 0
M  V30 21 C -3.224623 -1.417332 -4.962827 0
M  V30 22 C -0.255400 -2.215924 -4.557190 0
M  V30 23 N 1.057514 -2.474905 -4.371747 0
M  V30 24 C 3.044767 -2.391437 -1.534749 0
M  V30 25 C 1.869069 -1.527055 0.902035 0
M  V30 26 C 1.103037 -1.373580 2.033025 0
M  V30 27 C 1.039257 -2.187004 3.138544 0
M  V30 28 O 0.386673 -2.223316 4.301661 0
M  V30 29 C -0.511666 -1.499667 5.007764 0
M  V30 30 C -0.195037 -0.152353 5.521541 0
M  V30 31 C -1.456192 0.339650 6.257380 0
M  V30 32 C -1.674540 1.812069 6.107525 0
M  V30 33 N -1.839663 2.127700 4.691270 0
M  V30 34 C -2.733082 3.071594 4.158829 0
M  V30 35 C -3.656357 3.904781 4.935492 0
M  V30 36 O -2.837063 3.307993 2.915035 0
M  V30 37 C -0.990856 1.389439 3.737393 0
M  V30 38 C 0.185528 0.913211 4.576053 0
M  V30 39 H 3.365327 -4.394915 1.830647 0
M  V30 40 H 5.142477 -3.762701 0.706443 0
M  V30 41 H 6.459080 -3.989062 -1.414535 0
M  V30 42 H 3.853572 -2.139414 -4.792957 0
M  V30 43 H 2.282053 0.483385 -3.752201 0
M  V30 44 H -0.078195 1.129468 -4.059581 0
M  V30 45 H -2.505002 1.110044 -3.390715 0
M  V30 46 H -1.816772 1.526427 -5.048778 0
M  V30 47 H -4.173730 2.082777 -5.038534 0
M  V30 48 H -4.623554 0.479112 -4.338364 0
M  V30 49 H -4.741665 -1.489179 -6.507132 0
M  V30 50 H -3.091933 -1.168801 -7.066773 0
M  V30 51 H -3.983056 -1.443094 -4.156174 0
M  V30 52 H -2.861417 -2.424600 -5.159222 0
M  V30 53 H -0.966292 -3.007222 -4.788346 0
M  V30 54 H 2.071581 -1.936530 -1.561741 0
M  V30 55 H 1.779019 -0.776970 0.141239 0
M  V30 56 H 0.433764 -0.532973 2.115165 0
M  V30 57 H -0.996760 -2.078132 5.850567 0
M  V30 58 H -1.421665 -1.354044 4.315692 0
M  V30 59 H 0.629963 -0.282932 6.289803 0
M  V30 60 H -2.320931 -0.184722 5.822385 0
M  V30 61 H -1.380768 0.019410 7.304862 0
M  V30 62 H -0.859188 2.367081 6.591105 0
M  V30 63 H -2.608563 2.048691 6.663691 0
M  V30 64 H -4.715624 3.837880 4.621140 0
M  V30 65 H -3.550601 3.744326 6.042428 0
M  V30 66 H -3.378257 4.988584 4.806912 0
M  V30 67 H -1.578121 0.569717 3.315843 0
M  V30 68 H -0.580150 2.084273 2.968107 0
M  V30 69 H 0.483194 1.834903 5.184809 0
M  V30 70 H 1.075547 0.690213 3.999487 0
M  V30 END ATOM
M  V30 BEGIN BOND
M  V30 1 3 1 2
M  V30 2 1 2 3
M  V30 3 2 3 4
M  V30 4 1 4 5
M  V30 5 1 5 6
M  V30 6 2 6 7
M  V30 7 1 7 8
M  V30 8 2 8 9
M  V30 9 1 9 10
M  V30 10 1 10 11
M  V30 11 1 11 12
M  V30 12 2 12 13
M  V30 13 1 13 14
M  V30 14 2 14 15
M  V30 15 1 15 16
M  V30 16 1 16 17
M  V30 17 1 17 18
M  V30 18 1 18 19
M  V30 19 1 19 20
M  V30 20 1 20 21
M  V30 21 1 15 22
M  V30 22 2 22 23
M  V30 23 2 10 24
M  V30 24 2 5 25
M  V30 25 1 25 26
M  V30 26 2 26 27
M  V30 27 1 27 28
M  V30 28 1 28 29
M  V30 29 1 29 30
M  V30 30 1 30 31
M  V30 31 1 31 32
M  V30 32 1 32 33
M  V30 33 1 33 34
M  V30 34 1 34 35
M  V30 35 2 34 36
M  V30 36 1 33 37
M  V30 37 1 37 38
M  V30 38 1 27 3
M  V30 39 1 38 30
M  V30 40 1 24 6
M  V30 41 1 23 12
M  V30 42 1 21 16
M  V30 43 1 4 39
M  V30 44 1 7 40
M  V30 45 1 8 41
M  V30 46 1 11 42
M  V30 47 1 13 43
M  V30 48 1 14 44
M  V30 49 1 17 45
M  V30 50 1 17 46
M  V30 51 1 18 47
M  V30 52 1 18 48
M  V30 53 1 20 49
M  V30 54 1 20 50
M  V30 55 1 21 51
M  V30 56 1 21 52
M  V30 57 1 22 53
M  V30 58 1 24 54
M  V30 59 1 25 55
M  V30 60 1 26 56
M  V30 61 1 29 57
M  V30 62 1 29 58
M  V30 63 1 30 59
M  V30 64 1 31 60
M  V30 65 1 31 61
M  V30 66 1 32 62
M  V30 67 1 32 63
M  V30 68 1 35 64
M  V30 69 1 35 65
M  V30 70 1 35 66
M  V30 71 1 37 67
M  V30 72 1 37 68
M  V30 73 1 38 69
M  V30 74 1 38 70
M  V30 END BOND
M  V30 END CTAB
M  END
>  <Dataset>  (203) 
ChEMBL_Kinases

>  <Ligand_Instance>  (203) 
nan

>  <PDB_ID>  (203) 
nan

>  <Standardized_SMILES>  (203) 
[C-]#[N+]c1cc(-c2ccnc(Nc3ccc(N4CCOCC4)cn3)c2)ccc1OCC1CCN(C(C)=O)CC1

>  <Name>  (203) 
nan

>  <Pocket>  (203) 
nan

>  <ATP_Site>  (203) 
nan

>  <Peripheral>  (203) 
nan

>  <Num_H_Atoms_ProtBoundConf>  (203) 
nan

>  <Num_Resolved_Atoms>  (203) 
nan

>  <Num_Not_Resolved_Atoms>  (203) 
nan

$$$$
CHEMBL3687148
     RDKit          3D

  0  0  0  0  0  0  0  0  0  0999 V3000
M  V30 BEGIN CTAB
M  V30 COUNTS 64 68 0 0 0
M  V30 BEGIN ATOM
M  V30 1 C 2.544231 1.088181 3.904088 0
M  V30 2 N 2.195056 2.491914 3.819537 0
M  V30 3 C 3.376760 3.331674 3.890275 0
M  V30 4 C 4.151737 3.263367 2.614083 0
M  V30 5 C 3.366420 3.746088 1.414650 0
M  V30 6 N 3.645922 2.872194 0.277138 0
M  V30 7 C 3.546381 1.510106 0.252778 0
M  V30 8 C 3.894095 1.020852 -0.994119 0
M  V30 9 N 3.916340 -0.338560 -1.419462 0
M  V30 10 C 3.439529 -1.325229 -0.495322 0
M  V30 11 C 2.076318 -1.548490 -0.732964 0
M  V30 12 C 1.370727 -2.475092 0.046725 0
M  V30 13 C -0.050126 -2.742920 -0.170158 0
M  V30 14 C -0.927353 -1.779744 -0.621736 0
M  V30 15 C -2.266043 -2.034954 -0.828742 0
M  V30 16 C -2.800643 -3.283792 -0.590770 0
M  V30 17 O -4.084041 -3.777359 -0.720202 0
M  V30 18 C -5.179865 -3.012580 -1.165841 0
M  V30 19 C -5.744224 -3.554672 -2.460968 0
M  V30 20 C -7.121368 -3.080428 -2.776427 0
M  V30 21 O -7.982634 -3.196405 -1.694872 0
M  V30 22 C -7.568665 -2.439988 -0.622664 0
M  V30 23 C -6.234997 -2.899670 -0.072930 0
M  V30 24 C -1.926647 -4.279795 -0.130283 0
M  V30 25 C -2.318978 -5.635642 0.167310 0
M  V30 26 N -2.638143 -6.701440 0.415533 0
M  V30 27 C -0.572072 -3.996867 0.072190 0
M  V30 28 C 1.991377 -3.184266 1.057626 0
M  V30 29 C 3.340450 -2.881315 1.201399 0
M  V30 30 N 4.073472 -2.000441 0.482291 0
M  V30 31 C 4.211070 2.148542 -1.731742 0
M  V30 32 N 4.042511 3.188251 -0.923719 0
M  V30 33 C 1.925457 3.831007 1.778817 0
M  V30 34 C 1.409361 2.734456 2.653133 0
M  V30 35 H 2.047532 0.489244 3.091327 0
M  V30 36 H 3.652279 0.911092 3.846497 0
M  V30 37 H 2.213259 0.616324 4.852563 0
M  V30 38 H 3.086440 4.377245 4.129711 0
M  V30 39 H 4.061465 2.988742 4.697491 0
M  V30 40 H 4.421238 2.183874 2.449242 0
M  V30 41 H 5.055093 3.899237 2.692845 0
M  V30 42 H 3.710594 4.766246 1.101569 0
M  V30 43 H 3.250645 0.860296 1.046582 0
M  V30 44 H 4.278740 -0.535895 -2.380032 0
M  V30 45 H 1.451200 -1.077198 -1.480283 0
M  V30 46 H -0.584812 -0.784728 -0.828862 0
M  V30 47 H -2.990869 -1.330598 -1.176660 0
M  V30 48 H -4.884911 -1.968526 -1.386611 0
M  V30 49 H -5.655550 -4.658496 -2.452599 0
M  V30 50 H -5.082681 -3.205362 -3.301830 0
M  V30 51 H -7.535944 -3.745322 -3.574933 0
M  V30 52 H -7.146930 -2.046586 -3.176144 0
M  V30 53 H -7.555503 -1.358990 -0.833435 0
M  V30 54 H -8.307645 -2.588895 0.201156 0
M  V30 55 H -6.319527 -3.901593 0.393206 0
M  V30 56 H -5.863315 -2.202098 0.703305 0
M  V30 57 H 0.133637 -4.747340 0.429000 0
M  V30 58 H 1.509844 -3.895251 1.677404 0
M  V30 59 H 3.909733 -3.403132 1.985657 0
M  V30 60 H 4.528657 2.137610 -2.760240 0
M  V30 61 H 1.253677 3.975577 0.914013 0
M  V30 62 H 1.808942 4.782057 2.377445 0
M  V30 63 H 1.312717 1.796412 2.081984 0
M  V30 64 H 0.351045 3.023692 2.919693 0
M  V30 END ATOM
M  V30 BEGIN BOND
M  V30 1 1 1 2
M  V30 2 1 2 3
M  V30 3 1 3 4
M  V30 4 1 4 5
M  V30 5 1 5 6
M  V30 6 1 6 7
M  V30 7 2 7 8
M  V30 8 1 8 9
M  V30 9 1 9 10
M  V30 10 2 10 11
M  V30 11 1 11 12
M  V30 12 1 12 13
M  V30 13 2 13 14
M  V30 14 1 14 15
M  V30 15 2 15 16
M  V30 16 1 16 17
M  V30 17 1 17 18
M  V30 18 1 18 19
M  V30 19 1 19 20
M  V30 20 1 20 21
M  V30 21 1 21 22
M  V30 22 1 22 23
M  V30 23 1 16 24
M  V30 24 1 24 25
M  V30 25 3 25 26
M  V30 26 2 24 27
M  V30 27 2 12 28
M  V30 28 1 28 29
M  V30 29 2 29 30
M  V30 30 1 8 31
M  V30 31 2 31 32
M  V30 32 1 5 33
M  V30 33 1 33 34
M  V30 34 1 34 2
M  V30 35 1 32 6
M  V30 36 1 30 10
M  V30 37 1 27 13
M  V30 38 1 23 18
M  V30 39 1 1 35
M  V30 40 1 1 36
M  V30 41 1 1 37
M  V30 42 1 3 38
M  V30 43 1 3 39
M  V30 44 1 4 40
M  V30 45 1 4 41
M  V30 46 1 5 42
M  V30 47 1 7 43
M  V30 48 1 9 44
M  V30 49 1 11 45
M  V30 50 1 14 46
M  V30 51 1 15 47
M  V30 52 1 18 48
M  V30 53 1 19 49
M  V30 54 1 19 50
M  V30 55 1 20 51
M  V30 56 1 20 52
M  V30 57 1 22 53
M  V30 58 1 22 54
M  V30 59 1 23 55
M  V30 60 1 23 56
M  V30 61 1 27 57
M  V30 62 1 28 58
M  V30 63 1 29 59
M  V30 64 1 31 60
M  V30 65 1 33 61
M  V30 66 1 33 62
M  V30 67 1 34 63
M  V30 68 1 34 64
M  V30 END BOND
M  V30 END CTAB
M  END
>  <Dataset>  (204) 
ChEMBL_Kinases

>  <Ligand_Instance>  (204) 
nan

>  <PDB_ID>  (204) 
nan

>  <Standardized_SMILES>  (204) 
CN1CCC(n2cc(Nc3cc(-c4ccc(OC5CCOCC5)c(C#N)c4)ccn3)cn2)CC1

>  <Name>  (204) 
nan

>  <Pocket>  (204) 
nan

>  <ATP_Site>  (204) 
nan

>  <Peripheral>  (204) 
nan

>  <Num_H_Atoms_ProtBoundConf>  (204) 
nan

>  <Num_Resolved_Atoms>  (204) 
nan

>  <Num_Not_Resolved_Atoms>  (204) 
nan

$$$$
CHEMBL3687149
     RDKit          3D

  0  0  0  0  0  0  0  0  0  0999 V3000
M  V30 BEGIN CTAB
M  V30 COUNTS 48 51 0 0 0
M  V30 BEGIN ATOM
M  V30 1 C 1.100657 -6.949731 1.841245 0
M  V30 2 C 0.854591 -6.763653 0.370650 0
M  V30 3 C 0.376655 -5.632166 -0.239810 0
M  V30 4 C 0.261778 -5.781514 -1.604602 0
M  V30 5 N -0.142123 -4.972607 -2.683188 0
M  V30 6 C -0.492551 -3.612637 -2.833133 0
M  V30 7 C -0.372112 -2.640220 -1.855400 0
M  V30 8 C -0.726004 -1.312888 -1.964521 0
M  V30 9 C -0.559288 -0.356828 -0.878270 0
M  V30 10 C 0.487323 -0.500294 0.010133 0
M  V30 11 C 0.598187 0.453850 1.034605 0
M  V30 12 C -0.306877 1.520478 1.170214 0
M  V30 13 O 0.044775 2.255828 2.218585 0
M  V30 14 C -0.344126 3.345999 2.914108 0
M  V30 15 C 0.606657 4.551949 2.727103 0
M  V30 16 C 1.845835 4.397102 3.558422 0
M  V30 17 O 1.933454 3.109918 4.053871 0
M  V30 18 C 0.956396 2.901965 5.005605 0
M  V30 19 C -0.417995 3.174537 4.417463 0
M  V30 20 C -1.307363 1.562184 0.229392 0
M  V30 21 C -2.218529 2.639637 0.359842 0
M  V30 22 N -2.961762 3.509155 0.448635 0
M  V30 23 C -1.488440 0.668768 -0.805211 0
M  V30 24 C -1.255809 -0.913324 -3.176122 0
M  V30 25 C -1.367370 -1.889754 -4.133550 0
M  V30 26 N -1.005085 -3.149926 -3.957981 0
M  V30 27 N 0.693515 -7.045339 -1.762369 0
M  V30 28 O 1.017551 -7.564517 -0.628606 0
M  V30 29 H 2.126035 -6.600140 2.085153 0
M  V30 30 H 0.417277 -6.232657 2.351631 0
M  V30 31 H 0.958872 -7.976380 2.174284 0
M  V30 32 H 0.127531 -4.765888 0.322270 0
M  V30 33 H -0.201018 -5.493094 -3.612387 0
M  V30 34 H 0.043524 -2.875567 -0.889730 0
M  V30 35 H 1.153029 -1.333244 -0.138821 0
M  V30 36 H 1.473498 0.210933 1.659862 0
M  V30 37 H -1.320980 3.733884 2.574331 0
M  V30 38 H 0.773276 4.747967 1.667118 0
M  V30 39 H 0.053187 5.415449 3.155260 0
M  V30 40 H 2.785270 4.656258 2.995060 0
M  V30 41 H 1.852898 5.060131 4.458880 0
M  V30 42 H 1.048092 1.824546 5.305694 0
M  V30 43 H 1.184770 3.550029 5.893357 0
M  V30 44 H -1.160397 2.428546 4.750431 0
M  V30 45 H -0.744497 4.154384 4.820136 0
M  V30 46 H -2.299448 0.799175 -1.476927 0
M  V30 47 H -1.555019 0.112499 -3.328881 0
M  V30 48 H -1.783815 -1.590014 -5.109104 0
M  V30 END ATOM
M  V30 BEGIN BOND
M  V30 1 1 1 2
M  V30 2 2 2 3
M  V30 3 1 3 4
M  V30 4 1 4 5
M  V30 5 1 5 6
M  V30 6 2 6 7
M  V30 7 1 7 8
M  V30 8 1 8 9
M  V30 9 2 9 10
M  V30 10 1 10 11
M  V30 11 2 11 12
M  V30 12 1 12 13
M  V30 13 1 13 14
M  V30 14 1 14 15
M  V30 15 1 15 16
M  V30 16 1 16 17
M  V30 17 1 17 18
M  V30 18 1 18 19
M  V30 19 1 12 20
M  V30 20 1 20 21
M  V30 21 3 21 22
M  V30 22 2 20 23
M  V30 23 2 8 24
M  V30 24 1 24 25
M  V30 25 2 25 26
M  V30 26 2 4 27
M  V30 27 1 27 28
M  V30 28 1 28 2
M  V30 29 1 26 6
M  V30 30 1 23 9
M  V30 31 1 19 14
M  V30 32 1 1 29
M  V30 33 1 1 30
M  V30 34 1 1 31
M  V30 35 1 3 32
M  V30 36 1 5 33
M  V30 37 1 7 34
M  V30 38 1 10 35
M  V30 39 1 11 36
M  V30 40 1 14 37
M  V30 41 1 15 38
M  V30 42 1 15 39
M  V30 43 1 16 40
M  V30 44 1 16 41
M  V30 45 1 18 42
M  V30 46 1 18 43
M  V30 47 1 19 44
M  V30 48 1 19 45
M  V30 49 1 23 46
M  V30 50 1 24 47
M  V30 51 1 25 48
M  V30 END BOND
M  V30 END CTAB
M  END
>  <Dataset>  (205) 
ChEMBL_Kinases

>  <Ligand_Instance>  (205) 
nan

>  <PDB_ID>  (205) 
nan

>  <Standardized_SMILES>  (205) 
Cc1cc(Nc2cc(-c3ccc(OC4CCOCC4)c(C#N)c3)ccn2)no1

>  <Name>  (205) 
nan

>  <Pocket>  (205) 
nan

>  <ATP_Site>  (205) 
nan

>  <Peripheral>  (205) 
nan

>  <Num_H_Atoms_ProtBoundConf>  (205) 
nan

>  <Num_Resolved_Atoms>  (205) 
nan

>  <Num_Not_Resolved_Atoms>  (205) 
nan

$$$$
CHEMBL3687159
     RDKit          3D

  0  0  0  0  0  0  0  0  0  0999 V3000
M  V30 BEGIN CTAB
M  V30 COUNTS 61 65 0 0 0
M  V30 BEGIN ATOM
M  V30 1 N -2.991034 -1.548695 0.505400 0
M  V30 2 C -1.981709 -2.027455 0.281431 0
M  V30 3 C -0.704117 -2.620929 0.004450 0
M  V30 4 C 0.369805 -2.178285 0.782896 0
M  V30 5 C 1.644406 -2.657893 0.629432 0
M  V30 6 C 2.728760 -2.157320 1.471852 0
M  V30 7 C 3.778709 -2.985890 1.804835 0
M  V30 8 C 4.740359 -2.436946 2.589377 0
M  V30 9 N 4.734641 -1.186282 3.045002 0
M  V30 10 C 3.735493 -0.328046 2.754035 0
M  V30 11 N 3.752984 1.004989 3.233311 0
M  V30 12 C 2.831784 2.072461 3.187247 0
M  V30 13 C 3.113496 3.424688 3.250689 0
M  V30 14 N 1.959049 4.081587 3.193592 0
M  V30 15 N 0.931575 3.281648 3.097448 0
M  V30 16 C -0.448783 3.748893 3.020364 0
M  V30 17 C -1.360898 2.657616 2.511317 0
M  V30 18 C -1.162249 2.386032 1.049089 0
M  V30 19 N -1.116833 3.566458 0.224572 0
M  V30 20 C -1.569170 4.708349 0.991134 0
M  V30 21 C -0.619460 4.959751 2.165751 0
M  V30 22 C 1.458994 2.045612 3.093325 0
M  V30 23 C 2.750231 -0.867344 1.958024 0
M  V30 24 C 1.843135 -3.610919 -0.335978 0
M  V30 25 C 0.807411 -4.069088 -1.120469 0
M  V30 26 C -0.480984 -3.596877 -0.978734 0
M  V30 27 O -1.628842 -3.914680 -1.644168 0
M  V30 28 C -1.799955 -4.844261 -2.683577 0
M  V30 29 C -2.182134 -4.184440 -3.980610 0
M  V30 30 C -3.627474 -4.248828 -4.307781 0
M  V30 31 O -4.241150 -5.443541 -3.963609 0
M  V30 32 C -4.172144 -5.675957 -2.591796 0
M  V30 33 C -2.726521 -5.973713 -2.305584 0
M  V30 34 H 0.226435 -1.415191 1.560326 0
M  V30 35 H 3.834217 -4.007463 1.464477 0
M  V30 36 H 5.610013 -3.035239 2.897760 0
M  V30 37 H 4.654647 1.266224 3.742612 0
M  V30 38 H 4.087882 3.881216 3.332114 0
M  V30 39 H -0.755154 3.961154 4.068154 0
M  V30 40 H -1.183940 1.723134 3.096991 0
M  V30 41 H -2.413831 2.988103 2.693019 0
M  V30 42 H -0.212769 1.796129 0.932103 0
M  V30 43 H -1.960821 1.717599 0.645821 0
M  V30 44 H -0.161719 3.781302 -0.140029 0
M  V30 45 H -1.563788 5.632966 0.360041 0
M  V30 46 H -2.577513 4.523149 1.374102 0
M  V30 47 H -1.121595 5.751769 2.766625 0
M  V30 48 H 0.334314 5.407312 1.812532 0
M  V30 49 H 0.786267 1.211336 3.029723 0
M  V30 50 H 1.912993 -0.275075 1.654580 0
M  V30 51 H 2.837666 -4.033918 -0.508771 0
M  V30 52 H 0.906841 -4.807004 -1.883632 0
M  V30 53 H -0.802259 -5.298073 -2.863014 0
M  V30 54 H -1.879512 -3.117344 -3.925075 0
M  V30 55 H -1.598191 -4.603321 -4.852785 0
M  V30 56 H -3.771650 -4.122032 -5.401682 0
M  V30 57 H -4.237642 -3.434283 -3.827355 0
M  V30 58 H -4.595194 -4.845929 -1.997279 0
M  V30 59 H -4.757211 -6.571806 -2.345115 0
M  V30 60 H -2.455130 -6.856304 -2.924449 0
M  V30 61 H -2.538546 -6.259724 -1.258632 0
M  V30 END ATOM
M  V30 BEGIN BOND
M  V30 1 3 1 2
M  V30 2 1 2 3
M  V30 3 2 3 4
M  V30 4 1 4 5
M  V30 5 1 5 6
M  V30 6 2 6 7
M  V30 7 1 7 8
M  V30 8 2 8 9
M  V30 9 1 9 10
M  V30 10 1 10 11
M  V30 11 1 11 12
M  V30 12 1 12 13
M  V30 13 2 13 14
M  V30 14 1 14 15
M  V30 15 1 15 16
M  V30 16 1 16 17
M  V30 17 1 17 18
M  V30 18 1 18 19
M  V30 19 1 19 20
M  V30 20 1 20 21
M  V30 21 1 15 22
M  V30 22 2 10 23
M  V30 23 2 5 24
M  V30 24 1 24 25
M  V30 25 2 25 26
M  V30 26 1 26 27
M  V30 27 1 27 28
M  V30 28 1 28 29
M  V30 29 1 29 30
M  V30 30 1 30 31
M  V30 31 1 31 32
M  V30 32 1 32 33
M  V30 33 1 26 3
M  V30 34 1 33 28
M  V30 35 1 23 6
M  V30 36 2 22 12
M  V30 37 1 21 16
M  V30 38 1 4 34
M  V30 39 1 7 35
M  V30 40 1 8 36
M  V30 41 1 11 37
M  V30 42 1 13 38
M  V30 43 1 16 39
M  V30 44 1 17 40
M  V30 45 1 17 41
M  V30 46 1 18 42
M  V30 47 1 18 43
M  V30 48 1 19 44
M  V30 49 1 20 45
M  V30 50 1 20 46
M  V30 51 1 21 47
M  V30 52 1 21 48
M  V30 53 1 22 49
M  V30 54 1 23 50
M  V30 55 1 24 51
M  V30 56 1 25 52
M  V30 57 1 28 53
M  V30 58 1 29 54
M  V30 59 1 29 55
M  V30 60 1 30 56
M  V30 61 1 30 57
M  V30 62 1 32 58
M  V30 63 1 32 59
M  V30 64 1 33 60
M  V30 65 1 33 61
M  V30 END BOND
M  V30 END CTAB
M  END
>  <Dataset>  (206) 
ChEMBL_Kinases

>  <Ligand_Instance>  (206) 
nan

>  <PDB_ID>  (206) 
nan

>  <Standardized_SMILES>  (206) 
N#Cc1cc(-c2ccnc(Nc3cnn(C4CCNCC4)c3)c2)ccc1OC1CCOCC1

>  <Name>  (206) 
nan

>  <Pocket>  (206) 
nan

>  <ATP_Site>  (206) 
nan

>  <Peripheral>  (206) 
nan

>  <Num_H_Atoms_ProtBoundConf>  (206) 
nan

>  <Num_Resolved_Atoms>  (206) 
nan

>  <Num_Not_Resolved_Atoms>  (206) 
nan

$$$$
CHEMBL3687151
     RDKit          3D

  0  0  0  0  0  0  0  0  0  0999 V3000
M  V30 BEGIN CTAB
M  V30 COUNTS 61 65 0 0 0
M  V30 BEGIN ATOM
M  V30 1 N 0.184296 -6.276541 2.030625 0
M  V30 2 C 0.472878 -5.337151 1.379289 0
M  V30 3 C 0.833804 -4.199386 0.584637 0
M  V30 4 C 1.897155 -3.479782 1.065787 0
M  V30 5 C 2.310268 -2.375550 0.372617 0
M  V30 6 C 3.391415 -1.547048 0.952550 0
M  V30 7 C 4.442334 -1.951181 1.728201 0
M  V30 8 C 5.288570 -0.978918 2.231855 0
M  V30 9 N 5.153957 0.337265 2.015636 0
M  V30 10 C 4.147942 0.839786 1.261177 0
M  V30 11 N 3.741692 2.163825 0.894681 0
M  V30 12 C 2.514899 2.523525 1.574252 0
M  V30 13 C 2.166896 3.317247 2.622681 0
M  V30 14 C 0.856609 3.388160 3.014145 0
M  V30 15 C -0.146432 2.687181 2.393496 0
M  V30 16 N -1.536788 2.651510 2.628232 0
M  V30 17 C -2.120405 1.301543 2.727155 0
M  V30 18 C -3.221592 1.240036 1.702785 0
M  V30 19 O -4.279001 2.021727 2.148503 0
M  V30 20 C -3.904574 3.008391 3.045624 0
M  V30 21 C -2.578120 3.652527 2.776815 0
M  V30 22 C 0.224211 1.877126 1.320259 0
M  V30 23 N 1.518933 1.852312 0.988044 0
M  V30 24 C 3.297603 -0.153781 0.753855 0
M  V30 25 C 1.677536 -1.977387 -0.800568 0
M  V30 26 C 0.612189 -2.750479 -1.226077 0
M  V30 27 C 0.139038 -3.888739 -0.564541 0
M  V30 28 O -0.886395 -4.713702 -0.876262 0
M  V30 29 C -1.804004 -4.631400 -1.941984 0
M  V30 30 C -1.140541 -5.055836 -3.207262 0
M  V30 31 C -2.062545 -4.637348 -4.337824 0
M  V30 32 O -1.985528 -3.254939 -4.366251 0
M  V30 33 C -2.558307 -2.620268 -3.311448 0
M  V30 34 C -2.559133 -3.338473 -2.006826 0
M  V30 35 H 2.439592 -3.743530 1.981073 0
M  V30 36 H 4.537015 -3.005103 1.894558 0
M  V30 37 H 6.122231 -1.266558 2.851059 0
M  V30 38 H 4.295990 2.737016 0.225009 0
M  V30 39 H 3.007937 3.823139 3.052059 0
M  V30 40 H 0.568805 4.010333 3.838335 0
M  V30 41 H -1.360063 0.507893 2.615495 0
M  V30 42 H -2.610326 1.262461 3.735602 0
M  V30 43 H -2.919714 1.571745 0.688747 0
M  V30 44 H -3.649596 0.189952 1.662709 0
M  V30 45 H -4.665311 3.828094 2.915246 0
M  V30 46 H -4.012066 2.696193 4.102854 0
M  V30 47 H -2.344832 4.337280 3.613132 0
M  V30 48 H -2.632024 4.269948 1.845993 0
M  V30 49 H -0.515849 1.272186 0.758841 0
M  V30 50 H 2.461245 0.099966 0.095730 0
M  V30 51 H 1.956962 -1.126911 -1.390966 0
M  V30 52 H 0.074664 -2.511534 -2.126418 0
M  V30 53 H -2.572264 -5.430761 -1.687999 0
M  V30 54 H -0.158317 -4.561663 -3.368964 0
M  V30 55 H -0.978905 -6.152040 -3.233960 0
M  V30 56 H -1.631612 -4.991247 -5.303770 0
M  V30 57 H -3.072960 -5.025988 -4.158459 0
M  V30 58 H -2.089694 -1.605068 -3.218959 0
M  V30 59 H -3.617615 -2.400179 -3.622326 0
M  V30 60 H -3.621505 -3.476172 -1.673833 0
M  V30 61 H -2.128465 -2.664317 -1.229219 0
M  V30 END ATOM
M  V30 BEGIN BOND
M  V30 1 3 1 2
M  V30 2 1 2 3
M  V30 3 2 3 4
M  V30 4 1 4 5
M  V30 5 1 5 6
M  V30 6 2 6 7
M  V30 7 1 7 8
M  V30 8 2 8 9
M  V30 9 1 9 10
M  V30 10 1 10 11
M  V30 11 1 11 12
M  V30 12 2 12 13
M  V30 13 1 13 14
M  V30 14 2 14 15
M  V30 15 1 15 16
M  V30 16 1 16 17
M  V30 17 1 17 18
M  V30 18 1 18 19
M  V30 19 1 19 20
M  V30 20 1 20 21
M  V30 21 1 15 22
M  V30 22 2 22 23
M  V30 23 2 10 24
M  V30 24 2 5 25
M  V30 25 1 25 26
M  V30 26 2 26 27
M  V30 27 1 27 28
M  V30 28 1 28 29
M  V30 29 1 29 30
M  V30 30 1 30 31
M  V30 31 1 31 32
M  V30 32 1 32 33
M  V30 33 1 33 34
M  V30 34 1 27 3
M  V30 35 1 34 29
M  V30 36 1 24 6
M  V30 37 1 23 12
M  V30 38 1 21 16
M  V30 39 1 4 35
M  V30 40 1 7 36
M  V30 41 1 8 37
M  V30 42 1 11 38
M  V30 43 1 13 39
M  V30 44 1 14 40
M  V30 45 1 17 41
M  V30 46 1 17 42
M  V30 47 1 18 43
M  V30 48 1 18 44
M  V30 49 1 20 45
M  V30 50 1 20 46
M  V30 51 1 21 47
M  V30 52 1 21 48
M  V30 53 1 22 49
M  V30 54 1 24 50
M  V30 55 1 25 51
M  V30 56 1 26 52
M  V30 57 1 29 53
M  V30 58 1 30 54
M  V30 59 1 30 55
M  V30 60 1 31 56
M  V30 61 1 31 57
M  V30 62 1 33 58
M  V30 63 1 33 59
M  V30 64 1 34 60
M  V30 65 1 34 61
M  V30 END BOND
M  V30 END CTAB
M  END
>  <Dataset>  (207) 
ChEMBL_Kinases

>  <Ligand_Instance>  (207) 
nan

>  <PDB_ID>  (207) 
nan

>  <Standardized_SMILES>  (207) 
N#Cc1cc(-c2ccnc(Nc3ccc(N4CCOCC4)cn3)c2)ccc1OC1CCOCC1

>  <Name>  (207) 
nan

>  <Pocket>  (207) 
nan

>  <ATP_Site>  (207) 
nan

>  <Peripheral>  (207) 
nan

>  <Num_H_Atoms_ProtBoundConf>  (207) 
nan

>  <Num_Resolved_Atoms>  (207) 
nan

>  <Num_Not_Resolved_Atoms>  (207) 
nan

$$$$
CHEMBL3687152
     RDKit          3D

  0  0  0  0  0  0  0  0  0  0999 V3000
M  V30 BEGIN CTAB
M  V30 COUNTS 55 59 0 0 0
M  V30 BEGIN ATOM
M  V30 1 N 1.978575 -5.850721 1.208909 0
M  V30 2 C 1.629653 -4.760912 1.289058 0
M  V30 3 C 1.215368 -3.395746 1.400993 0
M  V30 4 C 2.100158 -2.458095 1.879215 0
M  V30 5 C 1.648157 -1.170997 1.966360 0
M  V30 6 C 2.595575 -0.184440 2.469656 0
M  V30 7 C 3.591794 -0.415441 3.389519 0
M  V30 8 C 4.414890 0.629404 3.762634 0
M  V30 9 N 4.289034 1.891937 3.259929 0
M  V30 10 C 3.342422 2.182959 2.363209 0
M  V30 11 N 3.143971 3.479872 1.763546 0
M  V30 12 C 2.034386 3.624264 0.879347 0
M  V30 13 C 0.824044 4.198001 1.268447 0
M  V30 14 C -0.242335 4.288079 0.365434 0
M  V30 15 C -0.004989 3.773211 -0.915656 0
M  V30 16 C -1.127215 3.872505 -1.849289 0
M  V30 17 C -1.175554 4.020941 -3.237296 0
M  V30 18 N -2.463166 4.069029 -3.633436 0
M  V30 19 N -3.269123 3.961376 -2.592138 0
M  V30 20 C -2.475660 3.839719 -1.486216 0
M  V30 21 C 1.197551 3.210825 -1.281438 0
M  V30 22 N 2.221845 3.135186 -0.383165 0
M  V30 23 C 2.520646 1.109336 2.000619 0
M  V30 24 C 0.355764 -0.773335 1.598896 0
M  V30 25 C -0.476411 -1.797407 1.122583 0
M  V30 26 C -0.074646 -3.138118 1.008631 0
M  V30 27 O -1.089156 -3.840460 0.531365 0
M  V30 28 C -1.421240 -5.114625 0.164310 0
M  V30 29 C -1.851534 -5.215014 -1.290655 0
M  V30 30 C -3.360466 -4.999375 -1.284801 0
M  V30 31 O -3.885092 -6.172620 -0.762838 0
M  V30 32 C -3.703335 -6.133029 0.601287 0
M  V30 33 C -2.388095 -5.715764 1.121039 0
M  V30 34 H 3.094125 -2.772690 2.159012 0
M  V30 35 H 3.682677 -1.414045 3.781231 0
M  V30 36 H 5.202585 0.449726 4.491338 0
M  V30 37 H 3.853220 4.194194 2.048696 0
M  V30 38 H 0.736668 4.566367 2.279746 0
M  V30 39 H -1.164629 4.738483 0.697491 0
M  V30 40 H -0.235353 4.073044 -3.769550 0
M  V30 41 H -4.313243 3.966718 -2.600583 0
M  V30 42 H -2.901572 3.738640 -0.513073 0
M  V30 43 H 1.348876 2.823714 -2.280308 0
M  V30 44 H 1.749245 1.327362 1.271812 0
M  V30 45 H 0.082170 0.263516 1.702339 0
M  V30 46 H -1.449235 -1.360069 0.873643 0
M  V30 47 H -0.484474 -5.747999 0.207353 0
M  V30 48 H -1.672143 -6.216457 -1.725012 0
M  V30 49 H -1.408035 -4.469894 -1.943775 0
M  V30 50 H -3.647176 -4.180793 -0.605672 0
M  V30 51 H -3.709466 -4.760808 -2.293438 0
M  V30 52 H -4.003644 -7.163003 0.967298 0
M  V30 53 H -4.517739 -5.478682 1.058802 0
M  V30 54 H -2.488210 -5.029612 2.022383 0
M  V30 55 H -1.905381 -6.639193 1.579458 0
M  V30 END ATOM
M  V30 BEGIN BOND
M  V30 1 3 1 2
M  V30 2 1 2 3
M  V30 3 2 3 4
M  V30 4 1 4 5
M  V30 5 1 5 6
M  V30 6 2 6 7
M  V30 7 1 7 8
M  V30 8 2 8 9
M  V30 9 1 9 10
M  V30 10 1 10 11
M  V30 11 1 11 12
M  V30 12 2 12 13
M  V30 13 1 13 14
M  V30 14 2 14 15
M  V30 15 1 15 16
M  V30 16 1 16 17
M  V30 17 2 17 18
M  V30 18 1 18 19
M  V30 19 1 19 20
M  V30 20 1 15 21
M  V30 21 2 21 22
M  V30 22 2 10 23
M  V30 23 2 5 24
M  V30 24 1 24 25
M  V30 25 2 25 26
M  V30 26 1 26 27
M  V30 27 1 27 28
M  V30 28 1 28 29
M  V30 29 1 29 30
M  V30 30 1 30 31
M  V30 31 1 31 32
M  V30 32 1 32 33
M  V30 33 1 26 3
M  V30 34 1 33 28
M  V30 35 1 23 6
M  V30 36 1 22 12
M  V30 37 2 20 16
M  V30 38 1 4 34
M  V30 39 1 7 35
M  V30 40 1 8 36
M  V30 41 1 11 37
M  V30 42 1 13 38
M  V30 43 1 14 39
M  V30 44 1 17 40
M  V30 45 1 19 41
M  V30 46 1 20 42
M  V30 47 1 21 43
M  V30 48 1 23 44
M  V30 49 1 24 45
M  V30 50 1 25 46
M  V30 51 1 28 47
M  V30 52 1 29 48
M  V30 53 1 29 49
M  V30 54 1 30 50
M  V30 55 1 30 51
M  V30 56 1 32 52
M  V30 57 1 32 53
M  V30 58 1 33 54
M  V30 59 1 33 55
M  V30 END BOND
M  V30 END CTAB
M  END
>  <Dataset>  (208) 
ChEMBL_Kinases

>  <Ligand_Instance>  (208) 
nan

>  <PDB_ID>  (208) 
nan

>  <Standardized_SMILES>  (208) 
N#Cc1cc(-c2ccnc(Nc3ccc(-c4cn[nH]c4)cn3)c2)ccc1OC1CCOCC1

>  <Name>  (208) 
nan

>  <Pocket>  (208) 
nan

>  <ATP_Site>  (208) 
nan

>  <Peripheral>  (208) 
nan

>  <Num_H_Atoms_ProtBoundConf>  (208) 
nan

>  <Num_Resolved_Atoms>  (208) 
nan

>  <Num_Not_Resolved_Atoms>  (208) 
nan

$$$$
CHEMBL3687153
     RDKit          3D

  0  0  0  0  0  0  0  0  0  0999 V3000
M  V30 BEGIN CTAB
M  V30 COUNTS 58 61 0 0 0
M  V30 BEGIN ATOM
M  V30 1 C 2.800294 3.035825 5.233047 0
M  V30 2 C 4.031703 2.426922 4.579511 0
M  V30 3 C 4.718173 1.625728 5.661247 0
M  V30 4 C 4.917677 3.572306 4.140018 0
M  V30 5 C 3.584275 1.574920 3.453816 0
M  V30 6 C 4.466507 0.893668 2.661036 0
M  V30 7 C 3.747493 0.181839 1.693971 0
M  V30 8 N 4.294195 -0.649766 0.680776 0
M  V30 9 C 3.561096 -1.377421 -0.294890 0
M  V30 10 C 2.207457 -1.390047 -0.411946 0
M  V30 11 C 1.509263 -2.103015 -1.362322 0
M  V30 12 C 0.049675 -2.098161 -1.466734 0
M  V30 13 C -0.764311 -1.030742 -1.149090 0
M  V30 14 C -2.151998 -1.165392 -1.296172 0
M  V30 15 C -2.737039 -2.349061 -1.754975 0
M  V30 16 O -4.065196 -2.182158 -1.791682 0
M  V30 17 C -5.172070 -2.896825 -2.114316 0
M  V30 18 C -6.002130 -2.274252 -3.232473 0
M  V30 19 C -6.569341 -0.951337 -2.818810 0
M  V30 20 O -7.530223 -1.223534 -1.828525 0
M  V30 21 C -6.834752 -1.655008 -0.704822 0
M  V30 22 C -6.122026 -2.970025 -0.916545 0
M  V30 23 C -1.855368 -3.352093 -2.045031 0
M  V30 24 C -2.454656 -4.562281 -2.516715 0
M  V30 25 N -2.919549 -5.546465 -2.897823 0
M  V30 26 C -0.505926 -3.286693 -1.925207 0
M  V30 27 C 2.263088 -2.863346 -2.263792 0
M  V30 28 C 3.635725 -2.846701 -2.140344 0
M  V30 29 N 4.237043 -2.123393 -1.184215 0
M  V30 30 N 2.481815 0.496655 1.987795 0
M  V30 31 N 2.350596 1.297928 2.997052 0
M  V30 32 H 3.054526 3.638184 6.120729 0
M  V30 33 H 2.066599 2.230548 5.420221 0
M  V30 34 H 2.374718 3.718757 4.455106 0
M  V30 35 H 4.782504 2.277652 6.560219 0
M  V30 36 H 4.012786 0.801777 5.968662 0
M  V30 37 H 5.709687 1.263774 5.401986 0
M  V30 38 H 5.880067 3.515083 4.700436 0
M  V30 39 H 4.493328 4.566432 4.413820 0
M  V30 40 H 5.089108 3.548407 3.036838 0
M  V30 41 H 5.560095 0.884761 2.741893 0
M  V30 42 H 5.350636 -0.725229 0.662601 0
M  V30 43 H 1.605190 -0.826436 0.253131 0
M  V30 44 H -0.238111 -0.156314 -0.803171 0
M  V30 45 H -2.624786 -0.222187 -0.997706 0
M  V30 46 H -5.016323 -3.946017 -2.421499 0
M  V30 47 H -5.432550 -2.141014 -4.154006 0
M  V30 48 H -6.841610 -2.963630 -3.431384 0
M  V30 49 H -6.963803 -0.404365 -3.677199 0
M  V30 50 H -5.806192 -0.288364 -2.342532 0
M  V30 51 H -7.572498 -1.832902 0.104670 0
M  V30 52 H -6.094761 -0.895834 -0.386791 0
M  V30 53 H -5.524508 -3.169463 -0.017617 0
M  V30 54 H -6.877603 -3.757487 -1.026044 0
M  V30 55 H 0.087347 -4.143048 -2.183909 0
M  V30 56 H 1.809684 -3.458998 -3.047740 0
M  V30 57 H 4.213861 -3.438940 -2.843188 0
M  V30 58 H 1.475727 1.678925 3.407897 0
M  V30 END ATOM
M  V30 BEGIN BOND
M  V30 1 1 1 2
M  V30 2 1 2 3
M  V30 3 1 2 4
M  V30 4 1 2 5
M  V30 5 2 5 6
M  V30 6 1 6 7
M  V30 7 1 7 8
M  V30 8 1 8 9
M  V30 9 2 9 10
M  V30 10 1 10 11
M  V30 11 1 11 12
M  V30 12 2 12 13
M  V30 13 1 13 14
M  V30 14 2 14 15
M  V30 15 1 15 16
M  V30 16 1 16 17
M  V30 17 1 17 18
M  V30 18 1 18 19
M  V30 19 1 19 20
M  V30 20 1 20 21
M  V30 21 1 21 22
M  V30 22 1 15 23
M  V30 23 1 23 24
M  V30 24 3 24 25
M  V30 25 2 23 26
M  V30 26 2 11 27
M  V30 27 1 27 28
M  V30 28 2 28 29
M  V30 29 2 7 30
M  V30 30 1 30 31
M  V30 31 1 31 5
M  V30 32 1 29 9
M  V30 33 1 26 12
M  V30 34 1 22 17
M  V30 35 1 1 32
M  V30 36 1 1 33
M  V30 37 1 1 34
M  V30 38 1 3 35
M  V30 39 1 3 36
M  V30 40 1 3 37
M  V30 41 1 4 38
M  V30 42 1 4 39
M  V30 43 1 4 40
M  V30 44 1 6 41
M  V30 45 1 8 42
M  V30 46 1 10 43
M  V30 47 1 13 44
M  V30 48 1 14 45
M  V30 49 1 17 46
M  V30 50 1 18 47
M  V30 51 1 18 48
M  V30 52 1 19 49
M  V30 53 1 19 50
M  V30 54 1 21 51
M  V30 55 1 21 52
M  V30 56 1 22 53
M  V30 57 1 22 54
M  V30 58 1 26 55
M  V30 59 1 27 56
M  V30 60 1 28 57
M  V30 61 1 31 58
M  V30 END BOND
M  V30 END CTAB
M  END
>  <Dataset>  (209) 
ChEMBL_Kinases

>  <Ligand_Instance>  (209) 
nan

>  <PDB_ID>  (209) 
nan

>  <Standardized_SMILES>  (209) 
CC(C)(C)c1cc(Nc2cc(-c3ccc(OC4CCOCC4)c(C#N)c3)ccn2)n[nH]1

>  <Name>  (209) 
nan

>  <Pocket>  (209) 
nan

>  <ATP_Site>  (209) 
nan

>  <Peripheral>  (209) 
nan

>  <Num_H_Atoms_ProtBoundConf>  (209) 
nan

>  <Num_Resolved_Atoms>  (209) 
nan

>  <Num_Not_Resolved_Atoms>  (209) 
nan

$$$$
CHEMBL3687154
     RDKit          3D

  0  0  0  0  0  0  0  0  0  0999 V3000
M  V30 BEGIN CTAB
M  V30 COUNTS 49 52 0 0 0
M  V30 BEGIN ATOM
M  V30 1 N 3.675977 -7.428056 2.437580 0
M  V30 2 C 3.335068 -6.887698 1.480772 0
M  V30 3 C 2.920238 -6.197664 0.297059 0
M  V30 4 C 3.078852 -6.692040 -0.965384 0
M  V30 5 C 2.661694 -5.984119 -2.055168 0
M  V30 6 C 2.060843 -4.743047 -1.977630 0
M  V30 7 N 1.648298 -4.053842 -3.144394 0
M  V30 8 C 1.022189 -2.785572 -3.232403 0
M  V30 9 C 0.685594 -1.964024 -2.185668 0
M  V30 10 C 0.081441 -0.741976 -2.296410 0
M  V30 11 C -0.240461 0.065304 -1.124544 0
M  V30 12 C -0.237537 1.442556 -1.183015 0
M  V30 13 C -0.558457 2.145389 -0.012979 0
M  V30 14 C -0.875116 1.494764 1.188154 0
M  V30 15 O -1.132700 2.426984 2.115174 0
M  V30 16 C -1.485542 2.495569 3.423826 0
M  V30 17 C -0.520176 3.378667 4.252267 0
M  V30 18 C -0.911667 3.176808 5.693087 0
M  V30 19 O -2.108430 2.481202 5.825048 0
M  V30 20 C -3.141589 3.057700 5.112101 0
M  V30 21 C -2.838745 3.215897 3.637482 0
M  V30 22 C -0.849834 0.124757 1.141298 0
M  V30 23 C -1.172889 -0.528427 2.366074 0
M  V30 24 N -1.428326 -1.068013 3.335826 0
M  V30 25 C -0.544050 -0.625345 0.029112 0
M  V30 26 C -0.217966 -0.290106 -3.563128 0
M  V30 27 C 0.116513 -1.108072 -4.615236 0
M  V30 28 N 0.700708 -2.280417 -4.434127 0
M  V30 29 N 1.933903 -4.313469 -0.715585 0
M  V30 30 C 2.322269 -4.961414 0.382627 0
M  V30 31 H 3.547815 -7.667958 -1.083075 0
M  V30 32 H 2.828157 -6.454869 -3.023361 0
M  V30 33 H 1.833314 -4.551557 -4.051684 0
M  V30 34 H 0.902251 -2.280513 -1.184882 0
M  V30 35 H 0.015030 1.878177 -2.137832 0
M  V30 36 H -0.510458 3.226405 -0.229676 0
M  V30 37 H -1.627039 1.537903 3.959692 0
M  V30 38 H 0.535216 3.129426 4.034263 0
M  V30 39 H -0.774033 4.421239 3.973830 0
M  V30 40 H -0.128459 2.545617 6.177253 0
M  V30 41 H -1.001988 4.122278 6.254824 0
M  V30 42 H -4.000930 2.335382 5.182215 0
M  V30 43 H -3.475033 4.024043 5.565433 0
M  V30 44 H -3.606882 2.747683 2.998964 0
M  V30 45 H -2.704254 4.301024 3.448024 0
M  V30 46 H -0.559619 -1.701746 0.124252 0
M  V30 47 H -0.696546 0.675202 -3.673370 0
M  V30 48 H -0.103566 -0.786757 -5.627135 0
M  V30 49 H 2.139823 -4.460723 1.326048 0
M  V30 END ATOM
M  V30 BEGIN BOND
M  V30 1 3 1 2
M  V30 2 1 2 3
M  V30 3 2 3 4
M  V30 4 1 4 5
M  V30 5 2 5 6
M  V30 6 1 6 7
M  V30 7 1 7 8
M  V30 8 2 8 9
M  V30 9 1 9 10
M  V30 10 1 10 11
M  V30 11 2 11 12
M  V30 12 1 12 13
M  V30 13 2 13 14
M  V30 14 1 14 15
M  V30 15 1 15 16
M  V30 16 1 16 17
M  V30 17 1 17 18
M  V30 18 1 18 19
M  V30 19 1 19 20
M  V30 20 1 20 21
M  V30 21 1 14 22
M  V30 22 1 22 23
M  V30 23 3 23 24
M  V30 24 2 22 25
M  V30 25 2 10 26
M  V30 26 1 26 27
M  V30 27 2 27 28
M  V30 28 1 6 29
M  V30 29 2 29 30
M  V30 30 1 30 3
M  V30 31 1 28 8
M  V30 32 1 25 11
M  V30 33 1 21 16
M  V30 34 1 4 31
M  V30 35 1 5 32
M  V30 36 1 7 33
M  V30 37 1 9 34
M  V30 38 1 12 35
M  V30 39 1 13 36
M  V30 40 1 16 37
M  V30 41 1 17 38
M  V30 42 1 17 39
M  V30 43 1 18 40
M  V30 44 1 18 41
M  V30 45 1 20 42
M  V30 46 1 20 43
M  V30 47 1 21 44
M  V30 48 1 21 45
M  V30 49 1 25 46
M  V30 50 1 26 47
M  V30 51 1 27 48
M  V30 52 1 30 49
M  V30 END BOND
M  V30 END CTAB
M  END
>  <Dataset>  (210) 
ChEMBL_Kinases

>  <Ligand_Instance>  (210) 
nan

>  <PDB_ID>  (210) 
nan

>  <Standardized_SMILES>  (210) 
N#Cc1ccc(Nc2cc(-c3ccc(OC4CCOCC4)c(C#N)c3)ccn2)nc1

>  <Name>  (210) 
nan

>  <Pocket>  (210) 
nan

>  <ATP_Site>  (210) 
nan

>  <Peripheral>  (210) 
nan

>  <Num_H_Atoms_ProtBoundConf>  (210) 
nan

>  <Num_Resolved_Atoms>  (210) 
nan

>  <Num_Not_Resolved_Atoms>  (210) 
nan

$$$$
CHEMBL3687155
     RDKit          3D

  0  0  0  0  0  0  0  0  0  0999 V3000
M  V30 BEGIN CTAB
M  V30 COUNTS 53 57 0 0 0
M  V30 BEGIN ATOM
M  V30 1 N 0.807967 -4.165527 -0.070409 0
M  V30 2 C 0.149223 -3.234921 -0.213526 0
M  V30 3 C -0.696610 -2.061905 -0.386818 0
M  V30 4 C -0.037887 -0.847243 -0.613448 0
M  V30 5 C -0.811318 0.285320 -0.781997 0
M  V30 6 C -0.048749 1.506820 -1.015690 0
M  V30 7 C -0.633192 2.467421 -1.801724 0
M  V30 8 C 0.006795 3.668589 -2.092824 0
M  V30 9 N 1.228663 3.830536 -1.559014 0
M  V30 10 C 1.820698 2.905600 -0.786975 0
M  V30 11 N 3.121966 3.174759 -0.274198 0
M  V30 12 C 3.856227 2.295078 0.574222 0
M  V30 13 C 3.640994 2.568388 1.930991 0
M  V30 14 C 4.405713 1.650070 2.661819 0
M  V30 15 C 4.540395 1.508212 4.157837 0
M  V30 16 C 4.376685 2.712804 5.005950 0
M  V30 17 C 3.270388 1.746749 4.934424 0
M  V30 18 N 5.030429 0.885287 1.749767 0
M  V30 19 N 4.724470 1.243622 0.523587 0
M  V30 20 C 1.211151 1.706518 -0.481364 0
M  V30 21 C -2.189365 0.253494 -0.733768 0
M  V30 22 C -2.802560 -0.961944 -0.508374 0
M  V30 23 C -2.095837 -2.135264 -0.331202 0
M  V30 24 O -2.567873 -3.396494 -0.102799 0
M  V30 25 C -3.879461 -3.830069 0.013333 0
M  V30 26 C -4.115452 -4.563783 1.319074 0
M  V30 27 C -3.808255 -6.021007 1.093143 0
M  V30 28 O -2.941433 -6.262751 0.047261 0
M  V30 29 C -3.466585 -5.999256 -1.203883 0
M  V30 30 C -4.309167 -4.768341 -1.095728 0
M  V30 31 H 1.042576 -0.833163 -0.648999 0
M  V30 32 H -1.614698 2.353575 -2.239260 0
M  V30 33 H -0.401962 4.470208 -2.709307 0
M  V30 34 H 3.621927 4.064828 -0.503946 0
M  V30 35 H 3.050669 3.289033 2.519558 0
M  V30 36 H 5.173895 0.686311 4.547417 0
M  V30 37 H 5.024727 2.761777 5.897745 0
M  V30 38 H 4.269752 3.664426 4.429407 0
M  V30 39 H 3.091583 1.145129 5.860535 0
M  V30 40 H 2.331821 2.039112 4.431704 0
M  V30 41 H 4.950609 0.960539 -0.447339 0
M  V30 42 H 1.665959 0.947418 0.136582 0
M  V30 43 H -2.753945 1.149825 -0.868124 0
M  V30 44 H -3.865602 -1.061584 -0.458657 0
M  V30 45 H -4.554788 -2.937590 -0.096541 0
M  V30 46 H -5.217550 -4.513300 1.522531 0
M  V30 47 H -3.513258 -4.149247 2.154178 0
M  V30 48 H -4.724524 -6.624664 0.916121 0
M  V30 49 H -3.332503 -6.438143 2.004567 0
M  V30 50 H -4.050713 -6.910909 -1.497559 0
M  V30 51 H -2.647007 -5.921231 -1.930142 0
M  V30 52 H -5.347295 -5.090513 -0.844940 0
M  V30 53 H -4.401626 -4.226584 -2.065592 0
M  V30 END ATOM
M  V30 BEGIN BOND
M  V30 1 3 1 2
M  V30 2 1 2 3
M  V30 3 2 3 4
M  V30 4 1 4 5
M  V30 5 1 5 6
M  V30 6 2 6 7
M  V30 7 1 7 8
M  V30 8 2 8 9
M  V30 9 1 9 10
M  V30 10 1 10 11
M  V30 11 1 11 12
M  V30 12 2 12 13
M  V30 13 1 13 14
M  V30 14 1 14 15
M  V30 15 1 15 16
M  V30 16 1 16 17
M  V30 17 2 14 18
M  V30 18 1 18 19
M  V30 19 2 10 20
M  V30 20 2 5 21
M  V30 21 1 21 22
M  V30 22 2 22 23
M  V30 23 1 23 24
M  V30 24 1 24 25
M  V30 25 1 25 26
M  V30 26 1 26 27
M  V30 27 1 27 28
M  V30 28 1 28 29
M  V30 29 1 29 30
M  V30 30 1 23 3
M  V30 31 1 30 25
M  V30 32 1 20 6
M  V30 33 1 19 12
M  V30 34 1 17 15
M  V30 35 1 4 31
M  V30 36 1 7 32
M  V30 37 1 8 33
M  V30 38 1 11 34
M  V30 39 1 13 35
M  V30 40 1 15 36
M  V30 41 1 16 37
M  V30 42 1 16 38
M  V30 43 1 17 39
M  V30 44 1 17 40
M  V30 45 1 19 41
M  V30 46 1 20 42
M  V30 47 1 21 43
M  V30 48 1 22 44
M  V30 49 1 25 45
M  V30 50 1 26 46
M  V30 51 1 26 47
M  V30 52 1 27 48
M  V30 53 1 27 49
M  V30 54 1 29 50
M  V30 55 1 29 51
M  V30 56 1 30 52
M  V30 57 1 30 53
M  V30 END BOND
M  V30 END CTAB
M  END
>  <Dataset>  (211) 
ChEMBL_Kinases

>  <Ligand_Instance>  (211) 
nan

>  <PDB_ID>  (211) 
nan

>  <Standardized_SMILES>  (211) 
N#Cc1cc(-c2ccnc(Nc3cc(C4CC4)n[nH]3)c2)ccc1OC1CCOCC1

>  <Name>  (211) 
nan

>  <Pocket>  (211) 
nan

>  <ATP_Site>  (211) 
nan

>  <Peripheral>  (211) 
nan

>  <Num_H_Atoms_ProtBoundConf>  (211) 
nan

>  <Num_Resolved_Atoms>  (211) 
nan

>  <Num_Not_Resolved_Atoms>  (211) 
nan

$$$$
CHEMBL3687156
     RDKit          3D

  0  0  0  0  0  0  0  0  0  0999 V3000
M  V30 BEGIN CTAB
M  V30 COUNTS 51 54 0 0 0
M  V30 BEGIN ATOM
M  V30 1 N 1.360344 -5.615480 2.887468 0
M  V30 2 C 1.277597 -4.642870 2.268765 0
M  V30 3 C 1.152204 -3.412042 1.502611 0
M  V30 4 C 2.262022 -2.572522 1.573133 0
M  V30 5 C 2.177607 -1.382161 0.870625 0
M  V30 6 C 3.218999 -0.359038 0.765624 0
M  V30 7 C 4.554442 -0.653300 0.768333 0
M  V30 8 C 5.484298 0.367433 0.648402 0
M  V30 9 N 5.106921 1.652773 0.529674 0
M  V30 10 C 3.793960 2.015996 0.521408 0
M  V30 11 N 3.312568 3.371297 0.376745 0
M  V30 12 C 1.923874 3.622115 0.523286 0
M  V30 13 C 1.752234 4.190089 1.787914 0
M  V30 14 C 0.503624 4.560932 2.280241 0
M  V30 15 C -0.605675 4.351572 1.473333 0
M  V30 16 C -1.986154 4.731496 1.925167 0
M  V30 17 F -2.677997 3.591048 2.228781 0
M  V30 18 F -1.868962 5.479199 3.083280 0
M  V30 19 F -2.663205 5.432809 0.959712 0
M  V30 20 C -0.418454 3.780922 0.208302 0
M  V30 21 N 0.815114 3.435283 -0.231255 0
M  V30 22 C 2.905371 0.963226 0.642757 0
M  V30 23 C 1.030690 -1.116094 0.167954 0
M  V30 24 C -0.038074 -1.988750 0.135166 0
M  V30 25 C -0.024229 -3.193226 0.810180 0
M  V30 26 O -1.005567 -4.156516 0.866445 0
M  V30 27 C -2.210380 -4.054921 0.215996 0
M  V30 28 C -3.448644 -4.299443 1.047354 0
M  V30 29 C -4.585586 -3.757906 0.158769 0
M  V30 30 O -4.740751 -4.620211 -0.882975 0
M  V30 31 C -3.651374 -4.896016 -1.658813 0
M  V30 32 C -2.332256 -4.985070 -0.978816 0
M  V30 33 H 3.173651 -2.753435 2.112422 0
M  V30 34 H 4.898899 -1.676964 0.866539 0
M  V30 35 H 6.551123 0.185846 0.643780 0
M  V30 36 H 4.019830 4.111474 0.170274 0
M  V30 37 H 2.492615 4.436025 2.566200 0
M  V30 38 H 0.262949 5.004203 3.232504 0
M  V30 39 H -1.224643 3.582520 -0.473456 0
M  V30 40 H 1.863509 1.257266 0.636854 0
M  V30 41 H 0.904144 -0.188322 -0.410101 0
M  V30 42 H -0.903668 -1.729229 -0.429198 0
M  V30 43 H -2.337850 -3.037725 -0.226059 0
M  V30 44 H -3.384396 -3.679425 1.957851 0
M  V30 45 H -3.592865 -5.375662 1.246180 0
M  V30 46 H -5.521894 -3.633667 0.695463 0
M  V30 47 H -4.202256 -2.776505 -0.257048 0
M  V30 48 H -3.841584 -5.824608 -2.278367 0
M  V30 49 H -3.574533 -4.083078 -2.442085 0
M  V30 50 H -2.164532 -6.015504 -0.627930 0
M  V30 51 H -1.545355 -4.770540 -1.734728 0
M  V30 END ATOM
M  V30 BEGIN BOND
M  V30 1 3 1 2
M  V30 2 1 2 3
M  V30 3 2 3 4
M  V30 4 1 4 5
M  V30 5 1 5 6
M  V30 6 2 6 7
M  V30 7 1 7 8
M  V30 8 2 8 9
M  V30 9 1 9 10
M  V30 10 1 10 11
M  V30 11 1 11 12
M  V30 12 2 12 13
M  V30 13 1 13 14
M  V30 14 2 14 15
M  V30 15 1 15 16
M  V30 16 1 16 17
M  V30 17 1 16 18
M  V30 18 1 16 19
M  V30 19 1 15 20
M  V30 20 2 20 21
M  V30 21 2 10 22
M  V30 22 2 5 23
M  V30 23 1 23 24
M  V30 24 2 24 25
M  V30 25 1 25 26
M  V30 26 1 26 27
M  V30 27 1 27 28
M  V30 28 1 28 29
M  V30 29 1 29 30
M  V30 30 1 30 31
M  V30 31 1 31 32
M  V30 32 1 25 3
M  V30 33 1 32 27
M  V30 34 1 22 6
M  V30 35 1 21 12
M  V30 36 1 4 33
M  V30 37 1 7 34
M  V30 38 1 8 35
M  V30 39 1 11 36
M  V30 40 1 13 37
M  V30 41 1 14 38
M  V30 42 1 20 39
M  V30 43 1 22 40
M  V30 44 1 23 41
M  V30 45 1 24 42
M  V30 46 1 27 43
M  V30 47 1 28 44
M  V30 48 1 28 45
M  V30 49 1 29 46
M  V30 50 1 29 47
M  V30 51 1 31 48
M  V30 52 1 31 49
M  V30 53 1 32 50
M  V30 54 1 32 51
M  V30 END BOND
M  V30 END CTAB
M  END
>  <Dataset>  (212) 
ChEMBL_Kinases

>  <Ligand_Instance>  (212) 
nan

>  <PDB_ID>  (212) 
nan

>  <Standardized_SMILES>  (212) 
N#Cc1cc(-c2ccnc(Nc3ccc(C(F)(F)F)cn3)c2)ccc1OC1CCOCC1

>  <Name>  (212) 
nan

>  <Pocket>  (212) 
nan

>  <ATP_Site>  (212) 
nan

>  <Peripheral>  (212) 
nan

>  <Num_H_Atoms_ProtBoundConf>  (212) 
nan

>  <Num_Resolved_Atoms>  (212) 
nan

>  <Num_Not_Resolved_Atoms>  (212) 
nan

$$$$
CHEMBL3687157
     RDKit          3D

  0  0  0  0  0  0  0  0  0  0999 V3000
M  V30 BEGIN CTAB
M  V30 COUNTS 47 50 0 0 0
M  V30 BEGIN ATOM
M  V30 1 N 1.984900 -3.487581 4.646504 0
M  V30 2 C 1.687163 -2.926763 3.707073 0
M  V30 3 C 1.286784 -2.201344 2.517917 0
M  V30 4 C 2.322076 -1.561730 1.826308 0
M  V30 5 C 2.091102 -0.833043 0.676636 0
M  V30 6 C 3.158501 -0.159446 -0.063715 0
M  V30 7 C 4.471353 -0.567730 -0.188691 0
M  V30 8 C 5.367836 0.170711 -0.912678 0
M  V30 9 N 5.043236 1.310545 -1.533851 0
M  V30 10 C 3.754272 1.753070 -1.437061 0
M  V30 11 N 3.319284 2.956670 -2.059234 0
M  V30 12 C 1.987425 3.442195 -1.974788 0
M  V30 13 N 0.952681 3.225718 -2.792969 0
M  V30 14 C -0.263744 3.743262 -2.600689 0
M  V30 15 C -0.523575 4.549504 -1.519322 0
M  V30 16 C 0.538900 4.779378 -0.668046 0
M  V30 17 N 1.738937 4.236010 -0.906981 0
M  V30 18 C 2.808678 1.027695 -0.707238 0
M  V30 19 C 0.792487 -0.745937 0.212934 0
M  V30 20 C -0.227220 -1.375890 0.893855 0
M  V30 21 C -0.032201 -2.110541 2.043078 0
M  V30 22 O -0.898192 -2.807099 2.861907 0
M  V30 23 C -2.255622 -2.888702 2.610545 0
M  V30 24 C -2.775999 -4.316611 2.547867 0
M  V30 25 C -4.194000 -4.241640 2.025711 0
M  V30 26 O -4.642153 -2.917935 1.942410 0
M  V30 27 C -4.534766 -2.276506 3.194913 0
M  V30 28 C -3.105704 -2.236097 3.696006 0
M  V30 29 H 3.365189 -1.604213 2.156739 0
M  V30 30 H 4.717494 -1.501432 0.325649 0
M  V30 31 H 6.398597 -0.213812 -0.971106 0
M  V30 32 H 3.997270 3.527785 -2.611040 0
M  V30 33 H -1.033375 3.511103 -3.315520 0
M  V30 34 H -1.502834 4.974023 -1.352360 0
M  V30 35 H 0.412684 5.401692 0.202360 0
M  V30 36 H 1.789219 1.406823 -0.649600 0
M  V30 37 H 0.499327 -0.211390 -0.662530 0
M  V30 38 H -1.253906 -1.348408 0.590522 0
M  V30 39 H -2.580862 -2.396127 1.672459 0
M  V30 40 H -2.116660 -4.972201 1.960766 0
M  V30 41 H -2.878589 -4.643060 3.624176 0
M  V30 42 H -4.925930 -4.755854 2.684208 0
M  V30 43 H -4.239427 -4.662849 1.012839 0
M  V30 44 H -4.852408 -1.216199 2.986398 0
M  V30 45 H -5.237545 -2.690495 3.928695 0
M  V30 46 H -3.048811 -2.885859 4.586731 0
M  V30 47 H -2.771787 -1.203958 3.913808 0
M  V30 END ATOM
M  V30 BEGIN BOND
M  V30 1 3 1 2
M  V30 2 1 2 3
M  V30 3 2 3 4
M  V30 4 1 4 5
M  V30 5 1 5 6
M  V30 6 2 6 7
M  V30 7 1 7 8
M  V30 8 2 8 9
M  V30 9 1 9 10
M  V30 10 1 10 11
M  V30 11 1 11 12
M  V30 12 2 12 13
M  V30 13 1 13 14
M  V30 14 2 14 15
M  V30 15 1 15 16
M  V30 16 2 16 17
M  V30 17 2 10 18
M  V30 18 2 5 19
M  V30 19 1 19 20
M  V30 20 2 20 21
M  V30 21 1 21 22
M  V30 22 1 22 23
M  V30 23 1 23 24
M  V30 24 1 24 25
M  V30 25 1 25 26
M  V30 26 1 26 27
M  V30 27 1 27 28
M  V30 28 1 21 3
M  V30 29 1 28 23
M  V30 30 1 18 6
M  V30 31 1 17 12
M  V30 32 1 4 29
M  V30 33 1 7 30
M  V30 34 1 8 31
M  V30 35 1 11 32
M  V30 36 1 14 33
M  V30 37 1 15 34
M  V30 38 1 16 35
M  V30 39 1 18 36
M  V30 40 1 19 37
M  V30 41 1 20 38
M  V30 42 1 23 39
M  V30 43 1 24 40
M  V30 44 1 24 41
M  V30 45 1 25 42
M  V30 46 1 25 43
M  V30 47 1 27 44
M  V30 48 1 27 45
M  V30 49 1 28 46
M  V30 50 1 28 47
M  V30 END BOND
M  V30 END CTAB
M  END
>  <Dataset>  (213) 
ChEMBL_Kinases

>  <Ligand_Instance>  (213) 
nan

>  <PDB_ID>  (213) 
nan

>  <Standardized_SMILES>  (213) 
N#Cc1cc(-c2ccnc(Nc3ncccn3)c2)ccc1OC1CCOCC1

>  <Name>  (213) 
nan

>  <Pocket>  (213) 
nan

>  <ATP_Site>  (213) 
nan

>  <Peripheral>  (213) 
nan

>  <Num_H_Atoms_ProtBoundConf>  (213) 
nan

>  <Num_Resolved_Atoms>  (213) 
nan

>  <Num_Not_Resolved_Atoms>  (213) 
nan

$$$$
CHEMBL3687158
     RDKit          3D

  0  0  0  0  0  0  0  0  0  0999 V3000
M  V30 BEGIN CTAB
M  V30 COUNTS 52 55 0 0 0
M  V30 BEGIN ATOM
M  V30 1 N 0.702291 -5.942632 -0.633536 0
M  V30 2 C 0.509908 -4.813663 -0.602571 0
M  V30 3 C 0.265124 -3.400034 -0.539394 0
M  V30 4 C 1.358963 -2.608295 -0.913583 0
M  V30 5 C 1.280216 -1.234496 -0.905987 0
M  V30 6 C 2.366453 -0.334313 -1.279165 0
M  V30 7 C 3.298960 -0.706397 -2.254979 0
M  V30 8 C 4.278996 0.222043 -2.526960 0
M  V30 9 N 4.402667 1.437280 -1.934484 0
M  V30 10 C 3.499953 1.818886 -0.977721 0
M  V30 11 N 3.492003 3.053806 -0.274860 0
M  V30 12 C 2.556558 3.422005 0.728066 0
M  V30 13 C 2.976834 3.113024 2.003622 0
M  V30 14 C 2.212009 3.388896 3.115343 0
M  V30 15 C 0.967013 4.001323 2.964515 0
M  V30 16 C 0.139784 4.303659 4.160696 0
M  V30 17 O 0.375739 5.557648 4.688668 0
M  V30 18 C 0.580198 4.295512 1.671429 0
M  V30 19 N 1.340132 4.018917 0.598222 0
M  V30 20 C 2.531952 0.906969 -0.705866 0
M  V30 21 C 0.089004 -0.659469 -0.517694 0
M  V30 22 C -0.991415 -1.431192 -0.148436 0
M  V30 23 C -0.944210 -2.806759 -0.145497 0
M  V30 24 O -1.860193 -3.781800 0.170848 0
M  V30 25 C -3.158695 -3.435346 0.580054 0
M  V30 26 C -3.498920 -4.067631 1.938734 0
M  V30 27 C -3.415769 -5.555991 1.758330 0
M  V30 28 O -2.963125 -5.975775 0.535448 0
M  V30 29 C -3.751693 -5.539365 -0.526038 0
M  V30 30 C -4.134015 -4.097604 -0.409186 0
M  V30 31 H 2.310613 -3.011937 -1.224067 0
M  V30 32 H 3.245871 -1.655961 -2.753616 0
M  V30 33 H 5.053020 0.021657 -3.273789 0
M  V30 34 H 4.131045 3.844564 -0.372285 0
M  V30 35 H 3.927036 2.632424 2.277309 0
M  V30 36 H 2.503158 3.164850 4.132152 0
M  V30 37 H 0.428774 3.530994 4.931927 0
M  V30 38 H -0.940011 4.170903 4.005966 0
M  V30 39 H -0.487850 6.029631 4.867090 0
M  V30 40 H -0.373866 4.769119 1.501027 0
M  V30 41 H 1.784537 1.140331 0.039682 0
M  V30 42 H -0.077642 0.416321 -0.477195 0
M  V30 43 H -1.927066 -1.033704 0.157417 0
M  V30 44 H -3.330534 -2.357978 0.600479 0
M  V30 45 H -2.815895 -3.668083 2.706223 0
M  V30 46 H -4.552646 -3.748997 2.146066 0
M  V30 47 H -2.648433 -5.911554 2.507381 0
M  V30 48 H -4.366941 -6.031368 2.085995 0
M  V30 49 H -4.624217 -6.175749 -0.736738 0
M  V30 50 H -3.082033 -5.618037 -1.432866 0
M  V30 51 H -4.161755 -3.547957 -1.368086 0
M  V30 52 H -5.137547 -4.005218 0.045599 0
M  V30 END ATOM
M  V30 BEGIN BOND
M  V30 1 3 1 2
M  V30 2 1 2 3
M  V30 3 2 3 4
M  V30 4 1 4 5
M  V30 5 1 5 6
M  V30 6 2 6 7
M  V30 7 1 7 8
M  V30 8 2 8 9
M  V30 9 1 9 10
M  V30 10 1 10 11
M  V30 11 1 11 12
M  V30 12 2 12 13
M  V30 13 1 13 14
M  V30 14 2 14 15
M  V30 15 1 15 16
M  V30 16 1 16 17
M  V30 17 1 15 18
M  V30 18 2 18 19
M  V30 19 2 10 20
M  V30 20 2 5 21
M  V30 21 1 21 22
M  V30 22 2 22 23
M  V30 23 1 23 24
M  V30 24 1 24 25
M  V30 25 1 25 26
M  V30 26 1 26 27
M  V30 27 1 27 28
M  V30 28 1 28 29
M  V30 29 1 29 30
M  V30 30 1 23 3
M  V30 31 1 30 25
M  V30 32 1 20 6
M  V30 33 1 19 12
M  V30 34 1 4 31
M  V30 35 1 7 32
M  V30 36 1 8 33
M  V30 37 1 11 34
M  V30 38 1 13 35
M  V30 39 1 14 36
M  V30 40 1 16 37
M  V30 41 1 16 38
M  V30 42 1 17 39
M  V30 43 1 18 40
M  V30 44 1 20 41
M  V30 45 1 21 42
M  V30 46 1 22 43
M  V30 47 1 25 44
M  V30 48 1 26 45
M  V30 49 1 26 46
M  V30 50 1 27 47
M  V30 51 1 27 48
M  V30 52 1 29 49
M  V30 53 1 29 50
M  V30 54 1 30 51
M  V30 55 1 30 52
M  V30 END BOND
M  V30 END CTAB
M  END
>  <Dataset>  (214) 
ChEMBL_Kinases

>  <Ligand_Instance>  (214) 
nan

>  <PDB_ID>  (214) 
nan

>  <Standardized_SMILES>  (214) 
N#Cc1cc(-c2ccnc(Nc3ccc(CO)cn3)c2)ccc1OC1CCOCC1

>  <Name>  (214) 
nan

>  <Pocket>  (214) 
nan

>  <ATP_Site>  (214) 
nan

>  <Peripheral>  (214) 
nan

>  <Num_H_Atoms_ProtBoundConf>  (214) 
nan

>  <Num_Resolved_Atoms>  (214) 
nan

>  <Num_Not_Resolved_Atoms>  (214) 
nan

$$$$
CHEMBL3687150
     RDKit          3D

  0  0  0  0  0  0  0  0  0  0999 V3000
M  V30 BEGIN CTAB
M  V30 COUNTS 49 52 0 0 0
M  V30 BEGIN ATOM
M  V30 1 C 3.495720 3.223400 -1.938039 0
M  V30 2 N 3.568076 2.447028 -0.710862 0
M  V30 3 C 4.068799 1.180634 -0.602852 0
M  V30 4 C 3.913307 0.894842 0.750626 0
M  V30 5 C 3.334119 1.963902 1.433887 0
M  V30 6 N 3.226666 1.561602 2.793535 0
M  V30 7 C 2.214398 0.623836 3.143736 0
M  V30 8 C 1.332091 0.155291 2.163599 0
M  V30 9 C 0.335086 -0.797029 2.386026 0
M  V30 10 C -0.463650 -1.125785 1.198333 0
M  V30 11 C -0.706591 -0.095240 0.290136 0
M  V30 12 C -1.414741 -0.316385 -0.875039 0
M  V30 13 C -1.913574 -1.569774 -1.191440 0
M  V30 14 O -2.635372 -1.969206 -2.296161 0
M  V30 15 C -3.067038 -1.102326 -3.321141 0
M  V30 16 C -2.500878 -1.375337 -4.668739 0
M  V30 17 C -3.470214 -2.182931 -5.495319 0
M  V30 18 O -4.658286 -1.532686 -5.737642 0
M  V30 19 C -4.949028 -0.590419 -4.762799 0
M  V30 20 C -4.589701 -1.075224 -3.383313 0
M  V30 21 C -1.656567 -2.565796 -0.276077 0
M  V30 22 C -2.119984 -3.915399 -0.523996 0
M  V30 23 N -2.490123 -5.017709 -0.721652 0
M  V30 24 C -0.951036 -2.383748 0.904937 0
M  V30 25 C 0.229864 -1.295537 3.674966 0
M  V30 26 C 1.098549 -0.823407 4.619452 0
M  V30 27 N 2.069495 0.109524 4.376074 0
M  V30 28 N 3.155108 2.870144 0.467392 0
M  V30 29 H 2.704812 3.968686 -1.959262 0
M  V30 30 H 3.338268 2.547918 -2.825136 0
M  V30 31 H 4.454040 3.769328 -2.153716 0
M  V30 32 H 4.456628 0.667899 -1.488376 0
M  V30 33 H 4.292947 -0.130547 0.940877 0
M  V30 34 H 3.869006 1.934009 3.528587 0
M  V30 35 H 1.478114 0.593581 1.175118 0
M  V30 36 H -0.364760 0.930623 0.437816 0
M  V30 37 H -1.592988 0.497690 -1.578230 0
M  V30 38 H -2.769057 -0.044231 -3.064088 0
M  V30 39 H -1.512892 -1.881324 -4.599123 0
M  V30 40 H -2.320145 -0.399440 -5.178677 0
M  V30 41 H -2.940526 -2.424656 -6.466983 0
M  V30 42 H -3.632673 -3.147986 -4.990315 0
M  V30 43 H -4.431795 0.380910 -4.957593 0
M  V30 44 H -6.042332 -0.421144 -4.789646 0
M  V30 45 H -4.926618 -0.329865 -2.624426 0
M  V30 46 H -5.013426 -2.069455 -3.154214 0
M  V30 47 H -0.746392 -3.171614 1.643031 0
M  V30 48 H -0.548669 -2.022552 3.792394 0
M  V30 49 H 0.941467 -1.260364 5.594364 0
M  V30 END ATOM
M  V30 BEGIN BOND
M  V30 1 1 1 2
M  V30 2 1 2 3
M  V30 3 2 3 4
M  V30 4 1 4 5
M  V30 5 1 5 6
M  V30 6 1 6 7
M  V30 7 2 7 8
M  V30 8 1 8 9
M  V30 9 1 9 10
M  V30 10 2 10 11
M  V30 11 1 11 12
M  V30 12 2 12 13
M  V30 13 1 13 14
M  V30 14 1 14 15
M  V30 15 1 15 16
M  V30 16 1 16 17
M  V30 17 1 17 18
M  V30 18 1 18 19
M  V30 19 1 19 20
M  V30 20 1 13 21
M  V30 21 1 21 22
M  V30 22 3 22 23
M  V30 23 2 21 24
M  V30 24 2 9 25
M  V30 25 1 25 26
M  V30 26 2 26 27
M  V30 27 2 5 28
M  V30 28 1 28 2
M  V30 29 1 27 7
M  V30 30 1 24 10
M  V30 31 1 20 15
M  V30 32 1 1 29
M  V30 33 1 1 30
M  V30 34 1 1 31
M  V30 35 1 3 32
M  V30 36 1 4 33
M  V30 37 1 6 34
M  V30 38 1 8 35
M  V30 39 1 11 36
M  V30 40 1 12 37
M  V30 41 1 15 38
M  V30 42 1 16 39
M  V30 43 1 16 40
M  V30 44 1 17 41
M  V30 45 1 17 42
M  V30 46 1 19 43
M  V30 47 1 19 44
M  V30 48 1 20 45
M  V30 49 1 20 46
M  V30 50 1 24 47
M  V30 51 1 25 48
M  V30 52 1 26 49
M  V30 END BOND
M  V30 END CTAB
M  END
>  <Dataset>  (215) 
ChEMBL_Kinases

>  <Ligand_Instance>  (215) 
nan

>  <PDB_ID>  (215) 
nan

>  <Standardized_SMILES>  (215) 
Cn1ccc(Nc2cc(-c3ccc(OC4CCOCC4)c(C#N)c3)ccn2)n1

>  <Name>  (215) 
nan

>  <Pocket>  (215) 
nan

>  <ATP_Site>  (215) 
nan

>  <Peripheral>  (215) 
nan

>  <Num_H_Atoms_ProtBoundConf>  (215) 
nan

>  <Num_Resolved_Atoms>  (215) 
nan

>  <Num_Not_Resolved_Atoms>  (215) 
nan

$$$$
CHEMBL3684982
     RDKit          3D

  0  0  0  0  0  0  0  0  0  0999 V3000
M  V30 BEGIN CTAB
M  V30 COUNTS 66 71 0 0 0
M  V30 BEGIN ATOM
M  V30 1 C 2.099544 -2.501866 4.891925 0
M  V30 2 C 3.307244 -2.312590 4.026966 0
M  V30 3 O 4.221463 -2.967080 3.466417 0
M  V30 4 N 3.573510 -0.937285 3.678231 0
M  V30 5 C 4.709966 -0.536426 2.838579 0
M  V30 6 C 4.094795 -0.144803 1.533619 0
M  V30 7 C 4.631829 -0.283936 0.274113 0
M  V30 8 C 3.902877 0.126716 -0.824079 0
M  V30 9 C 2.640821 0.677447 -0.702977 0
M  V30 10 N 1.899487 1.082464 -1.849526 0
M  V30 11 C 0.600064 1.620275 -1.630785 0
M  V30 12 N 0.075635 2.856292 -1.532881 0
M  V30 13 C -1.235199 3.055544 -1.305065 0
M  V30 14 C -2.057343 1.980105 -1.169048 0
M  V30 15 C -3.400154 1.792841 -0.936594 0
M  V30 16 C -4.415553 2.739644 -0.757383 0
M  V30 17 C -5.705116 2.282948 -0.536984 0
M  V30 18 N -5.929844 0.959131 -0.504185 0
M  V30 19 C -5.013519 0.009093 -0.666677 0
M  V30 20 C -3.723012 0.452201 -0.887179 0
M  V30 21 N -2.582699 -0.215668 -1.088378 0
M  V30 22 C -2.366234 -1.656283 -1.127061 0 CFG=1
M  V30 23 C -0.990761 -1.973010 -1.699393 0
M  V30 24 C -0.862042 -3.455411 -1.893210 0
M  V30 25 C -1.925686 -4.270455 -1.240987 0 CFG=2
M  V30 26 C -3.109228 -4.531398 -2.156823 0
M  V30 27 C -2.354550 -3.776944 0.109929 0
M  V30 28 C -2.379054 -2.278978 0.248832 0
M  V30 29 C -1.571024 0.692362 -1.260143 0
M  V30 30 N -0.232987 0.594425 -1.492529 0
M  V30 31 N 2.174714 0.786609 0.552441 0
M  V30 32 C 2.837479 0.405424 1.656188 0
M  V30 33 C 2.028552 0.677318 2.897682 0
M  V30 34 C 1.832217 2.189011 2.950186 0
M  V30 35 C 2.746194 0.194660 4.117799 0
M  V30 36 H 1.884033 -3.575705 4.986393 0
M  V30 37 H 2.266181 -2.106294 5.908681 0
M  V30 38 H 1.243568 -1.960602 4.414462 0
M  V30 39 H 5.406222 -1.371126 2.723196 0
M  V30 40 H 5.137229 0.366166 3.296808 0
M  V30 41 H 5.618456 -0.720572 0.251546 0
M  V30 42 H 4.348524 0.007462 -1.802561 0
M  V30 43 H 2.331783 0.969302 -2.781334 0
M  V30 44 H -1.585116 4.053562 -1.238915 0
M  V30 45 H -4.242777 3.806785 -0.782177 0
M  V30 46 H -6.571069 2.944597 -0.383564 0
M  V30 47 H -5.229238 -1.053562 -0.634580 0
M  V30 48 H -3.194027 -2.051393 -1.733149 0
M  V30 49 H -0.754987 -1.445890 -2.620424 0
M  V30 50 H -0.270950 -1.685088 -0.877906 0
M  V30 51 H 0.127448 -3.805581 -1.519886 0
M  V30 52 H -0.869807 -3.701669 -2.976460 0
M  V30 53 H -1.483252 -5.294646 -1.047367 0
M  V30 54 H -3.006504 -3.983070 -3.138635 0
M  V30 55 H -4.083849 -4.282006 -1.660166 0
M  V30 56 H -3.201600 -5.593983 -2.461252 0
M  V30 57 H -3.358317 -4.172472 0.389045 0
M  V30 58 H -1.649206 -4.166399 0.901882 0
M  V30 59 H -1.449635 -1.929757 0.782745 0
M  V30 60 H -3.253145 -1.957294 0.848815 0
M  V30 61 H 1.018297 0.236572 2.846233 0
M  V30 62 H 1.172759 2.435065 3.811442 0
M  V30 63 H 1.365412 2.515383 2.022904 0
M  V30 64 H 2.823797 2.706789 3.044701 0
M  V30 65 H 2.049716 -0.090031 4.905200 0
M  V30 66 H 3.444449 0.998781 4.460539 0
M  V30 END ATOM
M  V30 BEGIN BOND
M  V30 1 1 1 2
M  V30 2 2 2 3
M  V30 3 1 2 4
M  V30 4 1 4 5
M  V30 5 1 5 6
M  V30 6 2 6 7
M  V30 7 1 7 8
M  V30 8 2 8 9
M  V30 9 1 9 10
M  V30 10 1 10 11
M  V30 11 2 11 12
M  V30 12 1 12 13
M  V30 13 2 13 14
M  V30 14 1 14 15
M  V30 15 2 15 16
M  V30 16 1 16 17
M  V30 17 2 17 18
M  V30 18 1 18 19
M  V30 19 2 19 20
M  V30 20 1 20 21
M  V30 21 1 21 22
M  V30 22 1 22 23
M  V30 23 1 23 24
M  V30 24 1 24 25
M  V30 25 1 25 26
M  V30 26 1 25 27
M  V30 27 1 27 28
M  V30 28 1 21 29
M  V30 29 2 29 30
M  V30 30 1 9 31
M  V30 31 2 31 32
M  V30 32 1 32 33
M  V30 33 1 33 34
M  V30 34 1 33 35
M  V30 35 1 35 4
M  V30 36 1 32 6
M  V30 37 1 30 11
M  V30 38 1 29 14
M  V30 39 1 20 15
M  V30 40 1 28 22
M  V30 41 1 1 36
M  V30 42 1 1 37
M  V30 43 1 1 38
M  V30 44 1 5 39
M  V30 45 1 5 40
M  V30 46 1 7 41
M  V30 47 1 8 42
M  V30 48 1 10 43
M  V30 49 1 13 44
M  V30 50 1 16 45
M  V30 51 1 17 46
M  V30 52 1 19 47
M  V30 53 1 22 48 CFG=3
M  V30 54 1 23 49
M  V30 55 1 23 50
M  V30 56 1 24 51
M  V30 57 1 24 52
M  V30 58 1 25 53 CFG=1
M  V30 59 1 26 54
M  V30 60 1 26 55
M  V30 61 1 26 56
M  V30 62 1 27 57
M  V30 63 1 27 58
M  V30 64 1 28 59
M  V30 65 1 28 60
M  V30 66 1 33 61
M  V30 67 1 34 62
M  V30 68 1 34 63
M  V30 69 1 34 64
M  V30 70 1 35 65
M  V30 71 1 35 66
M  V30 END BOND
M  V30 END CTAB
M  END
>  <Dataset>  (216) 
ChEMBL_Kinases

>  <Ligand_Instance>  (216) 
nan

>  <PDB_ID>  (216) 
nan

>  <Standardized_SMILES>  (216) 
CC(=O)N1Cc2ccc(Nc3ncc4c5ccncc5n([C@H]5CC[C@H](C)CC5)c4n3)nc2C(C)C1

>  <Name>  (216) 
nan

>  <Pocket>  (216) 
nan

>  <ATP_Site>  (216) 
nan

>  <Peripheral>  (216) 
nan

>  <Num_H_Atoms_ProtBoundConf>  (216) 
nan

>  <Num_Resolved_Atoms>  (216) 
nan

>  <Num_Not_Resolved_Atoms>  (216) 
nan

$$$$
CHEMBL3684981
     RDKit          3D

  0  0  0  0  0  0  0  0  0  0999 V3000
M  V30 BEGIN CTAB
M  V30 COUNTS 61 66 0 0 0
M  V30 BEGIN ATOM
M  V30 1 C 1.849180 0.479586 3.517755 0
M  V30 2 C 2.494077 -0.573249 2.653029 0
M  V30 3 C 3.618376 -1.306577 3.344266 0
M  V30 4 N 4.912277 -0.676923 3.132271 0
M  V30 5 C 5.278616 -0.717442 1.739190 0
M  V30 6 C 4.328090 0.025935 0.883355 0
M  V30 7 C 4.559623 0.672056 -0.307843 0
M  V30 8 C 3.510094 1.304076 -0.951467 0
M  V30 9 C 2.215603 1.323016 -0.455647 0
M  V30 10 N 1.137667 1.963851 -1.141238 0
M  V30 11 C -0.124983 1.895906 -0.463438 0
M  V30 12 N -0.699432 2.867084 0.270629 0
M  V30 13 C -1.892781 2.680936 0.883004 0
M  V30 14 C -2.486349 1.447547 0.715392 0
M  V30 15 C -3.684369 0.971212 1.208729 0
M  V30 16 C -4.657840 1.552040 2.009708 0
M  V30 17 C -5.778021 0.805883 2.347212 0
M  V30 18 N -5.900744 -0.469072 1.891072 0
M  V30 19 C -4.964558 -1.035311 1.117083 0
M  V30 20 C -3.823377 -0.332292 0.750397 0
M  V30 21 N -2.752073 -0.647648 0.003150 0
M  V30 22 C -2.464130 -1.893683 -0.671498 0 CFG=1
M  V30 23 C -1.723854 -1.591149 -1.958159 0
M  V30 24 C -1.684654 -2.925785 -2.705456 0
M  V30 25 C -0.740922 -3.814308 -1.942596 0 CFG=2
M  V30 26 C -0.810197 -5.209611 -2.580923 0
M  V30 27 C -1.075585 -3.971316 -0.499081 0
M  V30 28 C -1.536456 -2.714546 0.190425 0
M  V30 29 C -1.928449 0.427375 -0.028100 0
M  V30 30 N -0.729808 0.717734 -0.600543 0
M  V30 31 N 2.066148 0.673655 0.708895 0
M  V30 32 C 3.032558 0.041939 1.386929 0
M  V30 33 H 2.550376 0.778663 4.321978 0
M  V30 34 H 1.621529 1.335336 2.842676 0
M  V30 35 H 0.947143 0.054916 3.984645 0
M  V30 36 H 1.710367 -1.328149 2.406120 0
M  V30 37 H 3.598979 -2.368370 3.022598 0
M  V30 38 H 3.374859 -1.291488 4.428900 0
M  V30 39 H 4.850539 0.282931 3.515904 0
M  V30 40 H 6.311824 -0.343573 1.668746 0
M  V30 41 H 5.273777 -1.782706 1.426857 0
M  V30 42 H 5.567646 0.627470 -0.645544 0
M  V30 43 H 3.740080 1.797319 -1.882220 0
M  V30 44 H 1.380972 2.412136 -2.061310 0
M  V30 45 H -2.285028 3.506662 1.451592 0
M  V30 46 H -4.543618 2.574868 2.364461 0
M  V30 47 H -6.563975 1.198083 2.960609 0
M  V30 48 H -5.024313 -2.036390 0.737090 0
M  V30 49 H -3.399289 -2.396597 -0.906934 0
M  V30 50 H -2.149805 -0.779866 -2.540075 0
M  V30 51 H -0.655910 -1.371417 -1.702516 0
M  V30 52 H -1.326545 -2.807333 -3.729245 0
M  V30 53 H -2.711670 -3.360869 -2.616916 0
M  V30 54 H 0.309832 -3.486437 -2.116466 0
M  V30 55 H -1.891439 -5.377351 -2.834747 0
M  V30 56 H -0.207056 -5.255174 -3.493862 0
M  V30 57 H -0.431569 -5.980651 -1.862267 0
M  V30 58 H -0.131208 -4.295848 0.030526 0
M  V30 59 H -1.787724 -4.823641 -0.304602 0
M  V30 60 H -2.052141 -3.011446 1.124383 0
M  V30 61 H -0.648175 -2.102615 0.398546 0
M  V30 END ATOM
M  V30 BEGIN BOND
M  V30 1 1 1 2
M  V30 2 1 2 3
M  V30 3 1 3 4
M  V30 4 1 4 5
M  V30 5 1 5 6
M  V30 6 2 6 7
M  V30 7 1 7 8
M  V30 8 2 8 9
M  V30 9 1 9 10
M  V30 10 1 10 11
M  V30 11 2 11 12
M  V30 12 1 12 13
M  V30 13 2 13 14
M  V30 14 1 14 15
M  V30 15 2 15 16
M  V30 16 1 16 17
M  V30 17 2 17 18
M  V30 18 1 18 19
M  V30 19 2 19 20
M  V30 20 1 20 21
M  V30 21 1 21 22
M  V30 22 1 22 23
M  V30 23 1 23 24
M  V30 24 1 24 25
M  V30 25 1 25 26
M  V30 26 1 25 27
M  V30 27 1 27 28
M  V30 28 1 21 29
M  V30 29 2 29 30
M  V30 30 1 9 31
M  V30 31 2 31 32
M  V30 32 1 32 2
M  V30 33 1 32 6
M  V30 34 1 30 11
M  V30 35 1 29 14
M  V30 36 1 20 15
M  V30 37 1 28 22
M  V30 38 1 1 33
M  V30 39 1 1 34
M  V30 40 1 1 35
M  V30 41 1 2 36
M  V30 42 1 3 37
M  V30 43 1 3 38
M  V30 44 1 4 39
M  V30 45 1 5 40
M  V30 46 1 5 41
M  V30 47 1 7 42
M  V30 48 1 8 43
M  V30 49 1 10 44
M  V30 50 1 13 45
M  V30 51 1 16 46
M  V30 52 1 17 47
M  V30 53 1 19 48
M  V30 54 1 22 49 CFG=3
M  V30 55 1 23 50
M  V30 56 1 23 51
M  V30 57 1 24 52
M  V30 58 1 24 53
M  V30 59 1 25 54 CFG=1
M  V30 60 1 26 55
M  V30 61 1 26 56
M  V30 62 1 26 57
M  V30 63 1 27 58
M  V30 64 1 27 59
M  V30 65 1 28 60
M  V30 66 1 28 61
M  V30 END BOND
M  V30 END CTAB
M  END
>  <Dataset>  (217) 
ChEMBL_Kinases

>  <Ligand_Instance>  (217) 
nan

>  <PDB_ID>  (217) 
nan

>  <Standardized_SMILES>  (217) 
CC1CNCc2ccc(Nc3ncc4c5ccncc5n([C@H]5CC[C@H](C)CC5)c4n3)nc21

>  <Name>  (217) 
nan

>  <Pocket>  (217) 
nan

>  <ATP_Site>  (217) 
nan

>  <Peripheral>  (217) 
nan

>  <Num_H_Atoms_ProtBoundConf>  (217) 
nan

>  <Num_Resolved_Atoms>  (217) 
nan

>  <Num_Not_Resolved_Atoms>  (217) 
nan

$$$$
CHEMBL3684980
     RDKit          3D

  0  0  0  0  0  0  0  0  0  0999 V3000
M  V30 BEGIN CTAB
M  V30 COUNTS 65 70 0 0 0
M  V30 BEGIN ATOM
M  V30 1 C 2.372810 -0.788738 3.004448 0
M  V30 2 C 3.045956 0.471052 2.500001 0 CFG=1
M  V30 3 C 3.180321 0.438114 1.011353 0
M  V30 4 C 2.608660 1.773503 0.501151 0
M  V30 5 C 1.199932 1.857666 0.978844 0 CFG=2
M  V30 6 N 0.318164 2.683984 0.197504 0
M  V30 7 C 0.474878 4.003111 -0.086807 0
M  V30 8 C 1.419611 4.933622 0.225672 0
M  V30 9 N 1.332315 6.208282 -0.196471 0
M  V30 10 C 0.317937 6.682063 -0.957762 0
M  V30 11 C -0.661596 5.772614 -1.297812 0
M  V30 12 C -0.581896 4.464167 -0.870616 0
M  V30 13 C -1.414537 3.396761 -1.075242 0
M  V30 14 C -2.592416 3.242285 -1.757085 0
M  V30 15 N -3.204933 2.045235 -1.789676 0
M  V30 16 C -2.666871 0.989746 -1.153170 0
M  V30 17 N -3.298724 -0.284586 -1.176192 0
M  V30 18 C -2.694237 -1.375732 -0.494763 0
M  V30 19 C -3.328052 -2.597117 -0.542794 0
M  V30 20 C -2.761845 -3.670800 0.107933 0
M  V30 21 C -1.577492 -3.522012 0.796885 0
M  V30 22 C -0.978886 -2.259027 0.811580 0
M  V30 23 N -1.538711 -1.212156 0.172268 0
M  V30 24 C -0.779381 -4.509041 1.563180 0
M  V30 25 C -1.373903 -5.868534 1.339081 0
M  V30 26 N -2.100308 -5.957985 0.120754 0
M  V30 27 C -1.382446 -5.725168 -1.083200 0
M  V30 28 C -0.368750 -6.794236 -1.400768 0
M  V30 29 O 0.608641 -6.962392 -0.452988 0
M  V30 30 C -3.258026 -5.080830 0.192835 0
M  V30 31 N -1.507987 1.169170 -0.489848 0
M  V30 32 C -0.848961 2.343262 -0.422409 0
M  V30 33 C 1.204142 2.205319 2.441060 0
M  V30 34 C 2.470915 1.728143 3.064054 0
M  V30 35 H 1.351356 -0.548007 3.335262 0
M  V30 36 H 2.424593 -1.614781 2.259233 0
M  V30 37 H 2.897502 -1.209018 3.911242 0
M  V30 38 H 4.096808 0.414834 2.910432 0
M  V30 39 H 4.238506 0.360889 0.662488 0
M  V30 40 H 2.535109 -0.348261 0.569904 0
M  V30 41 H 3.290958 2.502661 1.032467 0
M  V30 42 H 2.760755 1.773705 -0.577607 0
M  V30 43 H 0.791512 0.811364 0.920485 0
M  V30 44 H 2.261353 4.658915 0.823320 0
M  V30 45 H 0.256943 7.693659 -1.288273 0
M  V30 46 H -1.498568 6.061868 -1.896896 0
M  V30 47 H -3.027308 4.075054 -2.265058 0
M  V30 48 H -4.194034 -0.386002 -1.695289 0
M  V30 49 H -4.247891 -2.827559 -1.045536 0
M  V30 50 H -0.052838 -2.002374 1.312405 0
M  V30 51 H -0.788810 -4.271919 2.663563 0
M  V30 52 H 0.298470 -4.471348 1.288427 0
M  V30 53 H -2.131843 -6.008416 2.166383 0
M  V30 54 H -0.643729 -6.691010 1.497207 0
M  V30 55 H -0.905862 -4.756456 -1.208923 0
M  V30 56 H -2.143779 -5.791337 -1.916582 0
M  V30 57 H -0.861733 -7.802505 -1.529004 0
M  V30 58 H 0.103964 -6.605506 -2.385596 0
M  V30 59 H 1.538251 -6.965762 -0.819692 0
M  V30 60 H -3.877786 -5.277342 -0.696433 0
M  V30 61 H -3.806789 -5.277671 1.137044 0
M  V30 62 H 0.300257 1.752548 2.905014 0
M  V30 63 H 1.187209 3.318538 2.516390 0
M  V30 64 H 3.275035 2.512264 3.094199 0
M  V30 65 H 2.257002 1.511427 4.143211 0
M  V30 END ATOM
M  V30 BEGIN BOND
M  V30 1 1 1 2
M  V30 2 1 2 3
M  V30 3 1 3 4
M  V30 4 1 4 5
M  V30 5 1 5 6
M  V30 6 1 6 7
M  V30 7 2 7 8
M  V30 8 1 8 9
M  V30 9 2 9 10
M  V30 10 1 10 11
M  V30 11 2 11 12
M  V30 12 1 12 13
M  V30 13 2 13 14
M  V30 14 1 14 15
M  V30 15 2 15 16
M  V30 16 1 16 17
M  V30 17 1 17 18
M  V30 18 2 18 19
M  V30 19 1 19 20
M  V30 20 2 20 21
M  V30 21 1 21 22
M  V30 22 2 22 23
M  V30 23 1 21 24
M  V30 24 1 24 25
M  V30 25 1 25 26
M  V30 26 1 26 27
M  V30 27 1 27 28
M  V30 28 1 28 29
M  V30 29 1 26 30
M  V30 30 1 16 31
M  V30 31 2 31 32
M  V30 32 1 5 33
M  V30 33 1 33 34
M  V30 34 1 34 2
M  V30 35 1 32 6
M  V30 36 1 12 7
M  V30 37 1 32 13
M  V30 38 1 23 18
M  V30 39 1 30 20
M  V30 40 1 1 35
M  V30 41 1 1 36
M  V30 42 1 1 37
M  V30 43 1 2 38 CFG=1
M  V30 44 1 3 39
M  V30 45 1 3 40
M  V30 46 1 4 41
M  V30 47 1 4 42
M  V30 48 1 5 43 CFG=1
M  V30 49 1 8 44
M  V30 50 1 10 45
M  V30 51 1 11 46
M  V30 52 1 14 47
M  V30 53 1 17 48
M  V30 54 1 19 49
M  V30 55 1 22 50
M  V30 56 1 24 51
M  V30 57 1 24 52
M  V30 58 1 25 53
M  V30 59 1 25 54
M  V30 60 1 27 55
M  V30 61 1 27 56
M  V30 62 1 28 57
M  V30 63 1 28 58
M  V30 64 1 29 59
M  V30 65 1 30 60
M  V30 66 1 30 61
M  V30 67 1 33 62
M  V30 68 1 33 63
M  V30 69 1 34 64
M  V30 70 1 34 65
M  V30 END BOND
M  V30 END CTAB
M  END
>  <Dataset>  (218) 
ChEMBL_Kinases

>  <Ligand_Instance>  (218) 
nan

>  <PDB_ID>  (218) 
nan

>  <Standardized_SMILES>  (218) 
C[C@H]1CC[C@H](n2c3cnccc3c3cnc(Nc4cc5c(cn4)CCN(CCO)C5)nc32)CC1

>  <Name>  (218) 
nan

>  <Pocket>  (218) 
nan

>  <ATP_Site>  (218) 
nan

>  <Peripheral>  (218) 
nan

>  <Num_H_Atoms_ProtBoundConf>  (218) 
nan

>  <Num_Resolved_Atoms>  (218) 
nan

>  <Num_Not_Resolved_Atoms>  (218) 
nan

$$$$
CHEMBL3684979
     RDKit          3D

  0  0  0  0  0  0  0  0  0  0999 V3000
M  V30 BEGIN CTAB
M  V30 COUNTS 58 63 0 0 0
M  V30 BEGIN ATOM
M  V30 1 C 0.936064 -3.537898 -0.199308 0
M  V30 2 C 1.584058 -2.261540 0.300006 0 CFG=1
M  V30 3 C 1.066210 -2.016016 1.701542 0
M  V30 4 C 1.865534 -1.004029 2.442100 0
M  V30 5 C 2.846700 -0.215341 1.655665 0 CFG=2
M  V30 6 N 2.324044 1.012954 1.079318 0
M  V30 7 C 3.091922 1.902661 0.444750 0
M  V30 8 C 4.447504 1.979526 0.149508 0
M  V30 9 N 4.939806 3.054337 -0.534138 0
M  V30 10 C 4.115689 4.045221 -0.925849 0
M  V30 11 C 2.754634 4.061707 -0.681023 0
M  V30 12 C 2.286700 2.944943 0.020830 0
M  V30 13 C 0.990936 2.679161 0.409930 0
M  V30 14 C -0.248211 3.271316 0.313627 0
M  V30 15 N -1.377184 2.730194 0.822323 0
M  V30 16 C -1.310606 1.548440 1.462375 0
M  V30 17 N -2.314572 0.760198 2.074847 0
M  V30 18 C -3.001765 -0.327907 1.524607 0
M  V30 19 C -2.697190 -0.722691 0.251776 0
M  V30 20 C -3.394574 -1.806030 -0.252354 0
M  V30 21 C -4.340532 -2.399275 0.570779 0
M  V30 22 C -4.618626 -1.970267 1.849861 0
M  V30 23 N -3.920092 -0.907371 2.317055 0
M  V30 24 C -5.074850 -3.551470 0.028940 0
M  V30 25 C -4.297799 -4.251171 -1.067862 0
M  V30 26 N -3.873139 -3.335119 -2.085989 0
M  V30 27 C -3.075221 -2.246499 -1.623587 0
M  V30 28 N -0.097029 0.970977 1.555170 0
M  V30 29 C 1.038639 1.470450 1.068061 0
M  V30 30 C 3.629967 -1.004185 0.642502 0
M  V30 31 C 3.085758 -2.401228 0.450719 0
M  V30 32 H 0.961570 -4.335131 0.551786 0
M  V30 33 H -0.140003 -3.266430 -0.372099 0
M  V30 34 H 1.348634 -3.805948 -1.180168 0
M  V30 35 H 1.343504 -1.488092 -0.423802 0
M  V30 36 H 1.106575 -3.038243 2.188474 0
M  V30 37 H -0.040191 -1.813472 1.683032 0
M  V30 38 H 1.255981 -0.294320 3.034211 0
M  V30 39 H 2.444806 -1.571596 3.232451 0
M  V30 40 H 3.607807 0.157779 2.410795 0
M  V30 41 H 5.128673 1.196867 0.452846 0
M  V30 42 H 4.519083 4.904245 -1.473184 0
M  V30 43 H 2.090368 4.834493 -0.982758 0
M  V30 44 H -0.320641 4.212943 -0.191870 0
M  V30 45 H -2.407416 1.189227 3.015689 0
M  V30 46 H -1.933600 -0.190917 -0.324683 0
M  V30 47 H -5.368211 -2.476194 2.441628 0
M  V30 48 H -6.069300 -3.231413 -0.288203 0
M  V30 49 H -5.199204 -4.324157 0.840684 0
M  V30 50 H -3.468631 -4.866901 -0.639543 0
M  V30 51 H -4.989940 -4.984847 -1.533223 0
M  V30 52 H -3.298451 -3.897347 -2.768033 0
M  V30 53 H -3.285450 -1.380263 -2.305810 0
M  V30 54 H -1.999130 -2.498454 -1.738961 0
M  V30 55 H 4.692569 -1.122718 0.922966 0
M  V30 56 H 3.647163 -0.541637 -0.370708 0
M  V30 57 H 3.266476 -2.986269 1.374536 0
M  V30 58 H 3.488790 -2.893107 -0.434972 0
M  V30 END ATOM
M  V30 BEGIN BOND
M  V30 1 1 1 2
M  V30 2 1 2 3
M  V30 3 1 3 4
M  V30 4 1 4 5
M  V30 5 1 5 6
M  V30 6 1 6 7
M  V30 7 2 7 8
M  V30 8 1 8 9
M  V30 9 2 9 10
M  V30 10 1 10 11
M  V30 11 2 11 12
M  V30 12 1 12 13
M  V30 13 2 13 14
M  V30 14 1 14 15
M  V30 15 2 15 16
M  V30 16 1 16 17
M  V30 17 1 17 18
M  V30 18 2 18 19
M  V30 19 1 19 20
M  V30 20 2 20 21
M  V30 21 1 21 22
M  V30 22 2 22 23
M  V30 23 1 21 24
M  V30 24 1 24 25
M  V30 25 1 25 26
M  V30 26 1 26 27
M  V30 27 1 16 28
M  V30 28 2 28 29
M  V30 29 1 5 30
M  V30 30 1 30 31
M  V30 31 1 31 2
M  V30 32 1 29 6
M  V30 33 1 12 7
M  V30 34 1 29 13
M  V30 35 1 23 18
M  V30 36 1 27 20
M  V30 37 1 1 32
M  V30 38 1 1 33
M  V30 39 1 1 34
M  V30 40 1 2 35 CFG=3
M  V30 41 1 3 36
M  V30 42 1 3 37
M  V30 43 1 4 38
M  V30 44 1 4 39
M  V30 45 1 5 40 CFG=1
M  V30 46 1 8 41
M  V30 47 1 10 42
M  V30 48 1 11 43
M  V30 49 1 14 44
M  V30 50 1 17 45
M  V30 51 1 19 46
M  V30 52 1 22 47
M  V30 53 1 24 48
M  V30 54 1 24 49
M  V30 55 1 25 50
M  V30 56 1 25 51
M  V30 57 1 26 52
M  V30 58 1 27 53
M  V30 59 1 27 54
M  V30 60 1 30 55
M  V30 61 1 30 56
M  V30 62 1 31 57
M  V30 63 1 31 58
M  V30 END BOND
M  V30 END CTAB
M  END
>  <Dataset>  (219) 
ChEMBL_Kinases

>  <Ligand_Instance>  (219) 
nan

>  <PDB_ID>  (219) 
nan

>  <Standardized_SMILES>  (219) 
C[C@H]1CC[C@H](n2c3cnccc3c3cnc(Nc4cc5c(cn4)CCNC5)nc32)CC1

>  <Name>  (219) 
nan

>  <Pocket>  (219) 
nan

>  <ATP_Site>  (219) 
nan

>  <Peripheral>  (219) 
nan

>  <Num_H_Atoms_ProtBoundConf>  (219) 
nan

>  <Num_Resolved_Atoms>  (219) 
nan

>  <Num_Not_Resolved_Atoms>  (219) 
nan

$$$$
CHEMBL3684978
     RDKit          3D

  0  0  0  0  0  0  0  0  0  0999 V3000
M  V30 BEGIN CTAB
M  V30 COUNTS 68 73 0 0 0
M  V30 BEGIN ATOM
M  V30 1 C 6.317313 -0.135434 3.568097 0
M  V30 2 O 6.578976 1.236718 3.452264 0
M  V30 3 C 5.416282 1.905582 2.994304 0
M  V30 4 C 5.676467 3.357966 2.872051 0
M  V30 5 N 4.546037 4.129584 2.441362 0
M  V30 6 C 3.565054 4.203583 3.452433 0
M  V30 7 C 2.148363 4.368153 2.925893 0
M  V30 8 C 1.881457 3.129323 2.147253 0
M  V30 9 N 0.782442 2.320372 2.240415 0
M  V30 10 C 0.697969 1.224349 1.465202 0
M  V30 11 N -0.455386 0.404243 1.628521 0
M  V30 12 C -0.630063 -0.767290 0.848506 0
M  V30 13 N 0.252489 -1.734874 1.185238 0
M  V30 14 C 0.186741 -2.917202 0.518792 0
M  V30 15 C -0.792489 -3.041143 -0.466193 0
M  V30 16 C -1.003952 -4.160642 -1.240287 0
M  V30 17 C -0.409243 -5.421336 -1.333704 0
M  V30 18 C -0.874859 -6.350929 -2.257265 0
M  V30 19 N -1.912521 -6.011606 -3.062676 0
M  V30 20 C -2.468255 -4.780778 -2.947939 0
M  V30 21 C -2.054898 -3.837853 -2.065321 0
M  V30 22 N -2.481675 -2.565082 -1.813109 0
M  V30 23 C -3.519144 -1.809601 -2.391765 0 CFG=1
M  V30 24 C -4.663602 -2.429565 -3.060438 0
M  V30 25 C -5.463089 -3.373350 -2.242996 0
M  V30 26 C -5.193976 -3.268992 -0.786265 0 CFG=2
M  V30 27 C -6.486516 -3.683269 -0.070906 0
M  V30 28 C -4.789872 -1.950786 -0.252953 0
M  V30 29 C -4.195570 -1.011091 -1.253387 0
M  V30 30 C -1.702871 -2.073808 -0.828333 0
M  V30 31 N -1.525115 -0.963327 -0.094065 0
M  V30 32 C 1.676223 0.853896 0.555033 0
M  V30 33 C 2.774026 1.715970 0.502856 0
M  V30 34 C 2.914649 2.858249 1.278525 0
M  V30 35 C 4.133055 3.689882 1.135982 0
M  V30 36 H 7.222794 -0.656728 3.928865 0
M  V30 37 H 6.092616 -0.581184 2.557158 0
M  V30 38 H 5.435753 -0.331700 4.215528 0
M  V30 39 H 4.533598 1.636452 3.573997 0
M  V30 40 H 5.258824 1.522330 1.938969 0
M  V30 41 H 6.010867 3.819494 3.846653 0
M  V30 42 H 6.464627 3.504112 2.095312 0
M  V30 43 H 3.586676 3.315134 4.096125 0
M  V30 44 H 3.780065 5.071104 4.150556 0
M  V30 45 H 1.409946 4.424051 3.738613 0
M  V30 46 H 2.068585 5.289438 2.288420 0
M  V30 47 H -1.204277 0.611382 2.300899 0
M  V30 48 H 0.871240 -3.717682 0.752635 0
M  V30 49 H 0.428253 -5.660317 -0.665446 0
M  V30 50 H -0.399586 -7.331887 -2.321329 0
M  V30 51 H -3.256594 -4.614817 -3.615676 0
M  V30 52 H -3.075498 -1.028404 -3.052570 0
M  V30 53 H -4.506252 -2.726843 -4.132045 0
M  V30 54 H -5.399818 -1.565941 -3.264734 0
M  V30 55 H -6.573136 -3.216949 -2.426902 0
M  V30 56 H -5.338435 -4.455301 -2.516269 0
M  V30 57 H -4.453584 -4.066064 -0.465303 0
M  V30 58 H -6.369391 -4.598994 0.530277 0
M  V30 59 H -6.813490 -2.884383 0.637063 0
M  V30 60 H -7.333058 -3.811146 -0.800093 0
M  V30 61 H -5.617230 -1.476500 0.326766 0
M  V30 62 H -3.982831 -2.118382 0.521244 0
M  V30 63 H -3.598580 -0.199633 -0.867239 0
M  V30 64 H -5.072548 -0.514206 -1.759993 0
M  V30 65 H 1.613755 -0.022431 -0.074550 0
M  V30 66 H 3.542609 1.429256 -0.207921 0
M  V30 67 H 3.955251 4.569348 0.463628 0
M  V30 68 H 4.977181 3.096611 0.697006 0
M  V30 END ATOM
M  V30 BEGIN BOND
M  V30 1 1 1 2
M  V30 2 1 2 3
M  V30 3 1 3 4
M  V30 4 1 4 5
M  V30 5 1 5 6
M  V30 6 1 6 7
M  V30 7 1 7 8
M  V30 8 2 8 9
M  V30 9 1 9 10
M  V30 10 1 10 11
M  V30 11 1 11 12
M  V30 12 2 12 13
M  V30 13 1 13 14
M  V30 14 2 14 15
M  V30 15 1 15 16
M  V30 16 2 16 17
M  V30 17 1 17 18
M  V30 18 2 18 19
M  V30 19 1 19 20
M  V30 20 2 20 21
M  V30 21 1 21 22
M  V30 22 1 22 23
M  V30 23 1 23 24
M  V30 24 1 24 25
M  V30 25 1 25 26
M  V30 26 1 26 27
M  V30 27 1 26 28
M  V30 28 1 28 29
M  V30 29 1 22 30
M  V30 30 2 30 31
M  V30 31 2 10 32
M  V30 32 1 32 33
M  V30 33 2 33 34
M  V30 34 1 34 35
M  V30 35 1 35 5
M  V30 36 1 34 8
M  V30 37 1 31 12
M  V30 38 1 30 15
M  V30 39 1 21 16
M  V30 40 1 29 23
M  V30 41 1 1 36
M  V30 42 1 1 37
M  V30 43 1 1 38
M  V30 44 1 3 39
M  V30 45 1 3 40
M  V30 46 1 4 41
M  V30 47 1 4 42
M  V30 48 1 6 43
M  V30 49 1 6 44
M  V30 50 1 7 45
M  V30 51 1 7 46
M  V30 52 1 11 47
M  V30 53 1 14 48
M  V30 54 1 17 49
M  V30 55 1 18 50
M  V30 56 1 20 51
M  V30 57 1 23 52 CFG=3
M  V30 58 1 24 53
M  V30 59 1 24 54
M  V30 60 1 25 55
M  V30 61 1 25 56
M  V30 62 1 26 57 CFG=1
M  V30 63 1 27 58
M  V30 64 1 27 59
M  V30 65 1 27 60
M  V30 66 1 28 61
M  V30 67 1 28 62
M  V30 68 1 29 63
M  V30 69 1 29 64
M  V30 70 1 32 65
M  V30 71 1 33 66
M  V30 72 1 35 67
M  V30 73 1 35 68
M  V30 END BOND
M  V30 END CTAB
M  END
>  <Dataset>  (220) 
ChEMBL_Kinases

>  <Ligand_Instance>  (220) 
nan

>  <PDB_ID>  (220) 
nan

>  <Standardized_SMILES>  (220) 
COCCN1CCc2nc(Nc3ncc4c5ccncc5n([C@H]5CC[C@H](C)CC5)c4n3)ccc2C1

>  <Name>  (220) 
nan

>  <Pocket>  (220) 
nan

>  <ATP_Site>  (220) 
nan

>  <Peripheral>  (220) 
nan

>  <Num_H_Atoms_ProtBoundConf>  (220) 
nan

>  <Num_Resolved_Atoms>  (220) 
nan

>  <Num_Not_Resolved_Atoms>  (220) 
nan

$$$$
CHEMBL3684539
     RDKit          3D

  0  0  0  0  0  0  0  0  0  0999 V3000
M  V30 BEGIN CTAB
M  V30 COUNTS 59 65 0 0 0
M  V30 BEGIN ATOM
M  V30 1 N 3.175631 -0.683609 4.218716 0
M  V30 2 C 3.863675 -0.963173 2.971019 0
M  V30 3 C 2.964156 -1.180874 1.813129 0
M  V30 4 C 3.189130 -0.794897 0.507824 0
M  V30 5 C 2.271779 -1.055019 -0.488123 0
M  V30 6 C 1.066153 -1.725938 -0.214087 0
M  V30 7 C 0.052188 -2.077688 -1.186867 0
M  V30 8 N 0.505665 -2.922916 -2.137370 0
M  V30 9 N -0.501215 -3.239125 -2.962302 0
M  V30 10 C -1.599811 -2.596999 -2.540632 0
M  V30 11 N -1.238529 -1.892646 -1.459653 0
M  V30 12 C -2.017782 -1.044864 -0.647082 0
M  V30 13 C -1.222012 -0.113965 -0.036365 0
M  V30 14 C -1.837201 0.757909 0.839712 0
M  V30 15 C -1.171201 1.834633 1.605192 0
M  V30 16 C 0.138676 1.697232 2.031859 0
M  V30 17 C 0.697619 2.757970 2.749844 0
M  V30 18 C -0.020923 3.901112 3.026985 0
M  V30 19 C -1.335220 4.025286 2.592307 0
M  V30 20 C -1.882852 2.985634 1.888700 0
M  V30 21 C -3.218514 0.625494 1.032951 0
M  V30 22 N -4.015209 -0.302435 0.419582 0
M  V30 23 C -3.375060 -1.148258 -0.440254 0
M  V30 24 N -4.332161 -2.022039 -1.075906 0
M  V30 25 C -4.110952 -2.487795 -2.430868 0
M  V30 26 C -5.338178 -2.685325 -3.068610 0
M  V30 27 C -5.305946 -3.114733 -4.378399 0
M  V30 28 C -4.106274 -3.342796 -5.040160 0
M  V30 29 C -2.885249 -3.157804 -4.438558 0
M  V30 30 C -2.923980 -2.731125 -3.135526 0
M  V30 31 C 0.888106 -2.096925 1.133503 0
M  V30 32 C 1.797946 -1.843096 2.141099 0
M  V30 33 C 4.803595 -2.137845 3.130926 0
M  V30 34 C 5.845824 -1.325160 2.395800 0
M  V30 35 C 5.052253 -0.096301 2.773050 0
M  V30 36 H 2.163372 -0.489853 4.056052 0
M  V30 37 H 3.240944 -1.499538 4.870849 0
M  V30 38 H 4.100143 -0.289559 0.313879 0
M  V30 39 H 2.426896 -0.765347 -1.500251 0
M  V30 40 H -0.194875 0.114238 -0.133460 0
M  V30 41 H 0.606923 0.773588 1.765644 0
M  V30 42 H 1.726781 2.545515 3.034886 0
M  V30 43 H 0.580572 4.611434 3.593161 0
M  V30 44 H -1.776625 4.958932 2.873456 0
M  V30 45 H -2.905559 3.128667 1.572997 0
M  V30 46 H -3.751727 1.277563 1.706958 0
M  V30 47 H -5.183602 -2.304608 -0.575123 0
M  V30 48 H -6.230907 -2.491784 -2.495224 0
M  V30 49 H -6.244578 -3.273904 -4.890795 0
M  V30 50 H -4.081121 -3.682554 -6.078720 0
M  V30 51 H -1.902488 -3.305284 -4.858331 0
M  V30 52 H -0.049411 -2.621966 1.363456 0
M  V30 53 H 1.520972 -2.189488 3.128285 0
M  V30 54 H 5.107951 -2.350522 4.186838 0
M  V30 55 H 4.477228 -3.036010 2.569685 0
M  V30 56 H 6.863032 -1.371821 2.838924 0
M  V30 57 H 5.866543 -1.562885 1.304193 0
M  V30 58 H 5.005499 0.717183 2.030447 0
M  V30 59 H 5.428777 0.291147 3.740307 0
M  V30 END ATOM
M  V30 BEGIN BOND
M  V30 1 1 1 2
M  V30 2 1 2 3
M  V30 3 2 3 4
M  V30 4 1 4 5
M  V30 5 2 5 6
M  V30 6 1 6 7
M  V30 7 2 7 8
M  V30 8 1 8 9
M  V30 9 2 9 10
M  V30 10 1 10 11
M  V30 11 1 11 12
M  V30 12 2 12 13
M  V30 13 1 13 14
M  V30 14 1 14 15
M  V30 15 2 15 16
M  V30 16 1 16 17
M  V30 17 2 17 18
M  V30 18 1 18 19
M  V30 19 2 19 20
M  V30 20 2 14 21
M  V30 21 1 21 22
M  V30 22 2 22 23
M  V30 23 1 23 24
M  V30 24 1 24 25
M  V30 25 2 25 26
M  V30 26 1 26 27
M  V30 27 2 27 28
M  V30 28 1 28 29
M  V30 29 2 29 30
M  V30 30 1 6 31
M  V30 31 2 31 32
M  V30 32 1 2 33
M  V30 33 1 33 34
M  V30 34 1 34 35
M  V30 35 1 35 2
M  V30 36 1 32 3
M  V30 37 1 11 7
M  V30 38 1 23 12
M  V30 39 1 30 25
M  V30 40 1 30 10
M  V30 41 1 20 15
M  V30 42 1 1 36
M  V30 43 1 1 37
M  V30 44 1 4 38
M  V30 45 1 5 39
M  V30 46 1 13 40
M  V30 47 1 16 41
M  V30 48 1 17 42
M  V30 49 1 18 43
M  V30 50 1 19 44
M  V30 51 1 20 45
M  V30 52 1 21 46
M  V30 53 1 24 47
M  V30 54 1 26 48
M  V30 55 1 27 49
M  V30 56 1 28 50
M  V30 57 1 29 51
M  V30 58 1 31 52
M  V30 59 1 32 53
M  V30 60 1 33 54
M  V30 61 1 33 55
M  V30 62 1 34 56
M  V30 63 1 34 57
M  V30 64 1 35 58
M  V30 65 1 35 59
M  V30 END BOND
M  V30 END CTAB
M  END
>  <Dataset>  (221) 
ChEMBL_Kinases

>  <Ligand_Instance>  (221) 
nan

>  <PDB_ID>  (221) 
nan

>  <Standardized_SMILES>  (221) 
NC1(c2ccc(-c3nnc4n3-c3cc(-c5ccccc5)cnc3Nc3ccccc3-4)cc2)CCC1

>  <Name>  (221) 
nan

>  <Pocket>  (221) 
nan

>  <ATP_Site>  (221) 
nan

>  <Peripheral>  (221) 
nan

>  <Num_H_Atoms_ProtBoundConf>  (221) 
nan

>  <Num_Resolved_Atoms>  (221) 
nan

>  <Num_Not_Resolved_Atoms>  (221) 
nan

$$$$
CHEMBL3684538
     RDKit          3D

  0  0  0  0  0  0  0  0  0  0999 V3000
M  V30 BEGIN CTAB
M  V30 COUNTS 65 71 0 0 0
M  V30 BEGIN ATOM
M  V30 1 C 4.734135 2.112233 5.888673 0
M  V30 2 C 4.276644 0.920139 5.326180 0
M  V30 3 C 4.149036 0.896565 3.956198 0
M  V30 4 C 4.431881 1.941831 3.093566 0
M  V30 5 C 4.254286 1.798069 1.622419 0
M  V30 6 C 2.833384 2.211801 1.216186 0
M  V30 7 N 2.675084 2.068858 -0.202536 0
M  V30 8 C 1.359936 2.437238 -0.677640 0
M  V30 9 C 0.322279 1.449012 -0.302396 0
M  V30 10 C -0.893902 1.634602 0.313994 0
M  V30 11 C -1.723185 0.568823 0.579123 0
M  V30 12 C -1.356867 -0.742961 0.229937 0
M  V30 13 C -2.181186 -1.894752 0.519666 0
M  V30 14 N -2.404473 -2.086696 1.854629 0
M  V30 15 N -3.129095 -3.196986 2.036106 0
M  V30 16 C -3.374950 -3.720939 0.846060 0
M  V30 17 N -2.799196 -2.922205 -0.064344 0
M  V30 18 C -2.777014 -3.038210 -1.468669 0
M  V30 19 C -2.609228 -1.808627 -2.044619 0
M  V30 20 C -2.512613 -1.768474 -3.420101 0
M  V30 21 C -2.596040 -2.982448 -4.114345 0
M  V30 22 N -2.767474 -4.219517 -3.557361 0
M  V30 23 C -2.857838 -4.207298 -2.193376 0
M  V30 24 N -3.115615 -5.548204 -1.711829 0
M  V30 25 C -3.913442 -5.766739 -0.519670 0
M  V30 26 C -4.598358 -6.982634 -0.636120 0
M  V30 27 C -5.422399 -7.337989 0.410810 0
M  V30 28 C -5.570342 -6.531553 1.531630 0
M  V30 29 C -4.904721 -5.331142 1.666430 0
M  V30 30 C -4.083879 -4.976266 0.625835 0
M  V30 31 C -0.110306 -0.916994 -0.399733 0
M  V30 32 C 0.712914 0.172246 -0.658832 0
M  V30 33 C 1.084815 3.873288 -0.341575 0
M  V30 34 C 0.622385 4.144232 -1.769863 0
M  V30 35 C 1.306492 2.826452 -2.139067 0
M  V30 36 C 4.883224 3.100367 3.717387 0
M  V30 37 C 5.032419 3.190107 5.074968 0
M  V30 38 H 4.831231 2.118667 6.976284 0
M  V30 39 H 4.024430 0.038701 5.896626 0
M  V30 40 H 3.792861 -0.025391 3.494155 0
M  V30 41 H 4.346494 0.701241 1.401188 0
M  V30 42 H 5.025416 2.291833 1.027386 0
M  V30 43 H 2.616260 3.236540 1.544216 0
M  V30 44 H 2.162492 1.541375 1.794691 0
M  V30 45 H 3.058208 1.203849 -0.590819 0
M  V30 46 H -1.114977 2.662272 0.554352 0
M  V30 47 H -2.662206 0.738074 1.058485 0
M  V30 48 H -2.580637 -0.833749 -1.636650 0
M  V30 49 H -2.377572 -0.898246 -4.043558 0
M  V30 50 H -2.524237 -3.007467 -5.193627 0
M  V30 51 H -2.740819 -6.363597 -2.230923 0
M  V30 52 H -4.437666 -7.564098 -1.532491 0
M  V30 53 H -5.962701 -8.273096 0.344608 0
M  V30 54 H -6.219056 -6.808229 2.358016 0
M  V30 55 H -4.942132 -4.633695 2.480159 0
M  V30 56 H 0.143868 -1.957621 -0.658967 0
M  V30 57 H 1.634331 -0.143063 -1.148810 0
M  V30 58 H 0.333992 4.056827 0.446961 0
M  V30 59 H 1.994700 4.494268 -0.162908 0
M  V30 60 H -0.466198 4.155305 -1.909994 0
M  V30 61 H 1.056460 5.041294 -2.241953 0
M  V30 62 H 2.256445 3.039577 -2.633480 0
M  V30 63 H 0.594843 2.178628 -2.689188 0
M  V30 64 H 5.113905 3.940453 3.062428 0
M  V30 65 H 5.384408 4.096314 5.550885 0
M  V30 END ATOM
M  V30 BEGIN BOND
M  V30 1 2 1 2
M  V30 2 1 2 3
M  V30 3 2 3 4
M  V30 4 1 4 5
M  V30 5 1 5 6
M  V30 6 1 6 7
M  V30 7 1 7 8
M  V30 8 1 8 9
M  V30 9 2 9 10
M  V30 10 1 10 11
M  V30 11 2 11 12
M  V30 12 1 12 13
M  V30 13 2 13 14
M  V30 14 1 14 15
M  V30 15 2 15 16
M  V30 16 1 16 17
M  V30 17 1 17 18
M  V30 18 2 18 19
M  V30 19 1 19 20
M  V30 20 2 20 21
M  V30 21 1 21 22
M  V30 22 2 22 23
M  V30 23 1 23 24
M  V30 24 1 24 25
M  V30 25 2 25 26
M  V30 26 1 26 27
M  V30 27 2 27 28
M  V30 28 1 28 29
M  V30 29 2 29 30
M  V30 30 1 12 31
M  V30 31 2 31 32
M  V30 32 1 8 33
M  V30 33 1 33 34
M  V30 34 1 34 35
M  V30 35 1 4 36
M  V30 36 2 36 37
M  V30 37 1 37 1
M  V30 38 1 35 8
M  V30 39 1 32 9
M  V30 40 1 17 13
M  V30 41 1 23 18
M  V30 42 1 30 25
M  V30 43 1 30 16
M  V30 44 1 1 38
M  V30 45 1 2 39
M  V30 46 1 3 40
M  V30 47 1 5 41
M  V30 48 1 5 42
M  V30 49 1 6 43
M  V30 50 1 6 44
M  V30 51 1 7 45
M  V30 52 1 10 46
M  V30 53 1 11 47
M  V30 54 1 19 48
M  V30 55 1 20 49
M  V30 56 1 21 50
M  V30 57 1 24 51
M  V30 58 1 26 52
M  V30 59 1 27 53
M  V30 60 1 28 54
M  V30 61 1 29 55
M  V30 62 1 31 56
M  V30 63 1 32 57
M  V30 64 1 33 58
M  V30 65 1 33 59
M  V30 66 1 34 60
M  V30 67 1 34 61
M  V30 68 1 35 62
M  V30 69 1 35 63
M  V30 70 1 36 64
M  V30 71 1 37 65
M  V30 END BOND
M  V30 END CTAB
M  END
>  <Dataset>  (222) 
ChEMBL_Kinases

>  <Ligand_Instance>  (222) 
nan

>  <PDB_ID>  (222) 
nan

>  <Standardized_SMILES>  (222) 
c1ccc(CCNC2(c3ccc(-c4nnc5n4-c4cccnc4Nc4ccccc4-5)cc3)CCC2)cc1

>  <Name>  (222) 
nan

>  <Pocket>  (222) 
nan

>  <ATP_Site>  (222) 
nan

>  <Peripheral>  (222) 
nan

>  <Num_H_Atoms_ProtBoundConf>  (222) 
nan

>  <Num_Resolved_Atoms>  (222) 
nan

>  <Num_Not_Resolved_Atoms>  (222) 
nan

$$$$
CHEMBL3684537
     RDKit          3D

  0  0  0  0  0  0  0  0  0  0999 V3000
M  V30 BEGIN CTAB
M  V30 COUNTS 70 77 0 0 0
M  V30 BEGIN ATOM
M  V30 1 Br 8.172088 -2.513984 3.893146 0
M  V30 2 C 6.331777 -1.974767 4.076135 0
M  V30 3 C 5.641082 -2.179529 5.260459 0
M  V30 4 C 4.323239 -1.790767 5.382379 0
M  V30 5 C 3.722851 -1.193870 4.286377 0
M  V30 6 C 4.457975 -1.004132 3.107042 0
M  V30 7 C 5.769785 -1.383715 2.963613 0
M  V30 8 C 3.922326 -0.344937 1.923322 0
M  V30 9 N 4.658467 0.270901 0.995811 0
M  V30 10 N 3.829821 0.808223 0.108909 0
M  V30 11 C 2.532100 0.545657 0.452073 0
M  V30 12 C 1.582922 1.136614 -0.429522 0
M  V30 13 C 1.437978 0.869997 -1.803617 0
M  V30 14 C 0.519678 1.508582 -2.584083 0
M  V30 15 C -0.327899 2.465044 -2.054767 0
M  V30 16 C -1.304142 3.129879 -2.951882 0
M  V30 17 N -2.518667 2.409606 -2.968275 0
M  V30 18 C -2.466527 1.053001 -3.385012 0
M  V30 19 C -3.812671 0.364485 -3.257755 0
M  V30 20 C -4.350439 0.457551 -1.849982 0
M  V30 21 C -4.383967 -0.882251 -1.231952 0
M  V30 22 N -5.395785 -1.659574 -0.756458 0
M  V30 23 N -4.875468 -2.805219 -0.292894 0
M  V30 24 C -3.546146 -2.773311 -0.464288 0
M  V30 25 C -2.656751 -3.871994 -0.065757 0
M  V30 26 C -1.288931 -3.789940 -0.264636 0
M  V30 27 C -0.410251 -4.799311 0.094247 0
M  V30 28 C -0.908526 -5.949306 0.679923 0
M  V30 29 C -2.274208 -5.996864 0.862743 0
M  V30 30 N -3.099742 -4.996683 0.501805 0
M  V30 31 N -3.264519 -1.590721 -1.039359 0
M  V30 32 C -3.597760 1.478271 -1.009047 0
M  V30 33 C -3.391057 2.710902 -1.891351 0
M  V30 34 C -0.248442 2.782632 -0.718311 0
M  V30 35 C 0.699974 2.102256 0.016933 0
M  V30 36 N 2.639634 -0.169426 1.573600 0
M  V30 37 C 1.474545 -0.627450 2.218107 0
M  V30 38 C 0.448962 -0.744744 1.319880 0
M  V30 39 C -0.784101 -1.132623 1.804202 0
M  V30 40 C -0.897499 -1.380809 3.178651 0
M  V30 41 N 0.129791 -1.267150 4.075672 0
M  V30 42 C 1.336561 -0.881447 3.562428 0
M  V30 43 N 2.343989 -0.876688 4.603255 0
M  V30 44 H 6.135472 -2.648543 6.101064 0
M  V30 45 H 3.730603 -1.918675 6.275598 0
M  V30 46 H 6.211279 -1.182578 2.016026 0
M  V30 47 H 2.115066 0.110583 -2.210663 0
M  V30 48 H 0.493047 1.223031 -3.641966 0
M  V30 49 H -0.860782 3.156379 -3.970117 0
M  V30 50 H -1.392929 4.171716 -2.579109 0
M  V30 51 H -1.674192 0.475310 -2.846306 0
M  V30 52 H -2.210613 1.019784 -4.468334 0
M  V30 53 H -3.705895 -0.684484 -3.532030 0
M  V30 54 H -4.499820 0.855343 -3.973347 0
M  V30 55 H -5.390538 0.839185 -1.904775 0
M  V30 56 H -0.835337 -2.930847 -0.711755 0
M  V30 57 H 0.657359 -4.742384 -0.057716 0
M  V30 58 H -0.293654 -6.784069 0.989906 0
M  V30 59 H -2.686554 -6.880212 1.316106 0
M  V30 60 H -2.270758 -1.358241 -1.263081 0
M  V30 61 H -2.642301 1.097377 -0.634701 0
M  V30 62 H -4.215249 1.839684 -0.163746 0
M  V30 63 H -4.389296 3.013836 -2.276772 0
M  V30 64 H -3.005473 3.563439 -1.320439 0
M  V30 65 H -0.880017 3.519956 -0.248743 0
M  V30 66 H 0.755459 2.359153 1.069947 0
M  V30 67 H 0.413526 -0.635989 0.267970 0
M  V30 68 H -1.709683 -1.279935 1.267665 0
M  V30 69 H -1.811725 -1.681223 3.632059 0
M  V30 70 H 2.072728 -0.664309 5.564002 0
M  V30 END ATOM
M  V30 BEGIN BOND
M  V30 1 1 1 2
M  V30 2 2 2 3
M  V30 3 1 3 4
M  V30 4 2 4 5
M  V30 5 1 5 6
M  V30 6 2 6 7
M  V30 7 1 6 8
M  V30 8 2 8 9
M  V30 9 1 9 10
M  V30 10 2 10 11
M  V30 11 1 11 12
M  V30 12 2 12 13
M  V30 13 1 13 14
M  V30 14 2 14 15
M  V30 15 1 15 16
M  V30 16 1 16 17
M  V30 17 1 17 18
M  V30 18 1 18 19
M  V30 19 1 19 20
M  V30 20 1 20 21
M  V30 21 2 21 22
M  V30 22 1 22 23
M  V30 23 2 23 24
M  V30 24 1 24 25
M  V30 25 2 25 26
M  V30 26 1 26 27
M  V30 27 2 27 28
M  V30 28 1 28 29
M  V30 29 2 29 30
M  V30 30 1 24 31
M  V30 31 1 20 32
M  V30 32 1 32 33
M  V30 33 1 15 34
M  V30 34 2 34 35
M  V30 35 1 11 36
M  V30 36 1 36 37
M  V30 37 2 37 38
M  V30 38 1 38 39
M  V30 39 2 39 40
M  V30 40 1 40 41
M  V30 41 2 41 42
M  V30 42 1 42 43
M  V30 43 1 7 2
M  V30 44 1 36 8
M  V30 45 1 42 37
M  V30 46 1 43 5
M  V30 47 1 35 12
M  V30 48 1 33 17
M  V30 49 1 31 21
M  V30 50 1 30 25
M  V30 51 1 3 44
M  V30 52 1 4 45
M  V30 53 1 7 46
M  V30 54 1 13 47
M  V30 55 1 14 48
M  V30 56 1 16 49
M  V30 57 1 16 50
M  V30 58 1 18 51
M  V30 59 1 18 52
M  V30 60 1 19 53
M  V30 61 1 19 54
M  V30 62 1 20 55
M  V30 63 1 26 56
M  V30 64 1 27 57
M  V30 65 1 28 58
M  V30 66 1 29 59
M  V30 67 1 31 60
M  V30 68 1 32 61
M  V30 69 1 32 62
M  V30 70 1 33 63
M  V30 71 1 33 64
M  V30 72 1 34 65
M  V30 73 1 35 66
M  V30 74 1 38 67
M  V30 75 1 39 68
M  V30 76 1 40 69
M  V30 77 1 43 70
M  V30 END BOND
M  V30 END CTAB
M  END
>  <Dataset>  (223) 
ChEMBL_Kinases

>  <Ligand_Instance>  (223) 
nan

>  <PDB_ID>  (223) 
nan

>  <Standardized_SMILES>  (223) 
Brc1ccc2c(c1)-c1nnc(-c3ccc(CN4CCC(c5nnc(-c6ccccn6)[nH]5)CC4)cc3)n1-c1cccnc1N2

>  <Name>  (223) 
nan

>  <Pocket>  (223) 
nan

>  <ATP_Site>  (223) 
nan

>  <Peripheral>  (223) 
nan

>  <Num_H_Atoms_ProtBoundConf>  (223) 
nan

>  <Num_Resolved_Atoms>  (223) 
nan

>  <Num_Not_Resolved_Atoms>  (223) 
nan

$$$$
CHEMBL3684536
     RDKit          3D

  0  0  0  0  0  0  0  0  0  0999 V3000
M  V30 BEGIN CTAB
M  V30 COUNTS 42 46 0 0 0
M  V30 BEGIN ATOM
M  V30 1 N 5.206199 -4.340187 2.027466 0
M  V30 2 C 4.312237 -4.979457 1.051523 0
M  V30 3 C 3.303417 -3.933046 0.656060 0
M  V30 4 C 2.150673 -3.869365 1.409918 0
M  V30 5 C 1.269004 -2.896811 1.002600 0
M  V30 6 C 1.410608 -1.990694 -0.063350 0
M  V30 7 C 0.381137 -1.036941 -0.399658 0
M  V30 8 N -0.133869 -1.241576 -1.642855 0
M  V30 9 N -1.116065 -0.349734 -1.861167 0
M  V30 10 C -1.235018 0.422849 -0.771295 0
M  V30 11 N -0.313437 -0.013268 0.097408 0
M  V30 12 C -0.019536 0.460652 1.390889 0
M  V30 13 C 1.275639 0.169928 1.723356 0
M  V30 14 C 1.696114 0.524925 2.988713 0
M  V30 15 C 0.769463 1.154758 3.829962 0
M  V30 16 N -0.517274 1.446471 3.495361 0
M  V30 17 C -0.896228 1.085704 2.249545 0
M  V30 18 N -2.253362 1.519268 1.995377 0
M  V30 19 C -2.672920 1.902478 0.661933 0
M  V30 20 C -3.668669 2.880177 0.744009 0
M  V30 21 C -4.162601 3.362859 -0.449812 0
M  V30 22 C -3.701514 2.907805 -1.682042 0
M  V30 23 Br -4.401309 3.592886 -3.327179 0
M  V30 24 C -2.720811 1.943911 -1.784900 0
M  V30 25 C -2.233985 1.467443 -0.594623 0
M  V30 26 C 2.623644 -2.148422 -0.760078 0
M  V30 27 C 3.552708 -3.103498 -0.405140 0
M  V30 28 H 5.364843 -3.344883 1.759835 0
M  V30 29 H 4.797108 -4.388903 2.986354 0
M  V30 30 H 3.821768 -5.844747 1.532504 0
M  V30 31 H 4.883300 -5.229387 0.136968 0
M  V30 32 H 1.890170 -4.481006 2.247007 0
M  V30 33 H 0.326339 -2.787944 1.558586 0
M  V30 34 H 2.071010 -0.252088 1.168724 0
M  V30 35 H 2.698087 0.362911 3.413155 0
M  V30 36 H 1.042584 1.452170 4.829746 0
M  V30 37 H -2.932158 1.573465 2.774632 0
M  V30 38 H -3.979528 3.183965 1.714830 0
M  V30 39 H -4.931704 4.118041 -0.421459 0
M  V30 40 H -2.294545 1.522748 -2.676570 0
M  V30 41 H 2.742399 -1.448797 -1.589890 0
M  V30 42 H 4.460977 -3.167204 -0.984730 0
M  V30 END ATOM
M  V30 BEGIN BOND
M  V30 1 1 1 2
M  V30 2 1 2 3
M  V30 3 2 3 4
M  V30 4 1 4 5
M  V30 5 2 5 6
M  V30 6 1 6 7
M  V30 7 2 7 8
M  V30 8 1 8 9
M  V30 9 2 9 10
M  V30 10 1 10 11
M  V30 11 1 11 12
M  V30 12 2 12 13
M  V30 13 1 13 14
M  V30 14 2 14 15
M  V30 15 1 15 16
M  V30 16 2 16 17
M  V30 17 1 17 18
M  V30 18 1 18 19
M  V30 19 2 19 20
M  V30 20 1 20 21
M  V30 21 2 21 22
M  V30 22 1 22 23
M  V30 23 1 22 24
M  V30 24 2 24 25
M  V30 25 1 6 26
M  V30 26 2 26 27
M  V30 27 1 27 3
M  V30 28 1 11 7
M  V30 29 1 17 12
M  V30 30 1 25 19
M  V30 31 1 25 10
M  V30 32 1 1 28
M  V30 33 1 1 29
M  V30 34 1 2 30
M  V30 35 1 2 31
M  V30 36 1 4 32
M  V30 37 1 5 33
M  V30 38 1 13 34
M  V30 39 1 14 35
M  V30 40 1 15 36
M  V30 41 1 18 37
M  V30 42 1 20 38
M  V30 43 1 21 39
M  V30 44 1 24 40
M  V30 45 1 26 41
M  V30 46 1 27 42
M  V30 END BOND
M  V30 END CTAB
M  END
>  <Dataset>  (224) 
ChEMBL_Kinases

>  <Ligand_Instance>  (224) 
nan

>  <PDB_ID>  (224) 
nan

>  <Standardized_SMILES>  (224) 
NCc1ccc(-c2nnc3n2-c2cccnc2Nc2ccc(Br)cc2-3)cc1

>  <Name>  (224) 
nan

>  <Pocket>  (224) 
nan

>  <ATP_Site>  (224) 
nan

>  <Peripheral>  (224) 
nan

>  <Num_H_Atoms_ProtBoundConf>  (224) 
nan

>  <Num_Resolved_Atoms>  (224) 
nan

>  <Num_Not_Resolved_Atoms>  (224) 
nan

$$$$
CHEMBL3684535
     RDKit          3D

  0  0  0  0  0  0  0  0  0  0999 V3000
M  V30 BEGIN CTAB
M  V30 COUNTS 54 59 0 0 0
M  V30 BEGIN ATOM
M  V30 1 O 2.919001 -2.329021 1.546253 0
M  V30 2 C 3.993622 -2.570113 0.930131 0
M  V30 3 N 3.919393 -3.580386 -0.037780 0
M  V30 4 C 2.589142 -4.149416 -0.128671 0
M  V30 5 C 1.493481 -3.155772 -0.133352 0
M  V30 6 C 1.830082 -2.102618 -0.992441 0
M  V30 7 C 0.980634 -1.026359 -1.189177 0
M  V30 8 C -0.256032 -0.965353 -0.521905 0
M  V30 9 C -1.238091 0.085095 -0.671112 0
M  V30 10 N -1.720773 0.184061 -1.942496 0
M  V30 11 N -2.659407 1.141500 -1.994203 0
M  V30 12 C -2.783205 1.659012 -0.762189 0
M  V30 13 N -1.910455 1.005695 0.019628 0
M  V30 14 C -1.648412 1.177803 1.394282 0
M  V30 15 C -0.376053 0.767975 1.684536 0
M  V30 16 C 0.016915 0.823824 3.005690 0
M  V30 17 C -0.914560 1.296321 3.939363 0
M  V30 18 Cl -0.510689 1.403308 5.649632 0
M  V30 19 N -2.185255 1.710115 3.651198 0
M  V30 20 C -2.527368 1.637924 2.341580 0
M  V30 21 N -3.861483 2.173300 2.157422 0
M  V30 22 C -4.216526 2.854770 0.925952 0
M  V30 23 C -5.175155 3.835693 1.184634 0
M  V30 24 C -5.609068 4.590481 0.115332 0
M  V30 25 C -5.122109 4.392011 -1.160979 0
M  V30 26 C -4.176695 3.432927 -1.451634 0
M  V30 27 C -3.748924 2.684600 -0.384582 0
M  V30 28 C -0.571485 -2.034099 0.334934 0
M  V30 29 C 0.283699 -3.095213 0.518815 0
M  V30 30 C 2.487342 -5.247365 -1.173114 0
M  V30 31 C 3.047059 -6.187414 -0.102036 0
M  V30 32 C 2.446893 -5.231159 0.914516 0
M  V30 33 C 5.279444 -1.834840 1.200266 0
M  V30 34 F 5.617670 -1.232139 -0.006728 0
M  V30 35 F 5.078883 -0.887782 2.174170 0
M  V30 36 F 6.241834 -2.754413 1.547298 0
M  V30 37 H 4.748060 -3.852474 -0.597681 0
M  V30 38 H 2.745805 -1.980148 -1.592686 0
M  V30 39 H 1.178472 -0.183252 -1.836061 0
M  V30 40 H 0.424321 0.441394 1.075457 0
M  V30 41 H 0.972168 0.544303 3.426216 0
M  V30 42 H -4.557013 2.089074 2.899381 0
M  V30 43 H -5.513485 3.935046 2.205506 0
M  V30 44 H -6.348737 5.350124 0.304663 0
M  V30 45 H -5.465433 4.990745 -2.010186 0
M  V30 46 H -3.732652 3.196427 -2.406361 0
M  V30 47 H -1.498225 -2.097308 0.903887 0
M  V30 48 H 0.128363 -3.953473 1.151600 0
M  V30 49 H 3.184417 -5.085559 -2.027152 0
M  V30 50 H 1.462927 -5.491636 -1.460386 0
M  V30 51 H 4.139897 -6.186861 -0.131643 0
M  V30 52 H 2.520587 -7.143697 -0.083382 0
M  V30 53 H 3.063356 -5.080673 1.818083 0
M  V30 54 H 1.424783 -5.488438 1.186210 0
M  V30 END ATOM
M  V30 BEGIN BOND
M  V30 1 2 1 2
M  V30 2 1 2 3
M  V30 3 1 3 4
M  V30 4 1 4 5
M  V30 5 2 5 6
M  V30 6 1 6 7
M  V30 7 2 7 8
M  V30 8 1 8 9
M  V30 9 2 9 10
M  V30 10 1 10 11
M  V30 11 2 11 12
M  V30 12 1 12 13
M  V30 13 1 13 14
M  V30 14 2 14 15
M  V30 15 1 15 16
M  V30 16 2 16 17
M  V30 17 1 17 18
M  V30 18 1 17 19
M  V30 19 2 19 20
M  V30 20 1 20 21
M  V30 21 1 21 22
M  V30 22 2 22 23
M  V30 23 1 23 24
M  V30 24 2 24 25
M  V30 25 1 25 26
M  V30 26 2 26 27
M  V30 27 1 8 28
M  V30 28 2 28 29
M  V30 29 1 4 30
M  V30 30 1 30 31
M  V30 31 1 31 32
M  V30 32 1 2 33
M  V30 33 1 33 34
M  V30 34 1 33 35
M  V30 35 1 33 36
M  V30 36 1 32 4
M  V30 37 1 29 5
M  V30 38 1 13 9
M  V30 39 1 20 14
M  V30 40 1 27 22
M  V30 41 1 27 12
M  V30 42 1 3 37
M  V30 43 1 6 38
M  V30 44 1 7 39
M  V30 45 1 15 40
M  V30 46 1 16 41
M  V30 47 1 21 42
M  V30 48 1 23 43
M  V30 49 1 24 44
M  V30 50 1 25 45
M  V30 51 1 26 46
M  V30 52 1 28 47
M  V30 53 1 29 48
M  V30 54 1 30 49
M  V30 55 1 30 50
M  V30 56 1 31 51
M  V30 57 1 31 52
M  V30 58 1 32 53
M  V30 59 1 32 54
M  V30 END BOND
M  V30 END CTAB
M  END
>  <Dataset>  (225) 
ChEMBL_Kinases

>  <Ligand_Instance>  (225) 
nan

>  <PDB_ID>  (225) 
nan

>  <Standardized_SMILES>  (225) 
O=C(NC1(c2ccc(-c3nnc4n3-c3ccc(Cl)nc3Nc3ccccc3-4)cc2)CCC1)C(F)(F)F

>  <Name>  (225) 
nan

>  <Pocket>  (225) 
nan

>  <ATP_Site>  (225) 
nan

>  <Peripheral>  (225) 
nan

>  <Num_H_Atoms_ProtBoundConf>  (225) 
nan

>  <Num_Resolved_Atoms>  (225) 
nan

>  <Num_Not_Resolved_Atoms>  (225) 
nan

$$$$
CHEMBL3684534
     RDKit          3D

  0  0  0  0  0  0  0  0  0  0999 V3000
M  V30 BEGIN CTAB
M  V30 COUNTS 41 45 0 0 0
M  V30 BEGIN ATOM
M  V30 1 O 6.098330 -3.240160 1.379489 0
M  V30 2 C 5.091138 -4.164002 1.169062 0
M  V30 3 C 3.811063 -3.451495 0.871742 0
M  V30 4 C 2.999068 -3.128315 1.934165 0
M  V30 5 C 1.838128 -2.473837 1.584152 0
M  V30 6 C 1.414454 -2.115246 0.293310 0
M  V30 7 C 0.149972 -1.455732 0.060725 0
M  V30 8 N -0.719725 -2.190287 -0.698297 0
M  V30 9 N -1.873520 -1.545993 -0.829090 0
M  V30 10 C -1.769847 -0.402415 -0.166846 0
M  V30 11 N -0.538883 -0.354556 0.366467 0
M  V30 12 C 0.059676 0.644608 1.148683 0
M  V30 13 C 1.421643 0.596375 1.019793 0
M  V30 14 C 2.160067 1.485711 1.773893 0
M  V30 15 C 1.457091 2.365975 2.606865 0
M  V30 16 N 0.097021 2.419931 2.735311 0
M  V30 17 C -0.585533 1.533255 1.980012 0
M  V30 18 N -2.010531 1.736101 2.140399 0
M  V30 19 C -2.927655 1.480620 1.046619 0
M  V30 20 C -4.022530 2.346910 1.144470 0
M  V30 21 C -4.985972 2.245082 0.163769 0
M  V30 22 C -4.878554 1.337848 -0.860825 0
M  V30 23 Br -6.225563 1.203615 -2.223441 0
M  V30 24 C -3.815145 0.470848 -0.986292 0
M  V30 25 C -2.851439 0.565284 -0.013408 0
M  V30 26 C 2.319535 -2.493805 -0.713194 0
M  V30 27 C 3.498303 -3.150308 -0.435640 0
M  V30 28 H 6.122508 -3.034464 2.348885 0
M  V30 29 H 4.951431 -4.760718 2.082629 0
M  V30 30 H 5.361678 -4.847334 0.329172 0
M  V30 31 H 3.186879 -3.334716 2.967208 0
M  V30 32 H 1.144624 -2.186564 2.382227 0
M  V30 33 H 2.055464 0.019369 0.399270 0
M  V30 34 H 3.249056 1.600466 1.811208 0
M  V30 35 H 1.984161 3.083589 3.222389 0
M  V30 36 H -2.380025 2.083630 3.044050 0
M  V30 37 H -4.043350 3.034232 1.978631 0
M  V30 38 H -5.840658 2.905175 0.220124 0
M  V30 39 H -3.630912 -0.275368 -1.743190 0
M  V30 40 H 2.028385 -2.234843 -1.722434 0
M  V30 41 H 4.153001 -3.414518 -1.256979 0
M  V30 END ATOM
M  V30 BEGIN BOND
M  V30 1 1 1 2
M  V30 2 1 2 3
M  V30 3 2 3 4
M  V30 4 1 4 5
M  V30 5 2 5 6
M  V30 6 1 6 7
M  V30 7 2 7 8
M  V30 8 1 8 9
M  V30 9 2 9 10
M  V30 10 1 10 11
M  V30 11 1 11 12
M  V30 12 2 12 13
M  V30 13 1 13 14
M  V30 14 2 14 15
M  V30 15 1 15 16
M  V30 16 2 16 17
M  V30 17 1 17 18
M  V30 18 1 18 19
M  V30 19 2 19 20
M  V30 20 1 20 21
M  V30 21 2 21 22
M  V30 22 1 22 23
M  V30 23 1 22 24
M  V30 24 2 24 25
M  V30 25 1 6 26
M  V30 26 2 26 27
M  V30 27 1 27 3
M  V30 28 1 11 7
M  V30 29 1 17 12
M  V30 30 1 25 19
M  V30 31 1 25 10
M  V30 32 1 1 28
M  V30 33 1 2 29
M  V30 34 1 2 30
M  V30 35 1 4 31
M  V30 36 1 5 32
M  V30 37 1 13 33
M  V30 38 1 14 34
M  V30 39 1 15 35
M  V30 40 1 18 36
M  V30 41 1 20 37
M  V30 42 1 21 38
M  V30 43 1 24 39
M  V30 44 1 26 40
M  V30 45 1 27 41
M  V30 END BOND
M  V30 END CTAB
M  END
>  <Dataset>  (226) 
ChEMBL_Kinases

>  <Ligand_Instance>  (226) 
nan

>  <PDB_ID>  (226) 
nan

>  <Standardized_SMILES>  (226) 
OCc1ccc(-c2nnc3n2-c2cccnc2Nc2ccc(Br)cc2-3)cc1

>  <Name>  (226) 
nan

>  <Pocket>  (226) 
nan

>  <ATP_Site>  (226) 
nan

>  <Peripheral>  (226) 
nan

>  <Num_H_Atoms_ProtBoundConf>  (226) 
nan

>  <Num_Resolved_Atoms>  (226) 
nan

>  <Num_Not_Resolved_Atoms>  (226) 
nan

$$$$
CHEMBL3684533
     RDKit          3D

  0  0  0  0  0  0  0  0  0  0999 V3000
M  V30 BEGIN CTAB
M  V30 COUNTS 59 65 0 0 0
M  V30 BEGIN ATOM
M  V30 1 N 6.189922 -2.181279 3.195669 0
M  V30 2 C 5.887837 -2.620290 1.827639 0
M  V30 3 C 4.541964 -2.234986 1.375024 0
M  V30 4 C 4.230338 -1.952305 0.065243 0
M  V30 5 C 2.947114 -1.596935 -0.296338 0
M  V30 6 C 1.912412 -1.510033 0.655114 0
M  V30 7 C 0.536750 -1.178783 0.351798 0
M  V30 8 N -0.060624 -2.066315 -0.483428 0
M  V30 9 N -1.347000 -1.716419 -0.672309 0
M  V30 10 C -1.573678 -0.605249 0.041526 0
M  V30 11 N -0.418730 -0.296447 0.650079 0
M  V30 12 C -0.132692 0.784615 1.506968 0
M  V30 13 C 1.203081 1.081155 1.465045 0
M  V30 14 C 1.649292 2.088043 2.296528 0
M  V30 15 C 0.723440 2.730843 3.112303 0
M  V30 16 N -0.610545 2.427403 3.141488 0
M  V30 17 C -1.027399 1.440787 2.321592 0
M  V30 18 N -2.463221 1.283464 2.402320 0
M  V30 19 C -3.224336 0.865699 1.241479 0
M  V30 20 C -4.503854 1.429244 1.300561 0
M  V30 21 C -5.361598 1.147452 0.257470 0
M  V30 22 C -4.969359 0.333549 -0.813001 0
M  V30 23 C -5.885112 0.041128 -1.913312 0
M  V30 24 C -7.249825 -0.028943 -1.620193 0
M  V30 25 C -8.137451 -0.304263 -2.645077 0
M  V30 26 C -7.732441 -0.516492 -3.964298 0
M  V30 27 C -6.371802 -0.437111 -4.206284 0
M  V30 28 C -5.458607 -0.164514 -3.208615 0
M  V30 29 C -3.710473 -0.231760 -0.887458 0
M  V30 30 C -2.868275 0.055796 0.155649 0
M  V30 31 C 2.260419 -1.804882 1.987669 0
M  V30 32 C 3.548888 -2.158102 2.327739 0
M  V30 33 C 6.070420 -4.132561 1.778232 0
M  V30 34 C 6.965631 -3.949545 0.551828 0
M  V30 35 C 7.018056 -2.479164 0.884822 0
M  V30 36 H 5.559168 -1.419854 3.488639 0
M  V30 37 H 6.031403 -2.970373 3.882848 0
M  V30 38 H 5.003988 -2.010697 -0.688206 0
M  V30 39 H 2.656966 -1.364126 -1.322206 0
M  V30 40 H 1.992948 0.710472 0.867148 0
M  V30 41 H 2.649035 2.450057 2.398474 0
M  V30 42 H 1.013561 3.524790 3.785268 0
M  V30 43 H -2.944934 1.486646 3.286540 0
M  V30 44 H -4.741025 2.043276 2.152405 0
M  V30 45 H -6.350586 1.572562 0.286592 0
M  V30 46 H -7.668512 0.115872 -0.649424 0
M  V30 47 H -9.204155 -0.368299 -2.464886 0
M  V30 48 H -8.458588 -0.726931 -4.726187 0
M  V30 49 H -5.995009 -0.594766 -5.224908 0
M  V30 50 H -4.403790 -0.109974 -3.433651 0
M  V30 51 H -3.317052 -0.857319 -1.645664 0
M  V30 52 H 1.462116 -1.737860 2.725317 0
M  V30 53 H 3.758609 -2.375261 3.376390 0
M  V30 54 H 6.639570 -4.579350 2.596181 0
M  V30 55 H 5.162810 -4.688047 1.479848 0
M  V30 56 H 7.910142 -4.495171 0.610728 0
M  V30 57 H 6.439114 -4.122691 -0.420581 0
M  V30 58 H 6.915808 -1.774406 0.045387 0
M  V30 59 H 7.978739 -2.266287 1.420025 0
M  V30 END ATOM
M  V30 BEGIN BOND
M  V30 1 1 1 2
M  V30 2 1 2 3
M  V30 3 2 3 4
M  V30 4 1 4 5
M  V30 5 2 5 6
M  V30 6 1 6 7
M  V30 7 2 7 8
M  V30 8 1 8 9
M  V30 9 2 9 10
M  V30 10 1 10 11
M  V30 11 1 11 12
M  V30 12 2 12 13
M  V30 13 1 13 14
M  V30 14 2 14 15
M  V30 15 1 15 16
M  V30 16 2 16 17
M  V30 17 1 17 18
M  V30 18 1 18 19
M  V30 19 2 19 20
M  V30 20 1 20 21
M  V30 21 2 21 22
M  V30 22 1 22 23
M  V30 23 2 23 24
M  V30 24 1 24 25
M  V30 25 2 25 26
M  V30 26 1 26 27
M  V30 27 2 27 28
M  V30 28 1 22 29
M  V30 29 2 29 30
M  V30 30 1 6 31
M  V30 31 2 31 32
M  V30 32 1 2 33
M  V30 33 1 33 34
M  V30 34 1 34 35
M  V30 35 1 35 2
M  V30 36 1 32 3
M  V30 37 1 11 7
M  V30 38 1 17 12
M  V30 39 1 30 19
M  V30 40 1 30 10
M  V30 41 1 28 23
M  V30 42 1 1 36
M  V30 43 1 1 37
M  V30 44 1 4 38
M  V30 45 1 5 39
M  V30 46 1 13 40
M  V30 47 1 14 41
M  V30 48 1 15 42
M  V30 49 1 18 43
M  V30 50 1 20 44
M  V30 51 1 21 45
M  V30 52 1 24 46
M  V30 53 1 25 47
M  V30 54 1 26 48
M  V30 55 1 27 49
M  V30 56 1 28 50
M  V30 57 1 29 51
M  V30 58 1 31 52
M  V30 59 1 32 53
M  V30 60 1 33 54
M  V30 61 1 33 55
M  V30 62 1 34 56
M  V30 63 1 34 57
M  V30 64 1 35 58
M  V30 65 1 35 59
M  V30 END BOND
M  V30 END CTAB
M  END
>  <Dataset>  (227) 
ChEMBL_Kinases

>  <Ligand_Instance>  (227) 
nan

>  <PDB_ID>  (227) 
nan

>  <Standardized_SMILES>  (227) 
NC1(c2ccc(-c3nnc4n3-c3cccnc3Nc3ccc(-c5ccccc5)cc3-4)cc2)CCC1

>  <Name>  (227) 
nan

>  <Pocket>  (227) 
nan

>  <ATP_Site>  (227) 
nan

>  <Peripheral>  (227) 
nan

>  <Num_H_Atoms_ProtBoundConf>  (227) 
nan

>  <Num_Resolved_Atoms>  (227) 
nan

>  <Num_Not_Resolved_Atoms>  (227) 
nan

$$$$
CHEMBL3684532
     RDKit          3D

  0  0  0  0  0  0  0  0  0  0999 V3000
M  V30 BEGIN CTAB
M  V30 COUNTS 52 57 0 0 0
M  V30 BEGIN ATOM
M  V30 1 C 8.058253 -0.465016 0.944021 0
M  V30 2 C 6.592069 -0.701617 1.012746 0
M  V30 3 C 6.092152 -1.697573 1.841578 0
M  V30 4 C 4.740714 -1.956041 1.939659 0
M  V30 5 C 3.920496 -1.170359 1.169503 0
M  V30 6 C 4.389722 -0.155464 0.322737 0
M  V30 7 C 5.766365 0.088066 0.239319 0
M  V30 8 N 3.680214 0.772553 -0.535886 0
M  V30 9 C 2.345045 1.205626 -0.185403 0
M  V30 10 N 2.145639 2.486337 -0.618478 0
M  V30 11 C 0.940327 3.043418 -0.288675 0
M  V30 12 C -0.061603 2.398436 0.441767 0
M  V30 13 C 0.171567 1.105411 0.864033 0
M  V30 14 C 1.376699 0.550448 0.528675 0
M  V30 15 N 1.434169 -0.784417 0.980345 0
M  V30 16 C 0.313789 -1.475564 1.154431 0
M  V30 17 C -1.119827 -1.382057 0.988554 0
M  V30 18 C -1.645501 -1.148809 -0.296120 0
M  V30 19 C -3.007077 -1.083965 -0.504931 0
M  V30 20 C -3.915413 -1.244862 0.536239 0
M  V30 21 C -5.304259 -1.137531 0.081855 0
M  V30 22 N -5.458743 0.057340 -0.763461 0
M  V30 23 C -6.391042 -1.289703 1.104759 0
M  V30 24 C -6.593614 -2.746619 0.674267 0
M  V30 25 C -5.856771 -2.375840 -0.598035 0
M  V30 26 C -3.412431 -1.473739 1.797814 0
M  V30 27 C -2.056184 -1.541778 2.025828 0
M  V30 28 N 0.718611 -2.698714 1.593805 0
M  V30 29 N 2.060634 -2.728861 1.674428 0
M  V30 30 C 2.509373 -1.524454 1.286007 0
M  V30 31 H 8.574349 -1.170754 1.594055 0
M  V30 32 H 8.419278 -0.685109 -0.093695 0
M  V30 33 H 8.300745 0.594580 1.164795 0
M  V30 34 H 6.741092 -2.318339 2.450177 0
M  V30 35 H 4.246698 -2.698005 2.544991 0
M  V30 36 H 6.090021 0.874276 -0.424920 0
M  V30 37 H 4.130343 1.131266 -1.377993 0
M  V30 38 H 0.808867 4.054886 -0.645223 0
M  V30 39 H -0.950100 3.002997 0.606669 0
M  V30 40 H -0.639754 0.751219 1.442738 0
M  V30 41 H -0.910509 -1.024666 -1.103700 0
M  V30 42 H -3.262361 -0.896256 -1.559735 0
M  V30 43 H -4.756546 0.759612 -0.443304 0
M  V30 44 H -5.181274 -0.229517 -1.727784 0
M  V30 45 H -6.094886 -1.258709 2.163731 0
M  V30 46 H -7.314245 -0.685499 0.871007 0
M  V30 47 H -7.652736 -2.990145 0.584786 0
M  V30 48 H -6.054451 -3.488686 1.310397 0
M  V30 49 H -5.133033 -3.098976 -0.974148 0
M  V30 50 H -6.610475 -2.133386 -1.387314 0
M  V30 51 H -4.147493 -1.590757 2.560559 0
M  V30 52 H -1.672561 -1.721224 3.016220 0
M  V30 END ATOM
M  V30 BEGIN BOND
M  V30 1 1 1 2
M  V30 2 2 2 3
M  V30 3 1 3 4
M  V30 4 2 4 5
M  V30 5 1 5 6
M  V30 6 2 6 7
M  V30 7 1 6 8
M  V30 8 1 8 9
M  V30 9 2 9 10
M  V30 10 1 10 11
M  V30 11 2 11 12
M  V30 12 1 12 13
M  V30 13 2 13 14
M  V30 14 1 14 15
M  V30 15 1 15 16
M  V30 16 1 16 17
M  V30 17 2 17 18
M  V30 18 1 18 19
M  V30 19 2 19 20
M  V30 20 1 20 21
M  V30 21 1 21 22
M  V30 22 1 21 23
M  V30 23 1 23 24
M  V30 24 1 24 25
M  V30 25 1 20 26
M  V30 26 2 26 27
M  V30 27 2 16 28
M  V30 28 1 28 29
M  V30 29 2 29 30
M  V30 30 1 7 2
M  V30 31 1 14 9
M  V30 32 1 30 15
M  V30 33 1 30 5
M  V30 34 1 27 17
M  V30 35 1 25 21
M  V30 36 1 1 31
M  V30 37 1 1 32
M  V30 38 1 1 33
M  V30 39 1 3 34
M  V30 40 1 4 35
M  V30 41 1 7 36
M  V30 42 1 8 37
M  V30 43 1 11 38
M  V30 44 1 12 39
M  V30 45 1 13 40
M  V30 46 1 18 41
M  V30 47 1 19 42
M  V30 48 1 22 43
M  V30 49 1 22 44
M  V30 50 1 23 45
M  V30 51 1 23 46
M  V30 52 1 24 47
M  V30 53 1 24 48
M  V30 54 1 25 49
M  V30 55 1 25 50
M  V30 56 1 26 51
M  V30 57 1 27 52
M  V30 END BOND
M  V30 END CTAB
M  END
>  <Dataset>  (228) 
ChEMBL_Kinases

>  <Ligand_Instance>  (228) 
nan

>  <PDB_ID>  (228) 
nan

>  <Standardized_SMILES>  (228) 
Cc1ccc2c(c1)Nc1ncccc1-n1c(-c3ccc(C4(N)CCC4)cc3)nnc1-2

>  <Name>  (228) 
nan

>  <Pocket>  (228) 
nan

>  <ATP_Site>  (228) 
nan

>  <Peripheral>  (228) 
nan

>  <Num_H_Atoms_ProtBoundConf>  (228) 
nan

>  <Num_Resolved_Atoms>  (228) 
nan

>  <Num_Not_Resolved_Atoms>  (228) 
nan

$$$$
CHEMBL3684531
     RDKit          3D

  0  0  0  0  0  0  0  0  0  0999 V3000
M  V30 BEGIN CTAB
M  V30 COUNTS 46 51 0 0 0
M  V30 BEGIN ATOM
M  V30 1 N 2.997694 -4.428401 4.201586 0
M  V30 2 C 1.555958 -4.329026 4.023134 0
M  V30 3 C 1.153340 -3.434277 2.912744 0
M  V30 4 C 0.023602 -2.649921 2.938104 0
M  V30 5 C -0.246626 -1.859893 1.845126 0
M  V30 6 C 0.551762 -1.789864 0.688221 0
M  V30 7 C 0.145986 -0.944757 -0.413096 0
M  V30 8 N -0.117342 -1.636465 -1.559783 0
M  V30 9 N -0.535103 -0.779222 -2.508702 0
M  V30 10 C -0.542015 0.438691 -1.987979 0
M  V30 11 N -0.124009 0.323798 -0.719545 0
M  V30 12 C 0.049544 1.328022 0.254365 0
M  V30 13 C 0.978586 0.939310 1.178991 0
M  V30 14 C 1.220624 1.796514 2.233232 0
M  V30 15 C 0.507281 3.001081 2.287456 0
M  V30 16 N -0.417354 3.377150 1.350307 0
M  V30 17 C -0.637694 2.517184 0.322773 0
M  V30 18 N -1.576835 3.084845 -0.618157 0
M  V30 19 C -1.474229 2.775658 -2.030013 0
M  V30 20 C -1.937682 3.867721 -2.774653 0
M  V30 21 C -1.895384 3.750302 -4.148075 0
M  V30 22 C -1.415029 2.601062 -4.773125 0
M  V30 23 C -0.956448 1.518548 -4.052810 0
M  V30 24 C -0.998546 1.633868 -2.688639 0
M  V30 25 C 1.694273 -2.609796 0.711176 0
M  V30 26 C 1.971305 -3.404155 1.803284 0
M  V30 27 C 0.710317 -4.398886 5.217223 0
M  V30 28 C 0.720323 -5.559277 4.191642 0
M  V30 29 H 3.404029 -3.502491 4.481851 0
M  V30 30 H 3.276481 -5.181294 4.864008 0
M  V30 31 H -0.631220 -2.656631 3.794779 0
M  V30 32 H -1.144918 -1.243272 1.878097 0
M  V30 33 H 1.613298 0.095051 1.232056 0
M  V30 34 H 1.927603 1.636658 3.055591 0
M  V30 35 H 0.665768 3.699315 3.097965 0
M  V30 36 H -2.313708 3.726954 -0.278333 0
M  V30 37 H -2.299810 4.728516 -2.232130 0
M  V30 38 H -2.246915 4.578415 -4.740567 0
M  V30 39 H -1.380375 2.506678 -5.851038 0
M  V30 40 H -0.567003 0.587118 -4.426489 0
M  V30 41 H 2.301600 -2.545391 -0.189319 0
M  V30 42 H 2.889630 -3.977277 1.665024 0
M  V30 43 H 1.247178 -4.599859 6.184080 0
M  V30 44 H -0.248226 -3.899138 5.347120 0
M  V30 45 H 1.202780 -6.471274 4.551126 0
M  V30 46 H -0.214196 -5.658361 3.569295 0
M  V30 END ATOM
M  V30 BEGIN BOND
M  V30 1 1 1 2
M  V30 2 1 2 3
M  V30 3 2 3 4
M  V30 4 1 4 5
M  V30 5 2 5 6
M  V30 6 1 6 7
M  V30 7 2 7 8
M  V30 8 1 8 9
M  V30 9 2 9 10
M  V30 10 1 10 11
M  V30 11 1 11 12
M  V30 12 2 12 13
M  V30 13 1 13 14
M  V30 14 2 14 15
M  V30 15 1 15 16
M  V30 16 2 16 17
M  V30 17 1 17 18
M  V30 18 1 18 19
M  V30 19 2 19 20
M  V30 20 1 20 21
M  V30 21 2 21 22
M  V30 22 1 22 23
M  V30 23 2 23 24
M  V30 24 1 6 25
M  V30 25 2 25 26
M  V30 26 1 2 27
M  V30 27 1 27 28
M  V30 28 1 28 2
M  V30 29 1 26 3
M  V30 30 1 11 7
M  V30 31 1 17 12
M  V30 32 1 24 19
M  V30 33 1 24 10
M  V30 34 1 1 29
M  V30 35 1 1 30
M  V30 36 1 4 31
M  V30 37 1 5 32
M  V30 38 1 13 33
M  V30 39 1 14 34
M  V30 40 1 15 35
M  V30 41 1 18 36
M  V30 42 1 20 37
M  V30 43 1 21 38
M  V30 44 1 22 39
M  V30 45 1 23 40
M  V30 46 1 25 41
M  V30 47 1 26 42
M  V30 48 1 27 43
M  V30 49 1 27 44
M  V30 50 1 28 45
M  V30 51 1 28 46
M  V30 END BOND
M  V30 END CTAB
M  END
>  <Dataset>  (229) 
ChEMBL_Kinases

>  <Ligand_Instance>  (229) 
nan

>  <PDB_ID>  (229) 
nan

>  <Standardized_SMILES>  (229) 
NC1(c2ccc(-c3nnc4n3-c3cccnc3Nc3ccccc3-4)cc2)CC1

>  <Name>  (229) 
nan

>  <Pocket>  (229) 
nan

>  <ATP_Site>  (229) 
nan

>  <Peripheral>  (229) 
nan

>  <Num_H_Atoms_ProtBoundConf>  (229) 
nan

>  <Num_Resolved_Atoms>  (229) 
nan

>  <Num_Not_Resolved_Atoms>  (229) 
nan

$$$$
CHEMBL3684530
     RDKit          3D

  0  0  0  0  0  0  0  0  0  0999 V3000
M  V30 BEGIN CTAB
M  V30 COUNTS 61 66 0 0 0
M  V30 BEGIN ATOM
M  V30 1 C 5.488024 -1.472519 3.513758 0
M  V30 2 C 4.618042 -1.213095 2.294861 0
M  V30 3 C 3.431569 -2.149284 2.410353 0
M  V30 4 C 5.336242 -1.623722 1.032423 0
M  V30 5 O 4.256796 0.131823 2.321383 0
M  V30 6 C 3.476262 0.780089 1.406672 0
M  V30 7 O 3.079503 0.053619 0.487063 0
M  V30 8 N 3.147008 2.159004 1.496754 0
M  V30 9 C 2.314627 2.821872 0.509011 0
M  V30 10 C 1.080700 2.075235 0.166297 0
M  V30 11 C 0.384493 1.466971 1.189257 0
M  V30 12 C -0.750957 0.792166 0.794207 0
M  V30 13 C -1.247769 0.672588 -0.521412 0
M  V30 14 C -2.473116 -0.036688 -0.808900 0
M  V30 15 N -3.444799 0.764289 -1.339691 0
M  V30 16 N -4.564227 0.043556 -1.531138 0
M  V30 17 C -4.320972 -1.205964 -1.129959 0
M  V30 18 N -3.051823 -1.233009 -0.700868 0
M  V30 19 C -2.310649 -2.313742 -0.183596 0
M  V30 20 C -0.972332 -2.116839 -0.383421 0
M  V30 21 C -0.109863 -3.069525 0.120308 0
M  V30 22 C -0.663285 -4.165796 0.794589 0
M  V30 23 N -2.000405 -4.366596 0.991893 0
M  V30 24 C -2.826349 -3.404740 0.480375 0
M  V30 25 N -4.207498 -3.775286 0.689584 0
M  V30 26 C -5.224530 -3.389376 -0.267856 0
M  V30 27 C -6.238104 -4.356842 -0.283398 0
M  V30 28 C -7.282447 -4.155833 -1.153555 0
M  V30 29 C -7.327348 -3.036265 -1.983034 0
M  V30 30 C -6.345867 -2.067711 -1.989686 0
M  V30 31 C -5.308619 -2.277796 -1.117213 0
M  V30 32 C -0.461704 1.330548 -1.488749 0
M  V30 33 C 0.685702 2.021574 -1.148910 0
M  V30 34 C 2.113393 4.295074 0.835456 0
M  V30 35 C 2.847202 3.852918 -0.379822 0
M  V30 36 H 5.705291 -0.529882 4.082754 0
M  V30 37 H 6.424888 -1.999002 3.234137 0
M  V30 38 H 4.991134 -2.129411 4.260742 0
M  V30 39 H 2.646241 -1.750748 3.079644 0
M  V30 40 H 3.040839 -2.439742 1.409500 0
M  V30 41 H 3.817361 -3.097670 2.844949 0
M  V30 42 H 4.612760 -1.700869 0.223199 0
M  V30 43 H 5.712834 -2.658838 1.235078 0
M  V30 44 H 6.237689 -1.020950 0.832131 0
M  V30 45 H 3.569340 2.636001 2.348086 0
M  V30 46 H 0.644840 1.476296 2.225627 0
M  V30 47 H -1.360320 0.280359 1.555655 0
M  V30 48 H -0.439407 -1.369222 -0.908399 0
M  V30 49 H 0.978144 -3.060714 0.048562 0
M  V30 50 H -0.028415 -4.936549 1.208481 0
M  V30 51 H -4.468163 -4.334265 1.521826 0
M  V30 52 H -6.138446 -5.193381 0.385936 0
M  V30 53 H -8.080199 -4.884975 -1.188915 0
M  V30 54 H -8.159265 -2.871907 -2.679881 0
M  V30 55 H -6.285428 -1.184460 -2.576390 0
M  V30 56 H -0.859032 1.227334 -2.491351 0
M  V30 57 H 1.203362 2.481663 -1.960306 0
M  V30 58 H 1.082627 4.677527 0.778476 0
M  V30 59 H 2.723931 4.776274 1.611021 0
M  V30 60 H 2.335579 4.056578 -1.327824 0
M  V30 61 H 3.937097 4.059240 -0.440346 0
M  V30 END ATOM
M  V30 BEGIN BOND
M  V30 1 1 1 2
M  V30 2 1 2 3
M  V30 3 1 2 4
M  V30 4 1 2 5
M  V30 5 1 5 6
M  V30 6 2 6 7
M  V30 7 1 6 8
M  V30 8 1 8 9
M  V30 9 1 9 10
M  V30 10 2 10 11
M  V30 11 1 11 12
M  V30 12 2 12 13
M  V30 13 1 13 14
M  V30 14 2 14 15
M  V30 15 1 15 16
M  V30 16 2 16 17
M  V30 17 1 17 18
M  V30 18 1 18 19
M  V30 19 2 19 20
M  V30 20 1 20 21
M  V30 21 2 21 22
M  V30 22 1 22 23
M  V30 23 2 23 24
M  V30 24 1 24 25
M  V30 25 1 25 26
M  V30 26 2 26 27
M  V30 27 1 27 28
M  V30 28 2 28 29
M  V30 29 1 29 30
M  V30 30 2 30 31
M  V30 31 1 13 32
M  V30 32 2 32 33
M  V30 33 1 9 34
M  V30 34 1 34 35
M  V30 35 1 35 9
M  V30 36 1 33 10
M  V30 37 1 18 14
M  V30 38 1 24 19
M  V30 39 1 31 26
M  V30 40 1 31 17
M  V30 41 1 1 36
M  V30 42 1 1 37
M  V30 43 1 1 38
M  V30 44 1 3 39
M  V30 45 1 3 40
M  V30 46 1 3 41
M  V30 47 1 4 42
M  V30 48 1 4 43
M  V30 49 1 4 44
M  V30 50 1 8 45
M  V30 51 1 11 46
M  V30 52 1 12 47
M  V30 53 1 20 48
M  V30 54 1 21 49
M  V30 55 1 22 50
M  V30 56 1 25 51
M  V30 57 1 27 52
M  V30 58 1 28 53
M  V30 59 1 29 54
M  V30 60 1 30 55
M  V30 61 1 32 56
M  V30 62 1 33 57
M  V30 63 1 34 58
M  V30 64 1 34 59
M  V30 65 1 35 60
M  V30 66 1 35 61
M  V30 END BOND
M  V30 END CTAB
M  END
>  <Dataset>  (230) 
ChEMBL_Kinases

>  <Ligand_Instance>  (230) 
nan

>  <PDB_ID>  (230) 
nan

>  <Standardized_SMILES>  (230) 
CC(C)(C)OC(=O)NC1(c2ccc(-c3nnc4n3-c3cccnc3Nc3ccccc3-4)cc2)CC1

>  <Name>  (230) 
nan

>  <Pocket>  (230) 
nan

>  <ATP_Site>  (230) 
nan

>  <Peripheral>  (230) 
nan

>  <Num_H_Atoms_ProtBoundConf>  (230) 
nan

>  <Num_Resolved_Atoms>  (230) 
nan

>  <Num_Not_Resolved_Atoms>  (230) 
nan

$$$$
CHEMBL3685744
     RDKit          3D

  0  0  0  0  0  0  0  0  0  0999 V3000
M  V30 BEGIN CTAB
M  V30 COUNTS 57 61 0 0 0
M  V30 BEGIN ATOM
M  V30 1 N 4.064750 -3.021911 0.324331 0
M  V30 2 C 3.328326 -1.832969 0.745002 0
M  V30 3 C 2.474701 -2.245513 1.905298 0
M  V30 4 C 2.374049 -1.177897 2.961477 0
M  V30 5 C 2.278488 0.162175 2.259472 0
M  V30 6 C 1.205962 0.086619 1.196476 0
M  V30 7 N 1.792231 -0.111672 -0.138199 0
M  V30 8 C 1.724265 0.801543 -1.260485 0
M  V30 9 C 2.952085 1.268731 -1.660684 0
M  V30 10 C 3.014546 2.148001 -2.711004 0
M  V30 11 N 1.891697 2.543747 -3.335819 0
M  V30 12 C 0.735487 2.037338 -2.879140 0
M  V30 13 C 0.528426 1.157667 -1.847614 0
M  V30 14 N -0.680247 0.641023 -1.385759 0
M  V30 15 C -2.050538 0.713124 -1.637642 0
M  V30 16 C -2.674320 1.462787 -2.587324 0
M  V30 17 C -4.021029 1.541796 -2.848724 0
M  V30 18 C -4.810839 0.758874 -2.038329 0
M  V30 19 C -4.277374 -0.030871 -1.053326 0
M  V30 20 C -5.138015 -0.781843 -0.289002 0
M  V30 21 N -4.567251 -1.552058 0.677948 0
M  V30 22 C -3.252581 -1.582527 0.878968 0
M  V30 23 C -2.608327 -2.402736 1.913682 0
M  V30 24 C -2.202137 -3.693775 1.638636 0
M  V30 25 F -2.425729 -4.156330 0.384399 0
M  V30 26 C -1.594001 -4.426466 2.664846 0
M  V30 27 C -1.408429 -3.869646 3.913044 0
M  V30 28 C -1.829151 -2.568824 4.154207 0
M  V30 29 C -2.433443 -1.812160 3.168760 0
M  V30 30 F -2.823884 -0.552027 3.455416 0
M  V30 31 N -2.460515 -0.834380 0.109296 0
M  V30 32 C -2.918272 -0.046031 -0.864561 0
M  V30 33 C 2.525261 -1.323886 -0.433830 0
M  V30 34 H 3.374090 -3.757145 0.011388 0
M  V30 35 H 4.649047 -3.370984 1.121618 0
M  V30 36 H 4.105915 -1.106311 1.052030 0
M  V30 37 H 2.931163 -3.138486 2.422892 0
M  V30 38 H 1.445332 -2.512013 1.595421 0
M  V30 39 H 3.211711 -1.169915 3.664179 0
M  V30 40 H 1.433745 -1.308823 3.547823 0
M  V30 41 H 3.226969 0.537376 1.875180 0
M  V30 42 H 1.934951 0.875934 3.026004 0
M  V30 43 H 0.507297 -0.704237 1.472529 0
M  V30 44 H 0.706471 1.082654 1.166506 0
M  V30 45 H 3.863199 0.965809 -1.175781 0
M  V30 46 H 3.983903 2.498436 -3.004875 0
M  V30 47 H -0.052924 2.445444 -3.476850 0
M  V30 48 H -0.475352 -0.012627 -0.596710 0
M  V30 49 H -2.146115 2.101754 -3.261026 0
M  V30 50 H -4.489160 2.145368 -3.609128 0
M  V30 51 H -5.883339 0.757497 -2.172016 0
M  V30 52 H -6.199667 -0.747326 -0.462702 0
M  V30 53 H -1.299341 -5.428900 2.386741 0
M  V30 54 H -0.927669 -4.507951 4.653845 0
M  V30 55 H -1.639403 -2.234150 5.149302 0
M  V30 56 H 1.855396 -2.113146 -0.812874 0
M  V30 57 H 3.231601 -1.111911 -1.262221 0
M  V30 END ATOM
M  V30 BEGIN BOND
M  V30 1 1 1 2
M  V30 2 1 2 3
M  V30 3 1 3 4
M  V30 4 1 4 5
M  V30 5 1 5 6
M  V30 6 1 6 7
M  V30 7 1 7 8
M  V30 8 2 8 9
M  V30 9 1 9 10
M  V30 10 2 10 11
M  V30 11 1 11 12
M  V30 12 2 12 13
M  V30 13 1 13 14
M  V30 14 1 14 15
M  V30 15 2 15 16
M  V30 16 1 16 17
M  V30 17 2 17 18
M  V30 18 1 18 19
M  V30 19 2 19 20
M  V30 20 1 20 21
M  V30 21 2 21 22
M  V30 22 1 22 23
M  V30 23 2 23 24
M  V30 24 1 24 25
M  V30 25 1 24 26
M  V30 26 2 26 27
M  V30 27 1 27 28
M  V30 28 2 28 29
M  V30 29 1 29 30
M  V30 30 1 22 31
M  V30 31 2 31 32
M  V30 32 1 7 33
M  V30 33 1 33 2
M  V30 34 1 13 8
M  V30 35 1 32 15
M  V30 36 1 32 19
M  V30 37 1 29 23
M  V30 38 1 1 34
M  V30 39 1 1 35
M  V30 40 1 2 36
M  V30 41 1 3 37
M  V30 42 1 3 38
M  V30 43 1 4 39
M  V30 44 1 4 40
M  V30 45 1 5 41
M  V30 46 1 5 42
M  V30 47 1 6 43
M  V30 48 1 6 44
M  V30 49 1 9 45
M  V30 50 1 10 46
M  V30 51 1 12 47
M  V30 52 1 14 48
M  V30 53 1 16 49
M  V30 54 1 17 50
M  V30 55 1 18 51
M  V30 56 1 20 52
M  V30 57 1 26 53
M  V30 58 1 27 54
M  V30 59 1 28 55
M  V30 60 1 33 56
M  V30 61 1 33 57
M  V30 END BOND
M  V30 END CTAB
M  END
>  <Dataset>  (231) 
ChEMBL_Kinases

>  <Ligand_Instance>  (231) 
nan

>  <PDB_ID>  (231) 
nan

>  <Standardized_SMILES>  (231) 
NC1CCCCN(c2ccncc2Nc2cccc3cnc(-c4c(F)cccc4F)nc23)C1

>  <Name>  (231) 
nan

>  <Pocket>  (231) 
nan

>  <ATP_Site>  (231) 
nan

>  <Peripheral>  (231) 
nan

>  <Num_H_Atoms_ProtBoundConf>  (231) 
nan

>  <Num_Resolved_Atoms>  (231) 
nan

>  <Num_Not_Resolved_Atoms>  (231) 
nan

$$$$
CHEMBL3684507
     RDKit          3D

  0  0  0  0  0  0  0  0  0  0999 V3000
M  V30 BEGIN CTAB
M  V30 COUNTS 65 71 0 0 0
M  V30 BEGIN ATOM
M  V30 1 C 0.269440 -0.572111 4.839969 0
M  V30 2 C 1.045765 0.311236 3.950994 0
M  V30 3 C 2.055471 -0.074537 3.095681 0
M  V30 4 C 2.704272 0.859218 2.316129 0
M  V30 5 C 2.384272 2.222574 2.345673 0
M  V30 6 S 3.201734 3.416296 1.368227 0
M  V30 7 O 3.083483 4.715014 2.161588 0
M  V30 8 O 4.687780 3.162221 1.323335 0
M  V30 9 N 2.515304 3.708931 -0.138138 0
M  V30 10 C 2.436877 2.641905 -1.074953 0
M  V30 11 C 1.589007 1.483056 -0.684301 0
M  V30 12 C 0.459827 1.929351 0.016595 0
M  V30 13 C -0.487135 1.038005 0.485228 0
M  V30 14 C -0.343009 -0.346819 0.270758 0
M  V30 15 C -1.256994 -1.364482 0.746564 0
M  V30 16 N -1.358648 -1.409069 2.098415 0
M  V30 17 N -2.177396 -2.403166 2.463873 0
M  V30 18 C -2.603872 -3.000319 1.344575 0
M  V30 19 N -2.038011 -2.354658 0.314331 0
M  V30 20 C -2.170316 -2.591739 -1.068102 0
M  V30 21 C -1.925521 -1.443232 -1.769695 0
M  V30 22 C -1.963954 -1.534414 -3.145928 0
M  V30 23 C -2.249579 -2.779382 -3.716487 0
M  V30 24 N -2.499321 -3.930900 -3.020837 0
M  V30 25 C -2.452976 -3.802790 -1.660595 0
M  V30 26 N -2.807533 -5.058966 -1.036703 0
M  V30 27 C -3.498166 -5.075646 0.238074 0
M  V30 28 C -4.322808 -6.204927 0.309545 0
M  V30 29 C -5.066972 -6.367164 1.452220 0
M  V30 30 C -5.010611 -5.452936 2.500741 0
M  V30 31 C -4.209055 -4.336453 2.456529 0
M  V30 32 C -3.465341 -4.176413 1.313321 0
M  V30 33 C 0.803442 -0.757080 -0.436639 0
M  V30 34 C 1.747148 0.132672 -0.903568 0
M  V30 35 C 1.990748 3.186142 -2.442922 0
M  V30 36 C 3.075436 2.355644 -3.122910 0
M  V30 37 C 3.738304 2.268864 -1.754073 0
M  V30 38 C 1.354363 2.579061 3.225129 0
M  V30 39 C 0.703782 1.646374 4.006127 0
M  V30 40 H 0.506593 -1.629360 4.558414 0
M  V30 41 H 0.590995 -0.418270 5.896444 0
M  V30 42 H -0.821540 -0.461023 4.693122 0
M  V30 43 H 2.300358 -1.124858 3.074445 0
M  V30 44 H 3.494538 0.564547 1.645225 0
M  V30 45 H 1.719234 4.360507 -0.137994 0
M  V30 46 H 0.201223 2.960636 0.264661 0
M  V30 47 H -1.376635 1.321681 1.030958 0
M  V30 48 H -1.747997 -0.448128 -1.462449 0
M  V30 49 H -1.796446 -0.742764 -3.864482 0
M  V30 50 H -2.289093 -2.902769 -4.789638 0
M  V30 51 H -2.583498 -5.945425 -1.506770 0
M  V30 52 H -4.318565 -6.875421 -0.535915 0
M  V30 53 H -5.709235 -7.228019 1.531140 0
M  V30 54 H -5.600381 -5.578848 3.408583 0
M  V30 55 H -4.086247 -3.568816 3.201518 0
M  V30 56 H 1.013650 -1.800014 -0.657298 0
M  V30 57 H 2.635690 -0.098938 -1.445188 0
M  V30 58 H 0.963126 2.930543 -2.730940 0
M  V30 59 H 2.204682 4.255919 -2.597904 0
M  V30 60 H 2.699877 1.384779 -3.493685 0
M  V30 61 H 3.678782 2.899113 -3.880540 0
M  V30 62 H 4.560539 2.987615 -1.626047 0
M  V30 63 H 4.125158 1.254872 -1.548826 0
M  V30 64 H 1.100744 3.621887 3.255697 0
M  V30 65 H -0.085852 2.053387 4.654488 0
M  V30 END ATOM
M  V30 BEGIN BOND
M  V30 1 1 1 2
M  V30 2 2 2 3
M  V30 3 1 3 4
M  V30 4 2 4 5
M  V30 5 1 5 6
M  V30 6 2 6 7
M  V30 7 2 6 8
M  V30 8 1 6 9
M  V30 9 1 9 10
M  V30 10 1 10 11
M  V30 11 2 11 12
M  V30 12 1 12 13
M  V30 13 2 13 14
M  V30 14 1 14 15
M  V30 15 2 15 16
M  V30 16 1 16 17
M  V30 17 2 17 18
M  V30 18 1 18 19
M  V30 19 1 19 20
M  V30 20 2 20 21
M  V30 21 1 21 22
M  V30 22 2 22 23
M  V30 23 1 23 24
M  V30 24 2 24 25
M  V30 25 1 25 26
M  V30 26 1 26 27
M  V30 27 2 27 28
M  V30 28 1 28 29
M  V30 29 2 29 30
M  V30 30 1 30 31
M  V30 31 2 31 32
M  V30 32 1 14 33
M  V30 33 2 33 34
M  V30 34 1 10 35
M  V30 35 1 35 36
M  V30 36 1 36 37
M  V30 37 1 5 38
M  V30 38 2 38 39
M  V30 39 1 39 2
M  V30 40 1 37 10
M  V30 41 1 34 11
M  V30 42 1 19 15
M  V30 43 1 25 20
M  V30 44 1 32 27
M  V30 45 1 32 18
M  V30 46 1 1 40
M  V30 47 1 1 41
M  V30 48 1 1 42
M  V30 49 1 3 43
M  V30 50 1 4 44
M  V30 51 1 9 45
M  V30 52 1 12 46
M  V30 53 1 13 47
M  V30 54 1 21 48
M  V30 55 1 22 49
M  V30 56 1 23 50
M  V30 57 1 26 51
M  V30 58 1 28 52
M  V30 59 1 29 53
M  V30 60 1 30 54
M  V30 61 1 31 55
M  V30 62 1 33 56
M  V30 63 1 34 57
M  V30 64 1 35 58
M  V30 65 1 35 59
M  V30 66 1 36 60
M  V30 67 1 36 61
M  V30 68 1 37 62
M  V30 69 1 37 63
M  V30 70 1 38 64
M  V30 71 1 39 65
M  V30 END BOND
M  V30 END CTAB
M  END
>  <Dataset>  (232) 
ChEMBL_Kinases

>  <Ligand_Instance>  (232) 
nan

>  <PDB_ID>  (232) 
nan

>  <Standardized_SMILES>  (232) 
Cc1ccc(S(=O)(=O)NC2(c3ccc(-c4nnc5n4-c4cccnc4Nc4ccccc4-5)cc3)CCC2)cc1

>  <Name>  (232) 
nan

>  <Pocket>  (232) 
nan

>  <ATP_Site>  (232) 
nan

>  <Peripheral>  (232) 
nan

>  <Num_H_Atoms_ProtBoundConf>  (232) 
nan

>  <Num_Resolved_Atoms>  (232) 
nan

>  <Num_Not_Resolved_Atoms>  (232) 
nan

$$$$
CHEMBL3684508
     RDKit          3D

  0  0  0  0  0  0  0  0  0  0999 V3000
M  V30 BEGIN CTAB
M  V30 COUNTS 65 71 0 0 0
M  V30 BEGIN ATOM
M  V30 1 C 3.940639 -2.358632 2.324270 0
M  V30 2 C 3.003211 -1.425616 2.997592 0
M  V30 3 C 1.951006 -1.925658 3.696118 0
M  V30 4 C 1.059315 -1.088663 4.334086 0
M  V30 5 C 1.170248 0.284787 4.309171 0
M  V30 6 C 2.236174 0.798482 3.603008 0
M  V30 7 S 2.666659 2.469559 3.429659 0
M  V30 8 O 2.220177 3.143004 4.733643 0
M  V30 9 O 4.180436 2.644461 3.440062 0
M  V30 10 N 1.940456 3.315511 2.170016 0
M  V30 11 C 2.162685 2.894491 0.840450 0
M  V30 12 C 1.276368 1.855698 0.277663 0
M  V30 13 C -0.035102 2.297265 0.514953 0
M  V30 14 C -1.142518 1.565576 0.057028 0
M  V30 15 C -0.939430 0.367127 -0.653066 0
M  V30 16 C -2.050091 -0.362160 -1.211900 0
M  V30 17 N -2.722118 0.390467 -2.138292 0
M  V30 18 N -3.711995 -0.323928 -2.672034 0
M  V30 19 C -3.687024 -1.535796 -2.098220 0
M  V30 20 N -2.675359 -1.532454 -1.217089 0
M  V30 21 C -2.226012 -2.550329 -0.354450 0
M  V30 22 C -1.580676 -2.007961 0.719098 0
M  V30 23 C -1.054803 -2.913836 1.611929 0
M  V30 24 C -1.200978 -4.265179 1.387675 0
M  V30 25 N -1.851611 -4.805845 0.311812 0
M  V30 26 C -2.373892 -3.902130 -0.573352 0
M  V30 27 N -3.092909 -4.597180 -1.617477 0
M  V30 28 C -4.250900 -3.986329 -2.238486 0
M  V30 29 C -5.138861 -4.977082 -2.645411 0
M  V30 30 C -6.310761 -4.567172 -3.245999 0
M  V30 31 C -6.596243 -3.229487 -3.438239 0
M  V30 32 C -5.737408 -2.225500 -3.047093 0
M  V30 33 C -4.571695 -2.638561 -2.450116 0
M  V30 34 C 0.388449 -0.036826 -0.863440 0
M  V30 35 C 1.471607 0.682694 -0.413215 0
M  V30 36 C 3.653663 2.635419 0.514192 0
M  V30 37 C 3.376698 3.323556 -0.807305 0
M  V30 38 C 2.293607 4.100390 -0.089355 0
M  V30 39 C 3.141241 -0.052916 2.954492 0
M  V30 40 H 4.833019 -1.812819 1.948293 0
M  V30 41 H 4.323454 -3.101457 3.049228 0
M  V30 42 H 3.369117 -2.859079 1.512814 0
M  V30 43 H 1.791459 -2.996043 3.765501 0
M  V30 44 H 0.213889 -1.482198 4.895271 0
M  V30 45 H 0.525330 1.015508 4.774580 0
M  V30 46 H 1.963468 4.323313 2.344431 0
M  V30 47 H -0.414744 3.182910 1.035356 0
M  V30 48 H -2.182792 1.821818 0.189223 0
M  V30 49 H -1.427943 -1.012369 1.034238 0
M  V30 50 H -0.523176 -2.672762 2.508610 0
M  V30 51 H -0.799432 -5.004207 2.062829 0
M  V30 52 H -2.790049 -5.534789 -1.909059 0
M  V30 53 H -4.857927 -6.005350 -2.469549 0
M  V30 54 H -6.999376 -5.326393 -3.561854 0
M  V30 55 H -7.518096 -2.903622 -3.910426 0
M  V30 56 H -5.859716 -1.159029 -3.148281 0
M  V30 57 H 0.619979 -0.946500 -1.397591 0
M  V30 58 H 2.505103 0.482033 -0.510051 0
M  V30 59 H 3.935547 1.594183 0.399343 0
M  V30 60 H 4.286153 3.273820 1.163790 0
M  V30 61 H 4.212505 3.941666 -1.189190 0
M  V30 62 H 2.919591 2.653326 -1.557803 0
M  V30 63 H 1.349374 4.192929 -0.660718 0
M  V30 64 H 2.654323 5.002249 0.405385 0
M  V30 65 H 4.007625 0.265810 2.378042 0
M  V30 END ATOM
M  V30 BEGIN BOND
M  V30 1 1 1 2
M  V30 2 2 2 3
M  V30 3 1 3 4
M  V30 4 2 4 5
M  V30 5 1 5 6
M  V30 6 1 6 7
M  V30 7 2 7 8
M  V30 8 2 7 9
M  V30 9 1 7 10
M  V30 10 1 10 11
M  V30 11 1 11 12
M  V30 12 2 12 13
M  V30 13 1 13 14
M  V30 14 2 14 15
M  V30 15 1 15 16
M  V30 16 2 16 17
M  V30 17 1 17 18
M  V30 18 2 18 19
M  V30 19 1 19 20
M  V30 20 1 20 21
M  V30 21 2 21 22
M  V30 22 1 22 23
M  V30 23 2 23 24
M  V30 24 1 24 25
M  V30 25 2 25 26
M  V30 26 1 26 27
M  V30 27 1 27 28
M  V30 28 2 28 29
M  V30 29 1 29 30
M  V30 30 2 30 31
M  V30 31 1 31 32
M  V30 32 2 32 33
M  V30 33 1 15 34
M  V30 34 2 34 35
M  V30 35 1 11 36
M  V30 36 1 36 37
M  V30 37 1 37 38
M  V30 38 2 6 39
M  V30 39 1 39 2
M  V30 40 1 38 11
M  V30 41 1 35 12
M  V30 42 1 20 16
M  V30 43 1 26 21
M  V30 44 1 33 28
M  V30 45 1 33 19
M  V30 46 1 1 40
M  V30 47 1 1 41
M  V30 48 1 1 42
M  V30 49 1 3 43
M  V30 50 1 4 44
M  V30 51 1 5 45
M  V30 52 1 10 46
M  V30 53 1 13 47
M  V30 54 1 14 48
M  V30 55 1 22 49
M  V30 56 1 23 50
M  V30 57 1 24 51
M  V30 58 1 27 52
M  V30 59 1 29 53
M  V30 60 1 30 54
M  V30 61 1 31 55
M  V30 62 1 32 56
M  V30 63 1 34 57
M  V30 64 1 35 58
M  V30 65 1 36 59
M  V30 66 1 36 60
M  V30 67 1 37 61
M  V30 68 1 37 62
M  V30 69 1 38 63
M  V30 70 1 38 64
M  V30 71 1 39 65
M  V30 END BOND
M  V30 END CTAB
M  END
>  <Dataset>  (233) 
ChEMBL_Kinases

>  <Ligand_Instance>  (233) 
nan

>  <PDB_ID>  (233) 
nan

>  <Standardized_SMILES>  (233) 
Cc1cccc(S(=O)(=O)NC2(c3ccc(-c4nnc5n4-c4cccnc4Nc4ccccc4-5)cc3)CCC2)c1

>  <Name>  (233) 
nan

>  <Pocket>  (233) 
nan

>  <ATP_Site>  (233) 
nan

>  <Peripheral>  (233) 
nan

>  <Num_H_Atoms_ProtBoundConf>  (233) 
nan

>  <Num_Resolved_Atoms>  (233) 
nan

>  <Num_Not_Resolved_Atoms>  (233) 
nan

$$$$
CHEMBL3684509
     RDKit          3D

  0  0  0  0  0  0  0  0  0  0999 V3000
M  V30 BEGIN CTAB
M  V30 COUNTS 61 67 0 0 0
M  V30 BEGIN ATOM
M  V30 1 O 1.159145 -3.954455 3.534661 0
M  V30 2 C 2.147763 -3.179950 3.600544 0
M  V30 3 N 2.808993 -2.876587 2.384032 0
M  V30 4 C 2.523055 -3.314714 1.023132 0
M  V30 5 C 1.467579 -2.624745 0.296631 0
M  V30 6 C 1.674053 -2.368613 -1.039668 0
M  V30 7 C 0.756573 -1.717938 -1.837050 0
M  V30 8 C -0.469866 -1.271171 -1.310139 0
M  V30 9 C -1.511738 -0.611800 -2.059711 0
M  V30 10 N -2.018086 -1.390505 -3.059559 0
M  V30 11 N -3.015974 -0.726552 -3.673420 0
M  V30 12 C -3.141470 0.458681 -3.070622 0
M  V30 13 N -2.220688 0.515170 -2.096779 0
M  V30 14 C -1.948551 1.556072 -1.185632 0
M  V30 15 C -0.646545 1.475530 -0.771256 0
M  V30 16 C -0.239625 2.398192 0.171080 0
M  V30 17 C -1.187069 3.330655 0.615511 0
M  V30 18 N -2.486295 3.411503 0.196897 0
M  V30 19 C -2.839716 2.487560 -0.726757 0
M  V30 20 N -4.205830 2.718024 -1.150179 0
M  V30 21 C -4.622816 2.413980 -2.506744 0
M  V30 22 C -5.637013 3.291732 -2.896369 0
M  V30 23 C -6.133055 3.145634 -4.174071 0
M  V30 24 C -5.662499 2.178381 -5.051266 0
M  V30 25 C -4.659642 1.301729 -4.680356 0
M  V30 26 C -4.163824 1.444112 -3.408289 0
M  V30 27 C -0.708869 -1.518037 0.050191 0
M  V30 28 C 0.269869 -2.174762 0.760507 0
M  V30 29 C 2.482633 -4.824123 0.983199 0
M  V30 30 C 3.439611 -4.780561 -0.187883 0
M  V30 31 C 3.849314 -3.420957 0.276879 0
M  V30 32 C 2.567813 -2.637113 4.883476 0
M  V30 33 C 3.618430 -1.786964 5.129379 0
M  V30 34 C 3.925340 -1.334062 6.391948 0
M  V30 35 C 3.182690 -1.716974 7.487087 0
M  V30 36 F 3.436875 -1.304150 8.751641 0
M  V30 37 C 2.110148 -2.575669 7.289985 0
M  V30 38 C 1.844448 -2.999246 6.013736 0
M  V30 39 H 3.637880 -2.223164 2.518964 0
M  V30 40 H 2.510080 -2.603390 -1.657808 0
M  V30 41 H 0.809189 -1.464700 -2.885433 0
M  V30 42 H 0.162111 0.858206 -1.062481 0
M  V30 43 H 0.751792 2.481566 0.613221 0
M  V30 44 H -0.919518 4.076182 1.356841 0
M  V30 45 H -4.892081 3.117635 -0.489743 0
M  V30 46 H -5.966293 4.023641 -2.172136 0
M  V30 47 H -6.918490 3.814594 -4.497040 0
M  V30 48 H -6.048520 2.063236 -6.049709 0
M  V30 49 H -4.214353 0.513757 -5.268842 0
M  V30 50 H -1.639533 -1.189662 0.490113 0
M  V30 51 H 0.018551 -2.322862 1.795216 0
M  V30 52 H 2.967268 -5.317725 1.861932 0
M  V30 53 H 1.490167 -5.247024 0.731128 0
M  V30 54 H 4.255603 -5.532936 -0.088538 0
M  V30 55 H 2.960813 -4.866472 -1.164569 0
M  V30 56 H 4.075114 -2.645069 -0.444538 0
M  V30 57 H 4.708526 -3.517261 0.982691 0
M  V30 58 H 4.205529 -1.478004 4.300285 0
M  V30 59 H 4.759204 -0.667418 6.540334 0
M  V30 60 H 1.525768 -2.878814 8.141249 0
M  V30 61 H 0.988217 -3.672238 5.929528 0
M  V30 END ATOM
M  V30 BEGIN BOND
M  V30 1 2 1 2
M  V30 2 1 2 3
M  V30 3 1 3 4
M  V30 4 1 4 5
M  V30 5 2 5 6
M  V30 6 1 6 7
M  V30 7 2 7 8
M  V30 8 1 8 9
M  V30 9 2 9 10
M  V30 10 1 10 11
M  V30 11 2 11 12
M  V30 12 1 12 13
M  V30 13 1 13 14
M  V30 14 2 14 15
M  V30 15 1 15 16
M  V30 16 2 16 17
M  V30 17 1 17 18
M  V30 18 2 18 19
M  V30 19 1 19 20
M  V30 20 1 20 21
M  V30 21 2 21 22
M  V30 22 1 22 23
M  V30 23 2 23 24
M  V30 24 1 24 25
M  V30 25 2 25 26
M  V30 26 1 8 27
M  V30 27 2 27 28
M  V30 28 1 4 29
M  V30 29 1 29 30
M  V30 30 1 30 31
M  V30 31 1 2 32
M  V30 32 2 32 33
M  V30 33 1 33 34
M  V30 34 2 34 35
M  V30 35 1 35 36
M  V30 36 1 35 37
M  V30 37 2 37 38
M  V30 38 1 31 4
M  V30 39 1 38 32
M  V30 40 1 28 5
M  V30 41 1 13 9
M  V30 42 1 19 14
M  V30 43 1 26 21
M  V30 44 1 26 12
M  V30 45 1 3 39
M  V30 46 1 6 40
M  V30 47 1 7 41
M  V30 48 1 15 42
M  V30 49 1 16 43
M  V30 50 1 17 44
M  V30 51 1 20 45
M  V30 52 1 22 46
M  V30 53 1 23 47
M  V30 54 1 24 48
M  V30 55 1 25 49
M  V30 56 1 27 50
M  V30 57 1 28 51
M  V30 58 1 29 52
M  V30 59 1 29 53
M  V30 60 1 30 54
M  V30 61 1 30 55
M  V30 62 1 31 56
M  V30 63 1 31 57
M  V30 64 1 33 58
M  V30 65 1 34 59
M  V30 66 1 37 60
M  V30 67 1 38 61
M  V30 END BOND
M  V30 END CTAB
M  END
>  <Dataset>  (234) 
ChEMBL_Kinases

>  <Ligand_Instance>  (234) 
nan

>  <PDB_ID>  (234) 
nan

>  <Standardized_SMILES>  (234) 
O=C(NC1(c2ccc(-c3nnc4n3-c3cccnc3Nc3ccccc3-4)cc2)CCC1)c1ccc(F)cc1

>  <Name>  (234) 
nan

>  <Pocket>  (234) 
nan

>  <ATP_Site>  (234) 
nan

>  <Peripheral>  (234) 
nan

>  <Num_H_Atoms_ProtBoundConf>  (234) 
nan

>  <Num_Resolved_Atoms>  (234) 
nan

>  <Num_Not_Resolved_Atoms>  (234) 
nan

$$$$
CHEMBL3684510
     RDKit          3D

  0  0  0  0  0  0  0  0  0  0999 V3000
M  V30 BEGIN CTAB
M  V30 COUNTS 72 77 0 0 0
M  V30 BEGIN ATOM
M  V30 1 C 5.559510 -4.736589 1.839145 0
M  V30 2 C 4.281521 -5.470362 2.200971 0
M  V30 3 C 4.669133 -6.725437 2.912539 0
M  V30 4 C 3.403265 -4.550828 3.040371 0
M  V30 5 O 3.586473 -5.785879 0.985170 0
M  V30 6 C 3.192491 -4.744900 0.153083 0
M  V30 7 O 3.527663 -3.615733 0.625527 0
M  V30 8 N 2.509435 -4.849651 -1.066591 0
M  V30 9 C 2.182585 -3.648283 -1.795219 0
M  V30 10 C 2.843892 -3.536797 -3.132378 0
M  V30 11 C 2.524249 -2.179005 -3.717339 0
M  V30 12 N 1.678406 -1.395055 -2.871184 0
M  V30 13 C 1.612521 -0.008684 -3.150434 0
M  V30 14 C 0.716048 0.756596 -2.249794 0
M  V30 15 C -0.600612 0.879974 -2.646573 0
M  V30 16 C -1.416080 1.594553 -1.795596 0
M  V30 17 C -1.018349 2.188385 -0.591147 0
M  V30 18 C -1.900934 2.959139 0.253307 0
M  V30 19 N -1.507957 4.260767 0.387439 0
M  V30 20 N -2.405174 4.919640 1.142858 0
M  V30 21 C -3.365012 4.056487 1.492331 0
M  V30 22 N -3.037570 2.877264 0.946343 0
M  V30 23 C -3.719141 1.645387 1.022132 0
M  V30 24 C -2.844278 0.608668 0.841759 0
M  V30 25 C -3.369350 -0.666813 0.833716 0
M  V30 26 C -4.750878 -0.813284 1.011835 0
M  V30 27 N -5.614183 0.232847 1.195410 0
M  V30 28 C -5.065938 1.477332 1.198504 0
M  V30 29 N -6.083398 2.465946 1.477620 0
M  V30 30 C -5.749412 3.677260 2.198183 0
M  V30 31 C -6.855199 4.107494 2.933829 0
M  V30 32 C -6.695443 5.247255 3.693601 0
M  V30 33 C -5.498673 5.945921 3.736374 0
M  V30 34 C -4.391352 5.538800 3.015983 0
M  V30 35 C -4.554323 4.405004 2.260890 0
M  V30 36 C 0.342349 1.996351 -0.291837 0
M  V30 37 C 1.224602 1.296911 -1.085989 0
M  V30 38 C 0.465141 -2.043096 -2.498595 0
M  V30 39 C 0.693472 -3.451951 -1.993029 0
M  V30 40 H 6.373251 -5.027985 2.558941 0
M  V30 41 H 5.906407 -5.071128 0.838894 0
M  V30 42 H 5.471592 -3.633378 1.924467 0
M  V30 43 H 3.822919 -7.152185 3.497139 0
M  V30 44 H 5.513766 -6.454845 3.592605 0
M  V30 45 H 5.043125 -7.433957 2.148407 0
M  V30 46 H 3.390285 -4.925482 4.081067 0
M  V30 47 H 3.822931 -3.508896 3.039711 0
M  V30 48 H 2.382570 -4.474675 2.602094 0
M  V30 49 H 2.269434 -5.813231 -1.387892 0
M  V30 50 H 2.572036 -2.786545 -1.191455 0
M  V30 51 H 2.556568 -4.376047 -3.809147 0
M  V30 52 H 3.943152 -3.618044 -2.955643 0
M  V30 53 H 2.032130 -2.374960 -4.700711 0
M  V30 54 H 3.473469 -1.661907 -3.970202 0
M  V30 55 H 2.662785 0.393269 -3.045326 0
M  V30 56 H 1.338999 0.182980 -4.219212 0
M  V30 57 H -1.002188 0.463453 -3.547680 0
M  V30 58 H -2.475973 1.744154 -2.028228 0
M  V30 59 H -1.791395 0.577627 0.745795 0
M  V30 60 H -2.836471 -1.585925 0.704584 0
M  V30 61 H -5.208606 -1.792512 1.010634 0
M  V30 62 H -7.057486 2.301932 1.176691 0
M  V30 63 H -7.760695 3.522353 2.857729 0
M  V30 64 H -7.542809 5.596623 4.271435 0
M  V30 65 H -5.373889 6.840531 4.333620 0
M  V30 66 H -3.419948 5.998696 2.972871 0
M  V30 67 H 0.723800 2.426976 0.624808 0
M  V30 68 H 2.248650 1.203911 -0.771755 0
M  V30 69 H -0.198583 -2.104340 -3.383591 0
M  V30 70 H -0.049791 -1.410073 -1.751641 0
M  V30 71 H 0.097476 -3.700143 -1.091324 0
M  V30 72 H 0.385262 -4.180011 -2.770266 0
M  V30 END ATOM
M  V30 BEGIN BOND
M  V30 1 1 1 2
M  V30 2 1 2 3
M  V30 3 1 2 4
M  V30 4 1 2 5
M  V30 5 1 5 6
M  V30 6 2 6 7
M  V30 7 1 6 8
M  V30 8 1 8 9
M  V30 9 1 9 10
M  V30 10 1 10 11
M  V30 11 1 11 12
M  V30 12 1 12 13
M  V30 13 1 13 14
M  V30 14 2 14 15
M  V30 15 1 15 16
M  V30 16 2 16 17
M  V30 17 1 17 18
M  V30 18 2 18 19
M  V30 19 1 19 20
M  V30 20 2 20 21
M  V30 21 1 21 22
M  V30 22 1 22 23
M  V30 23 2 23 24
M  V30 24 1 24 25
M  V30 25 2 25 26
M  V30 26 1 26 27
M  V30 27 2 27 28
M  V30 28 1 28 29
M  V30 29 1 29 30
M  V30 30 2 30 31
M  V30 31 1 31 32
M  V30 32 2 32 33
M  V30 33 1 33 34
M  V30 34 2 34 35
M  V30 35 1 17 36
M  V30 36 2 36 37
M  V30 37 1 12 38
M  V30 38 1 38 39
M  V30 39 1 39 9
M  V30 40 1 37 14
M  V30 41 1 22 18
M  V30 42 1 28 23
M  V30 43 1 35 30
M  V30 44 1 35 21
M  V30 45 1 1 40
M  V30 46 1 1 41
M  V30 47 1 1 42
M  V30 48 1 3 43
M  V30 49 1 3 44
M  V30 50 1 3 45
M  V30 51 1 4 46
M  V30 52 1 4 47
M  V30 53 1 4 48
M  V30 54 1 8 49
M  V30 55 1 9 50
M  V30 56 1 10 51
M  V30 57 1 10 52
M  V30 58 1 11 53
M  V30 59 1 11 54
M  V30 60 1 13 55
M  V30 61 1 13 56
M  V30 62 1 15 57
M  V30 63 1 16 58
M  V30 64 1 24 59
M  V30 65 1 25 60
M  V30 66 1 26 61
M  V30 67 1 29 62
M  V30 68 1 31 63
M  V30 69 1 32 64
M  V30 70 1 33 65
M  V30 71 1 34 66
M  V30 72 1 36 67
M  V30 73 1 37 68
M  V30 74 1 38 69
M  V30 75 1 38 70
M  V30 76 1 39 71
M  V30 77 1 39 72
M  V30 END BOND
M  V30 END CTAB
M  END
>  <Dataset>  (235) 
ChEMBL_Kinases

>  <Ligand_Instance>  (235) 
nan

>  <PDB_ID>  (235) 
nan

>  <Standardized_SMILES>  (235) 
CC(C)(C)OC(=O)NC1CCN(Cc2ccc(-c3nnc4n3-c3cccnc3Nc3ccccc3-4)cc2)CC1

>  <Name>  (235) 
nan

>  <Pocket>  (235) 
nan

>  <ATP_Site>  (235) 
nan

>  <Peripheral>  (235) 
nan

>  <Num_H_Atoms_ProtBoundConf>  (235) 
nan

>  <Num_Resolved_Atoms>  (235) 
nan

>  <Num_Not_Resolved_Atoms>  (235) 
nan

$$$$
CHEMBL3684511
     RDKit          3D

  0  0  0  0  0  0  0  0  0  0999 V3000
M  V30 BEGIN CTAB
M  V30 COUNTS 62 68 0 0 0
M  V30 BEGIN ATOM
M  V30 1 F 3.385078 -0.929091 7.621050 0
M  V30 2 C 3.587559 -0.332728 6.407235 0
M  V30 3 C 3.259414 0.993486 6.165255 0
M  V30 4 C 3.493975 1.526550 4.910755 0
M  V30 5 C 4.046108 0.742942 3.921353 0
M  V30 6 C 4.354142 1.091876 2.622884 0
M  V30 7 C 4.213121 2.325801 1.832999 0
M  V30 8 C 2.819469 2.583008 1.325988 0
M  V30 9 N 1.822796 2.719439 2.355794 0
M  V30 10 C 0.519098 2.956648 1.719288 0
M  V30 11 C 0.112429 1.851092 0.829414 0
M  V30 12 C 0.410154 1.800421 -0.535849 0
M  V30 13 C 0.017978 0.753211 -1.342688 0
M  V30 14 C -0.711329 -0.319046 -0.796827 0
M  V30 15 C -1.151536 -1.489389 -1.521891 0
M  V30 16 N -0.132968 -2.236192 -2.046640 0
M  V30 17 N -0.619826 -3.317070 -2.651364 0
M  V30 18 C -1.937709 -3.287160 -2.529343 0
M  V30 19 N -2.248597 -2.174534 -1.846864 0
M  V30 20 C -3.515332 -1.685950 -1.465260 0
M  V30 21 C -3.468924 -0.327860 -1.308300 0
M  V30 22 C -4.628224 0.285798 -0.880417 0
M  V30 23 C -5.756088 -0.494375 -0.640330 0
M  V30 24 N -5.791018 -1.851013 -0.804888 0
M  V30 25 C -4.633904 -2.443058 -1.229400 0
M  V30 26 N -4.840395 -3.861187 -1.432416 0
M  V30 27 C -4.105761 -4.565080 -2.464505 0
M  V30 28 C -4.893720 -5.618173 -2.941203 0
M  V30 29 C -4.354312 -6.391580 -3.948353 0
M  V30 30 C -3.089532 -6.137252 -4.464600 0
M  V30 31 C -2.301425 -5.103108 -4.003937 0
M  V30 32 C -2.831404 -4.333060 -3.004420 0
M  V30 33 C -0.981215 -0.212803 0.581526 0
M  V30 34 C -0.599821 0.820065 1.400322 0
M  V30 35 C 4.879751 -0.114622 2.135410 0
M  V30 36 N 4.878334 -1.084033 3.067921 0
M  V30 37 C 4.363355 -0.570331 4.186121 0
M  V30 38 C 4.148357 -1.143071 5.417429 0
M  V30 39 H 2.822979 1.555366 7.002903 0
M  V30 40 H 3.244037 2.544075 4.738409 0
M  V30 41 H 4.868966 2.244862 0.938826 0
M  V30 42 H 4.617389 3.221178 2.383213 0
M  V30 43 H 2.536964 1.730660 0.673171 0
M  V30 44 H 2.784089 3.518372 0.732452 0
M  V30 45 H 2.030547 3.565484 2.966090 0
M  V30 46 H 0.625977 3.878515 1.108996 0
M  V30 47 H -0.272684 3.093648 2.479660 0
M  V30 48 H 0.969070 2.627044 -0.945144 0
M  V30 49 H 0.233961 0.695507 -2.382008 0
M  V30 50 H -2.709396 0.383043 -1.496590 0
M  V30 51 H -4.758428 1.354064 -0.704505 0
M  V30 52 H -6.680358 -0.058257 -0.303929 0
M  V30 53 H -5.528146 -4.360144 -0.844662 0
M  V30 54 H -5.864160 -5.765928 -2.499182 0
M  V30 55 H -4.939979 -7.195388 -4.321617 0
M  V30 56 H -2.656044 -6.742912 -5.260357 0
M  V30 57 H -1.318595 -4.817590 -4.326398 0
M  V30 58 H -1.548857 -1.041081 1.021849 0
M  V30 59 H -0.855294 0.808713 2.442670 0
M  V30 60 H 5.251183 -0.255500 1.109636 0
M  V30 61 H 5.229803 -2.052268 2.897102 0
M  V30 62 H 4.397714 -2.182273 5.631871 0
M  V30 END ATOM
M  V30 BEGIN BOND
M  V30 1 1 1 2
M  V30 2 2 2 3
M  V30 3 1 3 4
M  V30 4 2 4 5
M  V30 5 1 5 6
M  V30 6 1 6 7
M  V30 7 1 7 8
M  V30 8 1 8 9
M  V30 9 1 9 10
M  V30 10 1 10 11
M  V30 11 2 11 12
M  V30 12 1 12 13
M  V30 13 2 13 14
M  V30 14 1 14 15
M  V30 15 2 15 16
M  V30 16 1 16 17
M  V30 17 2 17 18
M  V30 18 1 18 19
M  V30 19 1 19 20
M  V30 20 2 20 21
M  V30 21 1 21 22
M  V30 22 2 22 23
M  V30 23 1 23 24
M  V30 24 2 24 25
M  V30 25 1 25 26
M  V30 26 1 26 27
M  V30 27 2 27 28
M  V30 28 1 28 29
M  V30 29 2 29 30
M  V30 30 1 30 31
M  V30 31 2 31 32
M  V30 32 1 14 33
M  V30 33 2 33 34
M  V30 34 2 6 35
M  V30 35 1 35 36
M  V30 36 1 36 37
M  V30 37 2 37 38
M  V30 38 1 38 2
M  V30 39 1 37 5
M  V30 40 1 34 11
M  V30 41 1 19 15
M  V30 42 1 25 20
M  V30 43 1 32 27
M  V30 44 1 32 18
M  V30 45 1 3 39
M  V30 46 1 4 40
M  V30 47 1 7 41
M  V30 48 1 7 42
M  V30 49 1 8 43
M  V30 50 1 8 44
M  V30 51 1 9 45
M  V30 52 1 10 46
M  V30 53 1 10 47
M  V30 54 1 12 48
M  V30 55 1 13 49
M  V30 56 1 21 50
M  V30 57 1 22 51
M  V30 58 1 23 52
M  V30 59 1 26 53
M  V30 60 1 28 54
M  V30 61 1 29 55
M  V30 62 1 30 56
M  V30 63 1 31 57
M  V30 64 1 33 58
M  V30 65 1 34 59
M  V30 66 1 35 60
M  V30 67 1 36 61
M  V30 68 1 38 62
M  V30 END BOND
M  V30 END CTAB
M  END
>  <Dataset>  (236) 
ChEMBL_Kinases

>  <Ligand_Instance>  (236) 
nan

>  <PDB_ID>  (236) 
nan

>  <Standardized_SMILES>  (236) 
Fc1ccc2c(CCNCc3ccc(-c4nnc5n4-c4cccnc4Nc4ccccc4-5)cc3)c[nH]c2c1

>  <Name>  (236) 
nan

>  <Pocket>  (236) 
nan

>  <ATP_Site>  (236) 
nan

>  <Peripheral>  (236) 
nan

>  <Num_H_Atoms_ProtBoundConf>  (236) 
nan

>  <Num_Resolved_Atoms>  (236) 
nan

>  <Num_Not_Resolved_Atoms>  (236) 
nan

$$$$
CHEMBL3684512
     RDKit          3D

  0  0  0  0  0  0  0  0  0  0999 V3000
M  V30 BEGIN CTAB
M  V30 COUNTS 61 67 0 0 0
M  V30 BEGIN ATOM
M  V30 1 Cl 8.210718 -4.097322 1.140870 0
M  V30 2 C 7.106833 -2.791733 1.480237 0
M  V30 3 C 5.912757 -3.090240 2.125590 0
M  V30 4 C 5.054729 -2.061561 2.387144 0
M  V30 5 C 5.357937 -0.762956 2.024425 0
M  V30 6 N 4.667073 0.384988 2.183021 0
M  V30 7 C 5.406043 1.360161 1.655085 0
M  V30 8 C 4.984119 2.798622 1.631824 0
M  V30 9 C 3.624530 2.960211 2.284953 0
M  V30 10 N 2.613179 2.184181 1.597351 0
M  V30 11 C 1.309374 2.322537 2.201428 0
M  V30 12 C 0.387558 1.468143 1.384764 0
M  V30 13 C -0.218484 2.091430 0.321527 0
M  V30 14 C -1.067513 1.314291 -0.435216 0
M  V30 15 C -1.344275 -0.043387 -0.191532 0
M  V30 16 C -2.219783 -0.821669 -1.039938 0
M  V30 17 N -1.778509 -0.901615 -2.330732 0
M  V30 18 N -2.616163 -1.680370 -3.040020 0
M  V30 19 C -3.588819 -2.099121 -2.214293 0
M  V30 20 N -3.327909 -1.564128 -1.015074 0
M  V30 21 C -4.048553 -1.691209 0.187045 0
M  V30 22 C -3.821275 -0.613013 0.997923 0
M  V30 23 C -4.418112 -0.616578 2.242260 0
M  V30 24 C -5.214995 -1.714213 2.593269 0
M  V30 25 N -5.439118 -2.786367 1.772391 0
M  V30 26 C -4.836176 -2.756690 0.546162 0
M  V30 27 N -5.227063 -3.912591 -0.226987 0
M  V30 28 C -5.338123 -3.822671 -1.666214 0
M  V30 29 C -6.317394 -4.707055 -2.118746 0
M  V30 30 C -6.565753 -4.738577 -3.475013 0
M  V30 31 C -5.868129 -3.921364 -4.358638 0
M  V30 32 C -4.894804 -3.038408 -3.940094 0
M  V30 33 C -4.658118 -3.018229 -2.589176 0
M  V30 34 C -0.662080 -0.563071 0.924491 0
M  V30 35 C 0.199971 0.155405 1.724221 0
M  V30 36 N 6.551432 0.896071 1.158105 0
M  V30 37 C 6.557588 -0.451934 1.374245 0
M  V30 38 C 7.420550 -1.498819 1.113176 0
M  V30 39 H 5.703652 -4.107867 2.395629 0
M  V30 40 H 4.121983 -2.269582 2.887067 0
M  V30 41 H 5.007767 3.238205 0.636384 0
M  V30 42 H 5.698657 3.303451 2.340912 0
M  V30 43 H 3.681030 2.558989 3.310187 0
M  V30 44 H 3.362989 4.031147 2.227488 0
M  V30 45 H 2.621064 2.278062 0.577912 0
M  V30 46 H 1.355130 1.870914 3.213539 0
M  V30 47 H 0.944477 3.367986 2.219650 0
M  V30 48 H -0.063056 3.120511 0.066374 0
M  V30 49 H -1.563845 1.768190 -1.280886 0
M  V30 50 H -3.291043 0.288060 0.843352 0
M  V30 51 H -4.347279 0.146361 3.008726 0
M  V30 52 H -5.699357 -1.759932 3.557455 0
M  V30 53 H -5.443386 -4.800757 0.251510 0
M  V30 54 H -6.819558 -5.314920 -1.379363 0
M  V30 55 H -7.316854 -5.413322 -3.844633 0
M  V30 56 H -6.062146 -3.942979 -5.432492 0
M  V30 57 H -4.302497 -2.369274 -4.536045 0
M  V30 58 H -0.883210 -1.616436 1.105148 0
M  V30 59 H 0.681841 -0.326899 2.563646 0
M  V30 60 H 7.338574 1.398909 0.682951 0
M  V30 61 H 8.354012 -1.280583 0.611086 0
M  V30 END ATOM
M  V30 BEGIN BOND
M  V30 1 1 1 2
M  V30 2 2 2 3
M  V30 3 1 3 4
M  V30 4 2 4 5
M  V30 5 1 5 6
M  V30 6 2 6 7
M  V30 7 1 7 8
M  V30 8 1 8 9
M  V30 9 1 9 10
M  V30 10 1 10 11
M  V30 11 1 11 12
M  V30 12 2 12 13
M  V30 13 1 13 14
M  V30 14 2 14 15
M  V30 15 1 15 16
M  V30 16 2 16 17
M  V30 17 1 17 18
M  V30 18 2 18 19
M  V30 19 1 19 20
M  V30 20 1 20 21
M  V30 21 2 21 22
M  V30 22 1 22 23
M  V30 23 2 23 24
M  V30 24 1 24 25
M  V30 25 2 25 26
M  V30 26 1 26 27
M  V30 27 1 27 28
M  V30 28 2 28 29
M  V30 29 1 29 30
M  V30 30 2 30 31
M  V30 31 1 31 32
M  V30 32 2 32 33
M  V30 33 1 15 34
M  V30 34 2 34 35
M  V30 35 1 7 36
M  V30 36 1 36 37
M  V30 37 2 37 38
M  V30 38 1 38 2
M  V30 39 1 37 5
M  V30 40 1 35 12
M  V30 41 1 20 16
M  V30 42 1 26 21
M  V30 43 1 33 28
M  V30 44 1 33 19
M  V30 45 1 3 39
M  V30 46 1 4 40
M  V30 47 1 8 41
M  V30 48 1 8 42
M  V30 49 1 9 43
M  V30 50 1 9 44
M  V30 51 1 10 45
M  V30 52 1 11 46
M  V30 53 1 11 47
M  V30 54 1 13 48
M  V30 55 1 14 49
M  V30 56 1 22 50
M  V30 57 1 23 51
M  V30 58 1 24 52
M  V30 59 1 27 53
M  V30 60 1 29 54
M  V30 61 1 30 55
M  V30 62 1 31 56
M  V30 63 1 32 57
M  V30 64 1 34 58
M  V30 65 1 35 59
M  V30 66 1 36 60
M  V30 67 1 38 61
M  V30 END BOND
M  V30 END CTAB
M  END
>  <Dataset>  (237) 
ChEMBL_Kinases

>  <Ligand_Instance>  (237) 
nan

>  <PDB_ID>  (237) 
nan

>  <Standardized_SMILES>  (237) 
Clc1ccc2nc(CCNCc3ccc(-c4nnc5n4-c4cccnc4Nc4ccccc4-5)cc3)[nH]c2c1

>  <Name>  (237) 
nan

>  <Pocket>  (237) 
nan

>  <ATP_Site>  (237) 
nan

>  <Peripheral>  (237) 
nan

>  <Num_H_Atoms_ProtBoundConf>  (237) 
nan

>  <Num_Resolved_Atoms>  (237) 
nan

>  <Num_Not_Resolved_Atoms>  (237) 
nan

$$$$
CHEMBL3684513
     RDKit          3D

  0  0  0  0  0  0  0  0  0  0999 V3000
M  V30 BEGIN CTAB
M  V30 COUNTS 62 68 0 0 0
M  V30 BEGIN ATOM
M  V30 1 O 4.084531 -2.968066 4.080608 0
M  V30 2 S 3.005380 -3.686671 3.268522 0
M  V30 3 O 2.913685 -5.044996 3.991452 0
M  V30 4 N 3.395689 -3.877639 1.676765 0
M  V30 5 C 3.571052 -2.840656 0.752821 0
M  V30 6 C 2.393892 -2.079974 0.251750 0
M  V30 7 C 2.701602 -0.847996 -0.294610 0
M  V30 8 C 1.783130 -0.000641 -0.866037 0
M  V30 9 C 0.430919 -0.368890 -0.919751 0
M  V30 10 C -0.762346 0.181656 -1.495777 0
M  V30 11 N -0.785901 -0.099821 -2.836149 0
M  V30 12 N -1.927313 0.378930 -3.365525 0
M  V30 13 C -2.611981 0.953303 -2.371535 0
M  V30 14 N -1.886941 0.824406 -1.251527 0
M  V30 15 C -2.170695 1.264597 0.052377 0
M  V30 16 C -1.007007 1.426166 0.747538 0
M  V30 17 C -1.092607 1.824432 2.063225 0
M  V30 18 C -2.379829 2.030700 2.575272 0
M  V30 19 N -3.540680 1.869312 1.871885 0
M  V30 20 C -3.417834 1.479167 0.584169 0
M  V30 21 N -4.713760 1.414059 -0.055899 0
M  V30 22 C -4.845384 1.703462 -1.471014 0
M  V30 23 C -6.117701 2.240558 -1.706583 0
M  V30 24 C -6.417137 2.593284 -3.004611 0
M  V30 25 C -5.489855 2.420570 -4.034028 0
M  V30 26 C -4.234367 1.892759 -3.817215 0
M  V30 27 C -3.937975 1.542244 -2.528287 0
M  V30 28 C 0.114112 -1.618824 -0.361513 0
M  V30 29 C 1.075341 -2.459683 0.213070 0
M  V30 30 C 4.239557 -3.454579 -0.504357 0
M  V30 31 C 5.338559 -2.445488 -0.360182 0
M  V30 32 C 4.809668 -2.034530 0.957173 0
M  V30 33 C 1.466158 -2.927975 3.545576 0
M  V30 34 C 0.339226 -3.755207 3.433977 0
M  V30 35 C -0.949714 -3.324011 3.678850 0
M  V30 36 C -1.110028 -2.016312 4.048904 0
M  V30 37 C -0.001126 -1.210304 4.156498 0
M  V30 38 F -0.226554 0.056945 4.547360 0
M  V30 39 C 1.294498 -1.611811 3.917687 0
M  V30 40 H 4.133682 -4.614519 1.559961 0
M  V30 41 H 3.655125 -0.311735 -0.389180 0
M  V30 42 H 1.866717 0.965202 -1.322513 0
M  V30 43 H 0.006875 1.338443 0.478681 0
M  V30 44 H -0.277046 2.005005 2.749114 0
M  V30 45 H -2.533536 2.335305 3.583992 0
M  V30 46 H -5.533706 1.176453 0.503928 0
M  V30 47 H -6.786320 2.344269 -0.864076 0
M  V30 48 H -7.390698 3.010138 -3.217231 0
M  V30 49 H -5.727499 2.699208 -5.054410 0
M  V30 50 H -3.461445 1.722360 -4.531707 0
M  V30 51 H -0.869968 -2.108636 -0.288425 0
M  V30 52 H 0.884833 -3.427971 0.646612 0
M  V30 53 H 3.661775 -3.356290 -1.419909 0
M  V30 54 H 4.609537 -4.501367 -0.334423 0
M  V30 55 H 5.401404 -1.692450 -1.174196 0
M  V30 56 H 6.361646 -2.941337 -0.336789 0
M  V30 57 H 4.702147 -0.956818 1.187182 0
M  V30 58 H 5.447233 -2.504344 1.767405 0
M  V30 59 H 0.444878 -4.795773 3.142029 0
M  V30 60 H -1.789138 -3.997324 3.579952 0
M  V30 61 H -2.108013 -1.646560 4.248658 0
M  V30 62 H 2.170075 -0.985974 3.998174 0
M  V30 END ATOM
M  V30 BEGIN BOND
M  V30 1 2 1 2
M  V30 2 2 2 3
M  V30 3 1 2 4
M  V30 4 1 4 5
M  V30 5 1 5 6
M  V30 6 2 6 7
M  V30 7 1 7 8
M  V30 8 2 8 9
M  V30 9 1 9 10
M  V30 10 2 10 11
M  V30 11 1 11 12
M  V30 12 2 12 13
M  V30 13 1 13 14
M  V30 14 1 14 15
M  V30 15 2 15 16
M  V30 16 1 16 17
M  V30 17 2 17 18
M  V30 18 1 18 19
M  V30 19 2 19 20
M  V30 20 1 20 21
M  V30 21 1 21 22
M  V30 22 2 22 23
M  V30 23 1 23 24
M  V30 24 2 24 25
M  V30 25 1 25 26
M  V30 26 2 26 27
M  V30 27 1 9 28
M  V30 28 2 28 29
M  V30 29 1 5 30
M  V30 30 1 30 31
M  V30 31 1 31 32
M  V30 32 1 2 33
M  V30 33 2 33 34
M  V30 34 1 34 35
M  V30 35 2 35 36
M  V30 36 1 36 37
M  V30 37 1 37 38
M  V30 38 2 37 39
M  V30 39 1 32 5
M  V30 40 1 39 33
M  V30 41 1 29 6
M  V30 42 1 14 10
M  V30 43 1 20 15
M  V30 44 1 27 22
M  V30 45 1 27 13
M  V30 46 1 4 40
M  V30 47 1 7 41
M  V30 48 1 8 42
M  V30 49 1 16 43
M  V30 50 1 17 44
M  V30 51 1 18 45
M  V30 52 1 21 46
M  V30 53 1 23 47
M  V30 54 1 24 48
M  V30 55 1 25 49
M  V30 56 1 26 50
M  V30 57 1 28 51
M  V30 58 1 29 52
M  V30 59 1 30 53
M  V30 60 1 30 54
M  V30 61 1 31 55
M  V30 62 1 31 56
M  V30 63 1 32 57
M  V30 64 1 32 58
M  V30 65 1 34 59
M  V30 66 1 35 60
M  V30 67 1 36 61
M  V30 68 1 39 62
M  V30 END BOND
M  V30 END CTAB
M  END
>  <Dataset>  (238) 
ChEMBL_Kinases

>  <Ligand_Instance>  (238) 
nan

>  <PDB_ID>  (238) 
nan

>  <Standardized_SMILES>  (238) 
O=S(=O)(NC1(c2ccc(-c3nnc4n3-c3cccnc3Nc3ccccc3-4)cc2)CCC1)c1cccc(F)c1

>  <Name>  (238) 
nan

>  <Pocket>  (238) 
nan

>  <ATP_Site>  (238) 
nan

>  <Peripheral>  (238) 
nan

>  <Num_H_Atoms_ProtBoundConf>  (238) 
nan

>  <Num_Resolved_Atoms>  (238) 
nan

>  <Num_Not_Resolved_Atoms>  (238) 
nan

$$$$
CHEMBL3684529
     RDKit          3D

  0  0  0  0  0  0  0  0  0  0999 V3000
M  V30 BEGIN CTAB
M  V30 COUNTS 49 54 0 0 0
M  V30 BEGIN ATOM
M  V30 1 N -3.868007 -1.439673 -3.225398 0
M  V30 2 C -3.911736 -2.058033 -1.915186 0
M  V30 3 C -2.709128 -1.805868 -1.087363 0
M  V30 4 C -1.566106 -1.971036 -1.874241 0
M  V30 5 C -0.292092 -1.796452 -1.352878 0
M  V30 6 C -0.120351 -1.443990 -0.000281 0
M  V30 7 C 1.154478 -1.269641 0.661629 0
M  V30 8 N 1.903811 -2.405203 0.676667 0
M  V30 9 N 3.043952 -2.175591 1.352581 0
M  V30 10 C 3.027146 -0.898394 1.770065 0
M  V30 11 N 1.873030 -0.372824 1.334579 0
M  V30 12 C 1.377598 0.937280 1.504345 0
M  V30 13 C 0.500193 1.241891 0.500474 0
M  V30 14 N -0.096613 2.444702 0.568046 0
M  V30 15 C 0.165415 3.295382 1.573079 0
M  V30 16 C 1.052607 3.034836 2.615580 0
M  V30 17 C 1.658290 1.796194 2.533020 0
M  V30 18 N 2.623864 1.632683 3.602956 0
M  V30 19 C 3.820781 0.831089 3.416984 0
M  V30 20 C 4.845493 1.332903 4.207060 0
M  V30 21 C 6.063170 0.690818 4.131251 0
M  V30 22 C 6.260632 -0.399853 3.310726 0
M  V30 23 C 5.263679 -0.922301 2.514890 0
M  V30 24 C 4.055963 -0.278820 2.596295 0
M  V30 25 C -1.302963 -1.289546 0.750035 0
M  V30 26 C -2.554288 -1.465999 0.218665 0
M  V30 27 C -5.221688 -1.898739 -1.192696 0
M  V30 28 C -5.256802 -3.376506 -0.860004 0
M  V30 29 C -4.185118 -3.551678 -1.938001 0
M  V30 30 H -4.001994 -2.172599 -3.951566 0
M  V30 31 H -4.643195 -0.742570 -3.266826 0
M  V30 32 H -1.500506 -2.240574 -2.933310 0
M  V30 33 H 0.630711 -1.903562 -1.885801 0
M  V30 34 H 0.214353 0.726219 -0.377711 0
M  V30 35 H -0.320541 4.264977 1.625321 0
M  V30 36 H 1.314163 3.661074 3.452441 0
M  V30 37 H 2.459968 2.107131 4.494783 0
M  V30 38 H 4.624128 2.187790 4.828464 0
M  V30 39 H 6.878544 1.064843 4.739146 0
M  V30 40 H 7.229741 -0.912230 3.248639 0
M  V30 41 H 5.310184 -1.763535 1.843574 0
M  V30 42 H -1.226454 -1.019227 1.794537 0
M  V30 43 H -3.476047 -1.362980 0.739712 0
M  V30 44 H -5.204638 -1.279301 -0.290619 0
M  V30 45 H -6.069591 -1.574844 -1.833772 0
M  V30 46 H -6.234932 -3.803623 -1.090569 0
M  V30 47 H -4.922511 -3.645922 0.160034 0
M  V30 48 H -3.395948 -4.205723 -1.569567 0
M  V30 49 H -4.677744 -3.910423 -2.874190 0
M  V30 END ATOM
M  V30 BEGIN BOND
M  V30 1 1 1 2
M  V30 2 1 2 3
M  V30 3 2 3 4
M  V30 4 1 4 5
M  V30 5 2 5 6
M  V30 6 1 6 7
M  V30 7 2 7 8
M  V30 8 1 8 9
M  V30 9 2 9 10
M  V30 10 1 10 11
M  V30 11 1 11 12
M  V30 12 2 12 13
M  V30 13 1 13 14
M  V30 14 2 14 15
M  V30 15 1 15 16
M  V30 16 2 16 17
M  V30 17 1 17 18
M  V30 18 1 18 19
M  V30 19 2 19 20
M  V30 20 1 20 21
M  V30 21 2 21 22
M  V30 22 1 22 23
M  V30 23 2 23 24
M  V30 24 1 6 25
M  V30 25 2 25 26
M  V30 26 1 2 27
M  V30 27 1 27 28
M  V30 28 1 28 29
M  V30 29 1 29 2
M  V30 30 1 26 3
M  V30 31 1 11 7
M  V30 32 1 17 12
M  V30 33 1 24 19
M  V30 34 1 24 10
M  V30 35 1 1 30
M  V30 36 1 1 31
M  V30 37 1 4 32
M  V30 38 1 5 33
M  V30 39 1 13 34
M  V30 40 1 15 35
M  V30 41 1 16 36
M  V30 42 1 18 37
M  V30 43 1 20 38
M  V30 44 1 21 39
M  V30 45 1 22 40
M  V30 46 1 23 41
M  V30 47 1 25 42
M  V30 48 1 26 43
M  V30 49 1 27 44
M  V30 50 1 27 45
M  V30 51 1 28 46
M  V30 52 1 28 47
M  V30 53 1 29 48
M  V30 54 1 29 49
M  V30 END BOND
M  V30 END CTAB
M  END
>  <Dataset>  (239) 
ChEMBL_Kinases

>  <Ligand_Instance>  (239) 
nan

>  <PDB_ID>  (239) 
nan

>  <Standardized_SMILES>  (239) 
NC1(c2ccc(-c3nnc4n3-c3cnccc3Nc3ccccc3-4)cc2)CCC1

>  <Name>  (239) 
nan

>  <Pocket>  (239) 
nan

>  <ATP_Site>  (239) 
nan

>  <Peripheral>  (239) 
nan

>  <Num_H_Atoms_ProtBoundConf>  (239) 
nan

>  <Num_Resolved_Atoms>  (239) 
nan

>  <Num_Not_Resolved_Atoms>  (239) 
nan

$$$$
CHEMBL3684515
     RDKit          3D

  0  0  0  0  0  0  0  0  0  0999 V3000
M  V30 BEGIN CTAB
M  V30 COUNTS 60 66 0 0 0
M  V30 BEGIN ATOM
M  V30 1 C 7.074771 0.922059 4.246623 0
M  V30 2 C 6.933740 1.300762 2.812821 0
M  V30 3 C 5.828767 0.902203 2.083898 0
M  V30 4 C 5.994420 1.405876 0.807610 0
M  V30 5 C 5.090474 1.252033 -0.326154 0
M  V30 6 O 5.327216 1.743372 -1.437531 0
M  V30 7 N 3.895453 0.532392 -0.213065 0
M  V30 8 C 2.912116 0.319915 -1.294041 0
M  V30 9 C 1.671991 -0.314025 -0.763554 0
M  V30 10 C 1.201346 0.439452 0.318984 0
M  V30 11 C 0.058752 0.080830 1.007921 0
M  V30 12 C -0.671998 -1.063259 0.637744 0
M  V30 13 C -1.857621 -1.553317 1.303363 0
M  V30 14 N -1.652323 -1.907248 2.606273 0
M  V30 15 N -2.772004 -2.393619 3.131510 0
M  V30 16 C -3.714220 -2.361505 2.179176 0
M  V30 17 N -3.140100 -1.846061 1.081732 0
M  V30 18 C -3.709868 -1.600947 -0.182163 0
M  V30 19 C -3.025431 -0.600393 -0.817774 0
M  V30 20 C -3.427593 -0.275604 -2.097664 0
M  V30 21 C -4.501014 -0.984309 -2.652892 0
M  V30 22 N -5.174969 -1.979364 -1.998255 0
M  V30 23 C -4.760154 -2.277304 -0.744924 0
M  V30 24 N -5.611619 -3.287975 -0.157129 0
M  V30 25 C -5.862266 -3.297322 1.270807 0
M  V30 26 C -7.139762 -3.820341 1.509286 0
M  V30 27 C -7.547178 -3.884651 2.825152 0
M  V30 28 C -6.733262 -3.453008 3.864582 0
M  V30 29 C -5.474557 -2.936746 3.649784 0
M  V30 30 C -5.069170 -2.872912 2.346333 0
M  V30 31 C -0.170867 -1.794990 -0.452326 0
M  V30 32 C 0.967592 -1.431855 -1.133633 0
M  V30 33 C 3.549974 -0.376318 -2.468408 0
M  V30 34 C 3.197103 0.822038 -3.322998 0
M  V30 35 C 2.661856 1.555771 -2.120531 0
M  V30 36 N 7.164120 2.070410 0.821949 0
M  V30 37 O 7.703507 1.998809 2.008491 0
M  V30 38 H 6.972583 -0.198837 4.255705 0
M  V30 39 H 8.065293 1.227735 4.617449 0
M  V30 40 H 6.262632 1.370763 4.844196 0
M  V30 41 H 4.959960 0.309611 2.382266 0
M  V30 42 H 3.699831 0.110332 0.745639 0
M  V30 43 H 1.633894 1.355707 0.749956 0
M  V30 44 H -0.363940 0.605382 1.845317 0
M  V30 45 H -2.242395 0.038087 -0.503985 0
M  V30 46 H -3.003488 0.486043 -2.752865 0
M  V30 47 H -4.853443 -0.771570 -3.649878 0
M  V30 48 H -6.054285 -3.995032 -0.764950 0
M  V30 49 H -7.715586 -4.137468 0.664106 0
M  V30 50 H -8.529248 -4.283610 3.045366 0
M  V30 51 H -7.052508 -3.501547 4.911755 0
M  V30 52 H -4.765417 -2.576352 4.372598 0
M  V30 53 H -0.648496 -2.692076 -0.826523 0
M  V30 54 H 1.408005 -1.938406 -1.971451 0
M  V30 55 H 3.123823 -1.335534 -2.782980 0
M  V30 56 H 4.659280 -0.529264 -2.359983 0
M  V30 57 H 4.074170 1.249541 -3.828725 0
M  V30 58 H 2.386576 0.611473 -4.050387 0
M  V30 59 H 1.546201 1.740531 -2.177396 0
M  V30 60 H 3.176014 2.476678 -1.831356 0
M  V30 END ATOM
M  V30 BEGIN BOND
M  V30 1 1 1 2
M  V30 2 2 2 3
M  V30 3 1 3 4
M  V30 4 1 4 5
M  V30 5 2 5 6
M  V30 6 1 5 7
M  V30 7 1 7 8
M  V30 8 1 8 9
M  V30 9 2 9 10
M  V30 10 1 10 11
M  V30 11 2 11 12
M  V30 12 1 12 13
M  V30 13 2 13 14
M  V30 14 1 14 15
M  V30 15 2 15 16
M  V30 16 1 16 17
M  V30 17 1 17 18
M  V30 18 2 18 19
M  V30 19 1 19 20
M  V30 20 2 20 21
M  V30 21 1 21 22
M  V30 22 2 22 23
M  V30 23 1 23 24
M  V30 24 1 24 25
M  V30 25 2 25 26
M  V30 26 1 26 27
M  V30 27 2 27 28
M  V30 28 1 28 29
M  V30 29 2 29 30
M  V30 30 1 12 31
M  V30 31 2 31 32
M  V30 32 1 8 33
M  V30 33 1 33 34
M  V30 34 1 34 35
M  V30 35 2 4 36
M  V30 36 1 36 37
M  V30 37 1 37 2
M  V30 38 1 35 8
M  V30 39 1 32 9
M  V30 40 1 17 13
M  V30 41 1 23 18
M  V30 42 1 30 25
M  V30 43 1 30 16
M  V30 44 1 1 38
M  V30 45 1 1 39
M  V30 46 1 1 40
M  V30 47 1 3 41
M  V30 48 1 7 42
M  V30 49 1 10 43
M  V30 50 1 11 44
M  V30 51 1 19 45
M  V30 52 1 20 46
M  V30 53 1 21 47
M  V30 54 1 24 48
M  V30 55 1 26 49
M  V30 56 1 27 50
M  V30 57 1 28 51
M  V30 58 1 29 52
M  V30 59 1 31 53
M  V30 60 1 32 54
M  V30 61 1 33 55
M  V30 62 1 33 56
M  V30 63 1 34 57
M  V30 64 1 34 58
M  V30 65 1 35 59
M  V30 66 1 35 60
M  V30 END BOND
M  V30 END CTAB
M  END
>  <Dataset>  (240) 
ChEMBL_Kinases

>  <Ligand_Instance>  (240) 
nan

>  <PDB_ID>  (240) 
nan

>  <Standardized_SMILES>  (240) 
Cc1cc(C(=O)NC2(c3ccc(-c4nnc5n4-c4cccnc4Nc4ccccc4-5)cc3)CCC2)no1

>  <Name>  (240) 
nan

>  <Pocket>  (240) 
nan

>  <ATP_Site>  (240) 
nan

>  <Peripheral>  (240) 
nan

>  <Num_H_Atoms_ProtBoundConf>  (240) 
nan

>  <Num_Resolved_Atoms>  (240) 
nan

>  <Num_Not_Resolved_Atoms>  (240) 
nan

$$$$
CHEMBL3684516
     RDKit          3D

  0  0  0  0  0  0  0  0  0  0999 V3000
M  V30 BEGIN CTAB
M  V30 COUNTS 70 77 0 0 0
M  V30 BEGIN ATOM
M  V30 1 C 7.450665 -1.437760 6.932540 0
M  V30 2 C 7.352662 -2.656336 6.325153 0
M  V30 3 C 6.746923 -2.856863 5.106669 0
M  V30 4 C 6.207286 -1.765682 4.460480 0
M  V30 5 C 5.522317 -1.727043 3.174192 0
M  V30 6 N 5.388880 -2.908271 2.511780 0
M  V30 7 N 4.753908 -2.668041 1.390203 0
M  V30 8 C 4.481832 -1.354036 1.329599 0
M  V30 9 C 3.781045 -0.560748 0.275387 0
M  V30 10 C 4.704461 0.498899 -0.239080 0
M  V30 11 C 4.025860 1.484156 -1.145832 0
M  V30 12 N 2.618268 1.418472 -1.062967 0
M  V30 13 C 1.910462 0.741128 -2.080839 0
M  V30 14 C 0.437638 0.751724 -1.833265 0
M  V30 15 C -0.396532 1.749014 -2.281187 0
M  V30 16 C -1.754658 1.727478 -2.040324 0
M  V30 17 C -2.340703 0.670886 -1.318882 0
M  V30 18 C -3.738984 0.543263 -0.970086 0
M  V30 19 N -4.187448 1.546927 -0.172928 0
M  V30 20 N -5.474391 1.328198 0.147090 0
M  V30 21 C -5.852596 0.185443 -0.443619 0
M  V30 22 N -4.782548 -0.263053 -1.114195 0
M  V30 23 C -4.666154 -1.425732 -1.902866 0
M  V30 24 C -3.680624 -1.270855 -2.839088 0
M  V30 25 C -3.401168 -2.344243 -3.659949 0
M  V30 26 C -4.144682 -3.518913 -3.483578 0
M  V30 27 N -5.129987 -3.663208 -2.548654 0
M  V30 28 C -5.384663 -2.591130 -1.753975 0
M  V30 29 N -6.496653 -2.866752 -0.873466 0
M  V30 30 C -7.389230 -1.801753 -0.464572 0
M  V30 31 C -8.667918 -2.323131 -0.250234 0
M  V30 32 C -9.652815 -1.437406 0.131159 0
M  V30 33 C -9.392713 -0.076706 0.298438 0
M  V30 34 C -8.137794 0.456746 0.092424 0
M  V30 35 C -7.163797 -0.430695 -0.286038 0
M  V30 36 C -1.420407 -0.297695 -0.902221 0
M  V30 37 C -0.059232 -0.315879 -1.120178 0
M  V30 38 C 2.137178 1.357351 0.262247 0
M  V30 39 C 2.628512 0.118748 0.948201 0
M  V30 40 O 4.960421 -0.814802 2.424376 0
M  V30 41 C 6.306091 -0.514610 5.080596 0
M  V30 42 C 6.920193 -0.328639 6.309782 0
M  V30 43 H 7.952274 -1.413519 7.892035 0
M  V30 44 H 7.753007 -3.559527 6.771622 0
M  V30 45 H 6.639086 -3.782395 4.582088 0
M  V30 46 H 3.510178 -1.274621 -0.504311 0
M  V30 47 H 5.620285 0.048741 -0.724124 0
M  V30 48 H 5.099217 1.028233 0.676288 0
M  V30 49 H 4.361932 2.532950 -0.915662 0
M  V30 50 H 4.316120 1.295674 -2.209387 0
M  V30 51 H 2.072307 1.292356 -3.055763 0
M  V30 52 H 2.272022 -0.292694 -2.293168 0
M  V30 53 H 0.022027 2.580328 -2.841788 0
M  V30 54 H -2.441207 2.486659 -2.372779 0
M  V30 55 H -3.086355 -0.437479 -3.106761 0
M  V30 56 H -2.647985 -2.393761 -4.456148 0
M  V30 57 H -3.968000 -4.388124 -4.094586 0
M  V30 58 H -6.661488 -3.831381 -0.549578 0
M  V30 59 H -8.805986 -3.384174 -0.393550 0
M  V30 60 H -10.651940 -1.817981 0.303050 0
M  V30 61 H -10.165776 0.621870 0.598303 0
M  V30 62 H -7.825956 1.478505 0.191074 0
M  V30 63 H -1.853042 -1.137304 -0.334525 0
M  V30 64 H 0.511398 -1.146125 -0.728449 0
M  V30 65 H 2.437503 2.289556 0.803287 0
M  V30 66 H 1.023828 1.338064 0.345087 0
M  V30 67 H 3.017679 0.450208 1.952032 0
M  V30 68 H 1.831129 -0.612170 1.192987 0
M  V30 69 H 5.918426 0.430527 4.671511 0
M  V30 70 H 7.012183 0.604813 6.807429 0
M  V30 END ATOM
M  V30 BEGIN BOND
M  V30 1 2 1 2
M  V30 2 1 2 3
M  V30 3 2 3 4
M  V30 4 1 4 5
M  V30 5 2 5 6
M  V30 6 1 6 7
M  V30 7 2 7 8
M  V30 8 1 8 9
M  V30 9 1 9 10
M  V30 10 1 10 11
M  V30 11 1 11 12
M  V30 12 1 12 13
M  V30 13 1 13 14
M  V30 14 2 14 15
M  V30 15 1 15 16
M  V30 16 2 16 17
M  V30 17 1 17 18
M  V30 18 2 18 19
M  V30 19 1 19 20
M  V30 20 2 20 21
M  V30 21 1 21 22
M  V30 22 1 22 23
M  V30 23 2 23 24
M  V30 24 1 24 25
M  V30 25 2 25 26
M  V30 26 1 26 27
M  V30 27 2 27 28
M  V30 28 1 28 29
M  V30 29 1 29 30
M  V30 30 2 30 31
M  V30 31 1 31 32
M  V30 32 2 32 33
M  V30 33 1 33 34
M  V30 34 2 34 35
M  V30 35 1 17 36
M  V30 36 2 36 37
M  V30 37 1 12 38
M  V30 38 1 38 39
M  V30 39 1 8 40
M  V30 40 1 4 41
M  V30 41 2 41 42
M  V30 42 1 42 1
M  V30 43 1 40 5
M  V30 44 1 39 9
M  V30 45 1 37 14
M  V30 46 1 22 18
M  V30 47 1 28 23
M  V30 48 1 35 30
M  V30 49 1 35 21
M  V30 50 1 1 43
M  V30 51 1 2 44
M  V30 52 1 3 45
M  V30 53 1 9 46
M  V30 54 1 10 47
M  V30 55 1 10 48
M  V30 56 1 11 49
M  V30 57 1 11 50
M  V30 58 1 13 51
M  V30 59 1 13 52
M  V30 60 1 15 53
M  V30 61 1 16 54
M  V30 62 1 24 55
M  V30 63 1 25 56
M  V30 64 1 26 57
M  V30 65 1 29 58
M  V30 66 1 31 59
M  V30 67 1 32 60
M  V30 68 1 33 61
M  V30 69 1 34 62
M  V30 70 1 36 63
M  V30 71 1 37 64
M  V30 72 1 38 65
M  V30 73 1 38 66
M  V30 74 1 39 67
M  V30 75 1 39 68
M  V30 76 1 41 69
M  V30 77 1 42 70
M  V30 END BOND
M  V30 END CTAB
M  END
>  <Dataset>  (241) 
ChEMBL_Kinases

>  <Ligand_Instance>  (241) 
nan

>  <PDB_ID>  (241) 
nan

>  <Standardized_SMILES>  (241) 
c1ccc(-c2nnc(C3CCN(Cc4ccc(-c5nnc6n5-c5cccnc5Nc5ccccc5-6)cc4)CC3)o2)cc1

>  <Name>  (241) 
nan

>  <Pocket>  (241) 
nan

>  <ATP_Site>  (241) 
nan

>  <Peripheral>  (241) 
nan

>  <Num_H_Atoms_ProtBoundConf>  (241) 
nan

>  <Num_Resolved_Atoms>  (241) 
nan

>  <Num_Not_Resolved_Atoms>  (241) 
nan

$$$$
CHEMBL3684521
     RDKit          3D

  0  0  0  0  0  0  0  0  0  0999 V3000
M  V30 BEGIN CTAB
M  V30 COUNTS 60 64 0 0 0
M  V30 BEGIN ATOM
M  V30 1 C 6.525814 3.512507 1.611809 0
M  V30 2 C 6.008878 2.139271 2.053266 0
M  V30 3 C 6.396521 1.875650 3.501517 0
M  V30 4 C 6.571520 1.057615 1.159844 0
M  V30 5 O 4.595851 2.182372 2.021253 0
M  V30 6 C 3.883240 2.450556 0.843539 0
M  V30 7 O 4.656513 2.637563 -0.132386 0
M  V30 8 N 2.446344 2.506988 0.752666 0
M  V30 9 C 2.038838 2.805193 -0.603333 0
M  V30 10 C 0.531143 2.862537 -0.687281 0
M  V30 11 C -0.097997 1.575962 -0.294884 0
M  V30 12 C -0.473610 1.303310 1.002968 0
M  V30 13 C -1.050625 0.087175 1.298453 0
M  V30 14 C -1.277964 -0.903504 0.324585 0
M  V30 15 C -1.849267 -2.201054 0.604280 0
M  V30 16 N -1.105032 -2.949745 1.470186 0
M  V30 17 N -1.671109 -4.145303 1.635146 0
M  V30 18 C -2.780414 -4.183291 0.882701 0
M  V30 19 N -2.868109 -2.995098 0.271942 0
M  V30 20 C -3.856540 -2.531996 -0.620312 0
M  V30 21 C -3.920206 -1.164989 -0.583263 0
M  V30 22 C -4.807731 -0.554631 -1.445790 0
M  V30 23 C -5.575378 -1.356891 -2.287711 0
M  V30 24 N -5.497667 -2.723448 -2.304545 0
M  V30 25 C -4.624149 -3.300046 -1.453652 0
M  V30 26 N -4.713095 -4.740874 -1.535800 0
M  V30 27 C -4.467829 -5.563367 -0.368151 0
M  V30 28 C -5.237617 -6.729729 -0.453691 0
M  V30 29 C -5.137412 -7.624098 0.591038 0
M  V30 30 C -4.304567 -7.372817 1.681906 0
M  V30 31 C -3.537516 -6.232417 1.787344 0
M  V30 32 C -3.643130 -5.349261 0.743813 0
M  V30 33 C -0.862172 -0.533584 -0.967240 0
M  V30 34 C -0.281364 0.668365 -1.311652 0
M  V30 35 H 5.749634 4.288975 1.716875 0
M  V30 36 H 6.803495 3.404423 0.547644 0
M  V30 37 H 7.397326 3.786590 2.262627 0
M  V30 38 H 5.742306 2.383542 4.216090 0
M  V30 39 H 7.442306 2.209661 3.715963 0
M  V30 40 H 6.406847 0.759888 3.654367 0
M  V30 41 H 7.021907 0.220276 1.734833 0
M  V30 42 H 7.382698 1.484572 0.530342 0
M  V30 43 H 5.744398 0.676456 0.523989 0
M  V30 44 H 2.036892 2.318295 1.693186 0
M  V30 45 H 2.469168 2.044455 -1.288818 0
M  V30 46 H 2.414097 3.786524 -0.948885 0
M  V30 47 H 0.229686 3.632789 0.079676 0
M  V30 48 H 0.185042 3.225386 -1.662606 0
M  V30 49 H -0.329360 2.015016 1.786382 0
M  V30 50 H -1.372433 -0.205253 2.285113 0
M  V30 51 H -3.440144 -0.447195 0.027490 0
M  V30 52 H -4.996693 0.518076 -1.561387 0
M  V30 53 H -6.281574 -0.931480 -2.981422 0
M  V30 54 H -4.970552 -5.185739 -2.435515 0
M  V30 55 H -5.857329 -6.858132 -1.328314 0
M  V30 56 H -5.721412 -8.533085 0.550065 0
M  V30 57 H -4.225178 -8.079741 2.508921 0
M  V30 58 H -2.875774 -5.946554 2.567554 0
M  V30 59 H -1.011034 -1.263011 -1.776795 0
M  V30 60 H -0.001803 0.841383 -2.341071 0
M  V30 END ATOM
M  V30 BEGIN BOND
M  V30 1 1 1 2
M  V30 2 1 2 3
M  V30 3 1 2 4
M  V30 4 1 2 5
M  V30 5 1 5 6
M  V30 6 2 6 7
M  V30 7 1 6 8
M  V30 8 1 8 9
M  V30 9 1 9 10
M  V30 10 1 10 11
M  V30 11 2 11 12
M  V30 12 1 12 13
M  V30 13 2 13 14
M  V30 14 1 14 15
M  V30 15 2 15 16
M  V30 16 1 16 17
M  V30 17 2 17 18
M  V30 18 1 18 19
M  V30 19 1 19 20
M  V30 20 2 20 21
M  V30 21 1 21 22
M  V30 22 2 22 23
M  V30 23 1 23 24
M  V30 24 2 24 25
M  V30 25 1 25 26
M  V30 26 1 26 27
M  V30 27 2 27 28
M  V30 28 1 28 29
M  V30 29 2 29 30
M  V30 30 1 30 31
M  V30 31 2 31 32
M  V30 32 1 14 33
M  V30 33 2 33 34
M  V30 34 1 34 11
M  V30 35 1 19 15
M  V30 36 1 25 20
M  V30 37 1 32 27
M  V30 38 1 32 18
M  V30 39 1 1 35
M  V30 40 1 1 36
M  V30 41 1 1 37
M  V30 42 1 3 38
M  V30 43 1 3 39
M  V30 44 1 3 40
M  V30 45 1 4 41
M  V30 46 1 4 42
M  V30 47 1 4 43
M  V30 48 1 8 44
M  V30 49 1 9 45
M  V30 50 1 9 46
M  V30 51 1 10 47
M  V30 52 1 10 48
M  V30 53 1 12 49
M  V30 54 1 13 50
M  V30 55 1 21 51
M  V30 56 1 22 52
M  V30 57 1 23 53
M  V30 58 1 26 54
M  V30 59 1 28 55
M  V30 60 1 29 56
M  V30 61 1 30 57
M  V30 62 1 31 58
M  V30 63 1 33 59
M  V30 64 1 34 60
M  V30 END BOND
M  V30 END CTAB
M  END
>  <Dataset>  (242) 
ChEMBL_Kinases

>  <Ligand_Instance>  (242) 
nan

>  <PDB_ID>  (242) 
nan

>  <Standardized_SMILES>  (242) 
CC(C)(C)OC(=O)NCCc1ccc(-c2nnc3n2-c2cccnc2Nc2ccccc2-3)cc1

>  <Name>  (242) 
nan

>  <Pocket>  (242) 
nan

>  <ATP_Site>  (242) 
nan

>  <Peripheral>  (242) 
nan

>  <Num_H_Atoms_ProtBoundConf>  (242) 
nan

>  <Num_Resolved_Atoms>  (242) 
nan

>  <Num_Not_Resolved_Atoms>  (242) 
nan

$$$$
CHEMBL3684524
     RDKit          3D

  0  0  0  0  0  0  0  0  0  0999 V3000
M  V30 BEGIN CTAB
M  V30 COUNTS 73 79 0 0 0
M  V30 BEGIN ATOM
M  V30 1 C 2.944938 -8.824871 -3.091200 0
M  V30 2 O 2.335121 -7.630975 -3.507655 0
M  V30 3 C 1.807854 -6.656338 -2.712265 0
M  V30 4 C 1.767349 -6.658283 -1.339483 0
M  V30 5 C 1.195356 -5.589380 -0.687246 0
M  V30 6 C 0.634742 -4.468613 -1.280100 0
M  V30 7 C 0.697450 -4.507474 -2.677522 0
M  V30 8 C 0.151334 -3.397720 -3.471027 0
M  V30 9 O 0.224932 -3.385209 -4.731536 0
M  V30 10 N -0.495459 -2.252993 -2.926769 0
M  V30 11 C -1.012626 -1.177158 -3.740666 0
M  V30 12 C -2.475167 -0.969488 -3.621079 0
M  V30 13 C -2.885341 0.399465 -3.166872 0
M  V30 14 N -2.226198 1.502199 -3.690598 0
M  V30 15 C -2.412006 2.698193 -2.934640 0
M  V30 16 C -2.071339 2.605532 -1.497260 0
M  V30 17 C -0.828590 2.774719 -0.934911 0
M  V30 18 C -0.605179 2.688298 0.419830 0
M  V30 19 C -1.663652 2.416404 1.315416 0
M  V30 20 C -1.299871 2.381794 2.711589 0
M  V30 21 N -1.871399 3.369860 3.452883 0
M  V30 22 N -1.446894 3.296437 4.726128 0
M  V30 23 C -0.610816 2.274238 4.804460 0
M  V30 24 N -0.531628 1.727676 3.583933 0
M  V30 25 C 0.221009 0.615234 3.155475 0
M  V30 26 C -0.364447 0.044310 2.056466 0
M  V30 27 C 0.283394 -1.030753 1.480473 0
M  V30 28 C 1.482997 -1.463635 2.056567 0
M  V30 29 N 2.075085 -0.901411 3.159994 0
M  V30 30 C 1.402312 0.157591 3.695083 0
M  V30 31 N 2.075601 0.616969 4.890950 0
M  V30 32 C 1.321894 1.183949 5.994850 0
M  V30 33 C 1.994432 0.892533 7.196162 0
M  V30 34 C 1.382976 1.358748 8.347291 0
M  V30 35 C 0.195992 2.063425 8.339286 0
M  V30 36 C -0.460722 2.347782 7.166783 0
M  V30 37 C 0.116146 1.902079 6.011908 0
M  V30 38 C -2.939499 2.241706 0.747944 0
M  V30 39 C -3.096989 2.340705 -0.620923 0
M  V30 40 C -0.898221 1.299003 -4.072268 0
M  V30 41 C -0.204754 0.079812 -3.522796 0
M  V30 42 C 1.259492 -5.556724 -3.366248 0
M  V30 43 H 4.019718 -8.748099 -3.418997 0
M  V30 44 H 2.463683 -9.713506 -3.587474 0
M  V30 45 H 2.978095 -8.957042 -1.989778 0
M  V30 46 H 2.187165 -7.503413 -0.818270 0
M  V30 47 H 1.200949 -5.651796 0.389240 0
M  V30 48 H 0.202655 -3.664445 -0.745602 0
M  V30 49 H -0.599422 -2.193174 -1.888863 0
M  V30 50 H -0.817018 -1.460537 -4.795905 0
M  V30 51 H -2.847725 -1.702718 -2.846087 0
M  V30 52 H -3.040367 -1.209995 -4.543559 0
M  V30 53 H -2.838689 0.425156 -2.037216 0
M  V30 54 H -3.993543 0.524480 -3.362068 0
M  V30 55 H -1.820094 3.561966 -3.382683 0
M  V30 56 H -3.475306 3.089520 -3.026125 0
M  V30 57 H -0.007914 2.985556 -1.582607 0
M  V30 58 H 0.413202 2.835023 0.788036 0
M  V30 59 H -1.274751 0.238200 1.555885 0
M  V30 60 H -0.053472 -1.591783 0.602339 0
M  V30 61 H 2.015628 -2.312132 1.619117 0
M  V30 62 H 3.102405 0.523644 4.956377 0
M  V30 63 H 2.919579 0.340955 7.136554 0
M  V30 64 H 1.877892 1.149320 9.285847 0
M  V30 65 H -0.252959 2.408225 9.256485 0
M  V30 66 H -1.380275 2.883470 7.037647 0
M  V30 67 H -3.709838 2.038089 1.474785 0
M  V30 68 H -4.097331 2.194801 -0.973214 0
M  V30 69 H -0.268877 2.179174 -3.786463 0
M  V30 70 H -0.848773 1.311289 -5.199236 0
M  V30 71 H 0.797119 0.031279 -3.989739 0
M  V30 72 H -0.050421 0.191173 -2.434809 0
M  V30 73 H 1.269812 -5.515936 -4.450897 0
M  V30 END ATOM
M  V30 BEGIN BOND
M  V30 1 1 1 2
M  V30 2 1 2 3
M  V30 3 2 3 4
M  V30 4 1 4 5
M  V30 5 2 5 6
M  V30 6 1 6 7
M  V30 7 1 7 8
M  V30 8 2 8 9
M  V30 9 1 8 10
M  V30 10 1 10 11
M  V30 11 1 11 12
M  V30 12 1 12 13
M  V30 13 1 13 14
M  V30 14 1 14 15
M  V30 15 1 15 16
M  V30 16 2 16 17
M  V30 17 1 17 18
M  V30 18 2 18 19
M  V30 19 1 19 20
M  V30 20 2 20 21
M  V30 21 1 21 22
M  V30 22 2 22 23
M  V30 23 1 23 24
M  V30 24 1 24 25
M  V30 25 2 25 26
M  V30 26 1 26 27
M  V30 27 2 27 28
M  V30 28 1 28 29
M  V30 29 2 29 30
M  V30 30 1 30 31
M  V30 31 1 31 32
M  V30 32 2 32 33
M  V30 33 1 33 34
M  V30 34 2 34 35
M  V30 35 1 35 36
M  V30 36 2 36 37
M  V30 37 1 19 38
M  V30 38 2 38 39
M  V30 39 1 14 40
M  V30 40 1 40 41
M  V30 41 2 7 42
M  V30 42 1 42 3
M  V30 43 1 41 11
M  V30 44 1 39 16
M  V30 45 1 24 20
M  V30 46 1 30 25
M  V30 47 1 37 32
M  V30 48 1 37 23
M  V30 49 1 1 43
M  V30 50 1 1 44
M  V30 51 1 1 45
M  V30 52 1 4 46
M  V30 53 1 5 47
M  V30 54 1 6 48
M  V30 55 1 10 49
M  V30 56 1 11 50
M  V30 57 1 12 51
M  V30 58 1 12 52
M  V30 59 1 13 53
M  V30 60 1 13 54
M  V30 61 1 15 55
M  V30 62 1 15 56
M  V30 63 1 17 57
M  V30 64 1 18 58
M  V30 65 1 26 59
M  V30 66 1 27 60
M  V30 67 1 28 61
M  V30 68 1 31 62
M  V30 69 1 33 63
M  V30 70 1 34 64
M  V30 71 1 35 65
M  V30 72 1 36 66
M  V30 73 1 38 67
M  V30 74 1 39 68
M  V30 75 1 40 69
M  V30 76 1 40 70
M  V30 77 1 41 71
M  V30 78 1 41 72
M  V30 79 1 42 73
M  V30 END BOND
M  V30 END CTAB
M  END
>  <Dataset>  (243) 
ChEMBL_Kinases

>  <Ligand_Instance>  (243) 
nan

>  <PDB_ID>  (243) 
nan

>  <Standardized_SMILES>  (243) 
COc1cccc(C(=O)NC2CCN(Cc3ccc(-c4nnc5n4-c4cccnc4Nc4ccccc4-5)cc3)CC2)c1

>  <Name>  (243) 
nan

>  <Pocket>  (243) 
nan

>  <ATP_Site>  (243) 
nan

>  <Peripheral>  (243) 
nan

>  <Num_H_Atoms_ProtBoundConf>  (243) 
nan

>  <Num_Resolved_Atoms>  (243) 
nan

>  <Num_Not_Resolved_Atoms>  (243) 
nan

$$$$
CHEMBL3684525
     RDKit          3D

  0  0  0  0  0  0  0  0  0  0999 V3000
M  V30 BEGIN CTAB
M  V30 COUNTS 52 57 0 0 0
M  V30 BEGIN ATOM
M  V30 1 C 4.932235 -3.718462 -4.352945 0
M  V30 2 C 4.239042 -3.780103 -3.019553 0
M  V30 3 C 4.417172 -4.857783 -2.167280 0
M  V30 4 C 3.777227 -4.908765 -0.944293 0
M  V30 5 C 2.950308 -3.833632 -0.610516 0
M  V30 6 C 2.801494 -2.764246 -1.504145 0
M  V30 7 C 3.426720 -2.704453 -2.711324 0
M  V30 8 C 1.995076 -1.584829 -1.210729 0
M  V30 9 N 2.180515 -0.392826 -1.757396 0
M  V30 10 N 1.301660 0.459873 -1.201341 0
M  V30 11 C 0.542298 -0.204413 -0.282656 0
M  V30 12 C -0.400502 0.644455 0.411034 0
M  V30 13 C -0.255392 0.807670 1.804000 0
M  V30 14 C -1.085031 1.619595 2.543076 0
M  V30 15 C -2.105946 2.313565 1.930465 0
M  V30 16 C -3.096135 3.223469 2.513164 0
M  V30 17 N -3.250383 4.502380 1.847836 0
M  V30 18 C -2.995235 3.452863 4.002656 0
M  V30 19 C -3.866623 2.239952 4.208243 0
M  V30 20 C -4.425457 2.512207 2.804900 0
M  V30 21 C -2.272265 2.171807 0.559665 0
M  V30 22 C -1.450427 1.362084 -0.199492 0
M  V30 23 N 0.997901 -1.457089 -0.322049 0
M  V30 24 C 0.420860 -2.431237 0.512458 0
M  V30 25 C -0.864237 -2.090618 0.832063 0
M  V30 26 C -1.550339 -2.923260 1.692631 0
M  V30 27 C -0.898295 -4.060696 2.183275 0
M  V30 28 N 0.385945 -4.390061 1.851127 0
M  V30 29 C 1.051035 -3.555720 0.998194 0
M  V30 30 N 2.361757 -4.081760 0.688962 0
M  V30 31 H 4.250846 -3.983573 -5.187410 0
M  V30 32 H 5.276139 -2.667437 -4.467491 0
M  V30 33 H 5.841556 -4.353388 -4.327242 0
M  V30 34 H 5.064503 -5.676124 -2.454140 0
M  V30 35 H 3.874130 -5.715289 -0.233634 0
M  V30 36 H 3.229063 -1.833397 -3.300828 0
M  V30 37 H 0.534673 0.278548 2.317440 0
M  V30 38 H -1.015321 1.775056 3.599620 0
M  V30 39 H -4.172385 4.923683 2.113450 0
M  V30 40 H -2.443251 5.115404 2.151956 0
M  V30 41 H -2.001014 3.341231 4.433497 0
M  V30 42 H -3.443334 4.404598 4.354764 0
M  V30 43 H -3.284485 1.316728 4.277291 0
M  V30 44 H -4.589781 2.447660 5.009965 0
M  V30 45 H -4.536581 1.570056 2.253401 0
M  V30 46 H -5.288854 3.174755 2.861323 0
M  V30 47 H -3.041481 2.664600 -0.051999 0
M  V30 48 H -1.548480 1.226172 -1.268783 0
M  V30 49 H -1.486408 -1.302102 0.502788 0
M  V30 50 H -2.579873 -2.795262 2.049495 0
M  V30 51 H -1.394195 -4.738140 2.859402 0
M  V30 52 H 2.853896 -4.640292 1.390793 0
M  V30 END ATOM
M  V30 BEGIN BOND
M  V30 1 1 1 2
M  V30 2 2 2 3
M  V30 3 1 3 4
M  V30 4 2 4 5
M  V30 5 1 5 6
M  V30 6 2 6 7
M  V30 7 1 6 8
M  V30 8 2 8 9
M  V30 9 1 9 10
M  V30 10 2 10 11
M  V30 11 1 11 12
M  V30 12 2 12 13
M  V30 13 1 13 14
M  V30 14 2 14 15
M  V30 15 1 15 16
M  V30 16 1 16 17
M  V30 17 1 16 18
M  V30 18 1 18 19
M  V30 19 1 19 20
M  V30 20 1 15 21
M  V30 21 2 21 22
M  V30 22 1 11 23
M  V30 23 1 23 24
M  V30 24 2 24 25
M  V30 25 1 25 26
M  V30 26 2 26 27
M  V30 27 1 27 28
M  V30 28 2 28 29
M  V30 29 1 29 30
M  V30 30 1 7 2
M  V30 31 1 23 8
M  V30 32 1 29 24
M  V30 33 1 30 5
M  V30 34 1 22 12
M  V30 35 1 20 16
M  V30 36 1 1 31
M  V30 37 1 1 32
M  V30 38 1 1 33
M  V30 39 1 3 34
M  V30 40 1 4 35
M  V30 41 1 7 36
M  V30 42 1 13 37
M  V30 43 1 14 38
M  V30 44 1 17 39
M  V30 45 1 17 40
M  V30 46 1 18 41
M  V30 47 1 18 42
M  V30 48 1 19 43
M  V30 49 1 19 44
M  V30 50 1 20 45
M  V30 51 1 20 46
M  V30 52 1 21 47
M  V30 53 1 22 48
M  V30 54 1 25 49
M  V30 55 1 26 50
M  V30 56 1 27 51
M  V30 57 1 30 52
M  V30 END BOND
M  V30 END CTAB
M  END
>  <Dataset>  (244) 
ChEMBL_Kinases

>  <Ligand_Instance>  (244) 
nan

>  <PDB_ID>  (244) 
nan

>  <Standardized_SMILES>  (244) 
Cc1ccc2c(c1)-c1nnc(-c3ccc(C4(N)CCC4)cc3)n1-c1cccnc1N2

>  <Name>  (244) 
nan

>  <Pocket>  (244) 
nan

>  <ATP_Site>  (244) 
nan

>  <Peripheral>  (244) 
nan

>  <Num_H_Atoms_ProtBoundConf>  (244) 
nan

>  <Num_Resolved_Atoms>  (244) 
nan

>  <Num_Not_Resolved_Atoms>  (244) 
nan

$$$$
CHEMBL3684526
     RDKit          3D

  0  0  0  0  0  0  0  0  0  0999 V3000
M  V30 BEGIN CTAB
M  V30 COUNTS 55 60 0 0 0
M  V30 BEGIN ATOM
M  V30 1 N -4.498957 1.359223 -0.272474 0
M  V30 2 C -4.235146 -0.070647 -0.542523 0
M  V30 3 C -2.778300 -0.321224 -0.318517 0
M  V30 4 C -2.171593 -1.083136 0.656570 0
M  V30 5 C -0.799653 -1.190870 0.693622 0
M  V30 6 C 0.024753 -0.540392 -0.243992 0
M  V30 7 C 1.459198 -0.724074 -0.167538 0
M  V30 8 N 1.982086 -1.338773 -1.270826 0
M  V30 9 N 3.300210 -1.517798 -1.101278 0
M  V30 10 C 3.629946 -1.022838 0.103587 0
M  V30 11 N 2.500669 -0.545384 0.647675 0
M  V30 12 C 2.312774 0.080132 1.897282 0
M  V30 13 C 1.215492 0.894410 1.853135 0
M  V30 14 C 0.867097 1.538727 3.022359 0
M  V30 15 C 1.657220 1.315307 4.157333 0
M  V30 16 N 2.746812 0.507562 4.187788 0
M  V30 17 C 3.066365 -0.115015 3.018103 0
M  V30 18 N 4.286325 -0.876798 3.184661 0
M  V30 19 C 5.202204 -1.041445 2.071954 0
M  V30 20 C 6.507858 -1.151331 2.544363 0
M  V30 21 C 7.507894 -1.297477 1.604395 0
M  V30 22 C 7.237598 -1.334709 0.247956 0
M  V30 23 C 5.954741 -1.228941 -0.248806 0
M  V30 24 C 4.964913 -1.084429 0.690623 0
M  V30 25 C -0.629942 0.228208 -1.224322 0
M  V30 26 C -2.005413 0.332463 -1.256455 0
M  V30 27 C -5.088634 -0.808339 0.464350 0
M  V30 28 C -5.244918 -2.264302 0.212924 0
M  V30 29 C -4.641345 -2.744287 -1.078414 0
M  V30 30 C -4.944509 -1.827842 -2.216331 0
M  V30 31 C -4.702685 -0.390964 -1.918577 0
M  V30 32 H -3.663120 1.912795 -0.608691 0
M  V30 33 H -4.488844 1.452471 0.764754 0
M  V30 34 H -2.865454 -1.548839 1.337337 0
M  V30 35 H -0.371005 -1.802682 1.481137 0
M  V30 36 H 0.572480 1.182200 1.064956 0
M  V30 37 H 0.036957 2.219478 3.194328 0
M  V30 38 H 1.437844 1.785101 5.097930 0
M  V30 39 H 4.518332 -1.291083 4.094755 0
M  V30 40 H 6.650730 -1.117116 3.614937 0
M  V30 41 H 8.528380 -1.384246 1.954108 0
M  V30 42 H 8.025162 -1.449471 -0.495011 0
M  V30 43 H 5.632483 -1.245851 -1.278862 0
M  V30 44 H 0.097499 0.683156 -1.891981 0
M  V30 45 H -2.279224 0.965687 -2.084900 0
M  V30 46 H -6.091007 -0.313410 0.438101 0
M  V30 47 H -4.658553 -0.588625 1.476276 0
M  V30 48 H -4.808865 -2.905552 1.013823 0
M  V30 49 H -6.345963 -2.511659 0.255697 0
M  V30 50 H -3.574510 -2.988140 -1.006024 0
M  V30 51 H -5.155511 -3.720007 -1.300762 0
M  V30 52 H -4.283444 -2.160610 -3.067541 0
M  V30 53 H -5.982098 -2.039576 -2.564722 0
M  V30 54 H -4.004046 0.045945 -2.691182 0
M  V30 55 H -5.666201 0.144079 -2.089841 0
M  V30 END ATOM
M  V30 BEGIN BOND
M  V30 1 1 1 2
M  V30 2 1 2 3
M  V30 3 2 3 4
M  V30 4 1 4 5
M  V30 5 2 5 6
M  V30 6 1 6 7
M  V30 7 2 7 8
M  V30 8 1 8 9
M  V30 9 2 9 10
M  V30 10 1 10 11
M  V30 11 1 11 12
M  V30 12 2 12 13
M  V30 13 1 13 14
M  V30 14 2 14 15
M  V30 15 1 15 16
M  V30 16 2 16 17
M  V30 17 1 17 18
M  V30 18 1 18 19
M  V30 19 2 19 20
M  V30 20 1 20 21
M  V30 21 2 21 22
M  V30 22 1 22 23
M  V30 23 2 23 24
M  V30 24 1 6 25
M  V30 25 2 25 26
M  V30 26 1 2 27
M  V30 27 1 27 28
M  V30 28 1 28 29
M  V30 29 1 29 30
M  V30 30 1 30 31
M  V30 31 1 31 2
M  V30 32 1 26 3
M  V30 33 1 11 7
M  V30 34 1 17 12
M  V30 35 1 24 19
M  V30 36 1 24 10
M  V30 37 1 1 32
M  V30 38 1 1 33
M  V30 39 1 4 34
M  V30 40 1 5 35
M  V30 41 1 13 36
M  V30 42 1 14 37
M  V30 43 1 15 38
M  V30 44 1 18 39
M  V30 45 1 20 40
M  V30 46 1 21 41
M  V30 47 1 22 42
M  V30 48 1 23 43
M  V30 49 1 25 44
M  V30 50 1 26 45
M  V30 51 1 27 46
M  V30 52 1 27 47
M  V30 53 1 28 48
M  V30 54 1 28 49
M  V30 55 1 29 50
M  V30 56 1 29 51
M  V30 57 1 30 52
M  V30 58 1 30 53
M  V30 59 1 31 54
M  V30 60 1 31 55
M  V30 END BOND
M  V30 END CTAB
M  END
>  <Dataset>  (245) 
ChEMBL_Kinases

>  <Ligand_Instance>  (245) 
nan

>  <PDB_ID>  (245) 
nan

>  <Standardized_SMILES>  (245) 
NC1(c2ccc(-c3nnc4n3-c3cccnc3Nc3ccccc3-4)cc2)CCCCC1

>  <Name>  (245) 
nan

>  <Pocket>  (245) 
nan

>  <ATP_Site>  (245) 
nan

>  <Peripheral>  (245) 
nan

>  <Num_H_Atoms_ProtBoundConf>  (245) 
nan

>  <Num_Resolved_Atoms>  (245) 
nan

>  <Num_Not_Resolved_Atoms>  (245) 
nan

$$$$
CHEMBL3684527
     RDKit          3D

  0  0  0  0  0  0  0  0  0  0999 V3000
M  V30 BEGIN CTAB
M  V30 COUNTS 52 57 0 0 0
M  V30 BEGIN ATOM
M  V30 1 C 3.134080 3.738247 4.526861 0
M  V30 2 C 3.428468 2.285468 4.431786 0
M  V30 3 C 4.428873 1.642924 5.128960 0
M  V30 4 C 4.644831 0.268503 4.993001 0
M  V30 5 C 3.872734 -0.513372 4.159536 0
M  V30 6 C 2.882715 0.146073 3.475655 0
M  V30 7 C 2.635337 1.522037 3.583714 0
M  V30 8 N 1.656666 2.365257 2.924287 0
M  V30 9 C 1.186675 2.036994 1.595233 0
M  V30 10 N 0.899760 3.166467 0.909317 0
M  V30 11 C 0.511172 3.005075 -0.384581 0
M  V30 12 C 0.395364 1.768618 -1.031629 0
M  V30 13 C 0.694499 0.633631 -0.306547 0
M  V30 14 C 1.080599 0.801941 0.994648 0
M  V30 15 N 1.292932 -0.447051 1.610522 0
M  V30 16 C 0.657508 -1.523985 1.148767 0
M  V30 17 C -0.322730 -1.938206 0.169622 0
M  V30 18 C -0.097930 -2.887767 -0.845649 0
M  V30 19 C -1.101260 -3.248785 -1.718188 0
M  V30 20 C -2.361385 -2.698855 -1.634909 0
M  V30 21 C -3.526356 -2.995676 -2.504150 0
M  V30 22 N -4.339922 -1.810842 -2.722073 0
M  V30 23 C -4.306839 -4.154932 -1.913415 0
M  V30 24 C -3.839501 -5.070097 -3.054145 0
M  V30 25 C -3.282183 -3.821617 -3.722425 0
M  V30 26 C -2.605756 -1.757786 -0.638002 0
M  V30 27 C -1.616417 -1.382115 0.245268 0
M  V30 28 N 1.080420 -2.546636 1.943676 0
M  V30 29 N 1.946833 -2.069809 2.856559 0
M  V30 30 C 2.080503 -0.752528 2.651538 0
M  V30 31 H 3.079912 4.212216 3.521087 0
M  V30 32 H 2.217978 3.921012 5.138450 0
M  V30 33 H 3.942693 4.275909 5.071621 0
M  V30 34 H 5.047147 2.228456 5.787956 0
M  V30 35 H 5.431873 -0.235367 5.541197 0
M  V30 36 H 3.955900 -1.569363 3.986052 0
M  V30 37 H 1.314944 3.200495 3.397738 0
M  V30 38 H 0.292992 3.930794 -0.886329 0
M  V30 39 H 0.075838 1.844349 -2.054595 0
M  V30 40 H 0.615895 -0.227808 -0.915003 0
M  V30 41 H 0.886671 -3.312678 -0.905116 0
M  V30 42 H -0.939845 -3.976675 -2.498944 0
M  V30 43 H -5.126548 -1.732958 -2.040343 0
M  V30 44 H -3.782641 -0.962347 -2.865126 0
M  V30 45 H -3.958749 -4.494182 -0.906499 0
M  V30 46 H -5.394845 -4.078619 -1.925882 0
M  V30 47 H -3.088050 -5.783102 -2.670056 0
M  V30 48 H -4.667738 -5.572013 -3.582847 0
M  V30 49 H -2.241447 -3.854292 -4.039398 0
M  V30 50 H -4.007331 -3.541874 -4.546717 0
M  V30 51 H -3.572375 -1.283174 -0.512070 0
M  V30 52 H -1.827624 -0.646501 1.015276 0
M  V30 END ATOM
M  V30 BEGIN BOND
M  V30 1 1 1 2
M  V30 2 2 2 3
M  V30 3 1 3 4
M  V30 4 2 4 5
M  V30 5 1 5 6
M  V30 6 2 6 7
M  V30 7 1 7 8
M  V30 8 1 8 9
M  V30 9 2 9 10
M  V30 10 1 10 11
M  V30 11 2 11 12
M  V30 12 1 12 13
M  V30 13 2 13 14
M  V30 14 1 14 15
M  V30 15 1 15 16
M  V30 16 1 16 17
M  V30 17 2 17 18
M  V30 18 1 18 19
M  V30 19 2 19 20
M  V30 20 1 20 21
M  V30 21 1 21 22
M  V30 22 1 21 23
M  V30 23 1 23 24
M  V30 24 1 24 25
M  V30 25 1 20 26
M  V30 26 2 26 27
M  V30 27 2 16 28
M  V30 28 1 28 29
M  V30 29 2 29 30
M  V30 30 1 7 2
M  V30 31 1 14 9
M  V30 32 1 30 15
M  V30 33 1 30 6
M  V30 34 1 27 17
M  V30 35 1 25 21
M  V30 36 1 1 31
M  V30 37 1 1 32
M  V30 38 1 1 33
M  V30 39 1 3 34
M  V30 40 1 4 35
M  V30 41 1 5 36
M  V30 42 1 8 37
M  V30 43 1 11 38
M  V30 44 1 12 39
M  V30 45 1 13 40
M  V30 46 1 18 41
M  V30 47 1 19 42
M  V30 48 1 22 43
M  V30 49 1 22 44
M  V30 50 1 23 45
M  V30 51 1 23 46
M  V30 52 1 24 47
M  V30 53 1 24 48
M  V30 54 1 25 49
M  V30 55 1 25 50
M  V30 56 1 26 51
M  V30 57 1 27 52
M  V30 END BOND
M  V30 END CTAB
M  END
>  <Dataset>  (246) 
ChEMBL_Kinases

>  <Ligand_Instance>  (246) 
nan

>  <PDB_ID>  (246) 
nan

>  <Standardized_SMILES>  (246) 
Cc1cccc2c1Nc1ncccc1-n1c(-c3ccc(C4(N)CCC4)cc3)nnc1-2

>  <Name>  (246) 
nan

>  <Pocket>  (246) 
nan

>  <ATP_Site>  (246) 
nan

>  <Peripheral>  (246) 
nan

>  <Num_H_Atoms_ProtBoundConf>  (246) 
nan

>  <Num_Resolved_Atoms>  (246) 
nan

>  <Num_Not_Resolved_Atoms>  (246) 
nan

$$$$
CHEMBL3684528
     RDKit          3D

  0  0  0  0  0  0  0  0  0  0999 V3000
M  V30 BEGIN CTAB
M  V30 COUNTS 49 54 0 0 0
M  V30 BEGIN ATOM
M  V30 1 N -0.228282 -5.604498 2.416010 0
M  V30 2 C -0.695532 -5.343588 1.056662 0
M  V30 3 C -0.616586 -3.935573 0.656589 0
M  V30 4 C -0.823489 -3.030911 1.677913 0
M  V30 5 C -0.765062 -1.684821 1.375787 0
M  V30 6 C -0.507765 -1.167215 0.091709 0
M  V30 7 C -0.500961 0.262218 -0.124144 0
M  V30 8 N -1.478563 0.674979 -0.984000 0
M  V30 9 N -1.437348 2.014669 -1.090259 0
M  V30 10 C -0.441996 2.461374 -0.305640 0
M  V30 11 N 0.111024 1.381323 0.265168 0
M  V30 12 C 1.192159 1.313720 1.165975 0
M  V30 13 C 1.798256 0.090119 1.078495 0
M  V30 14 C 2.847196 -0.152260 1.941922 0
M  V30 15 C 3.211853 0.862801 2.833289 0
M  V30 16 N 2.605111 2.079513 2.910455 0
M  V30 17 C 1.574403 2.284669 2.044081 0
M  V30 18 N 1.079425 3.636438 2.185589 0
M  V30 19 C 0.539100 4.346585 1.042821 0
M  V30 20 C 0.768933 5.713063 1.178847 0
M  V30 21 C 0.326877 6.529882 0.159208 0
M  V30 22 C -0.320565 6.024362 -0.959602 0
M  V30 23 Br -0.924124 7.170534 -2.360337 0
M  V30 24 C -0.560258 4.675413 -1.116830 0
M  V30 25 C -0.118447 3.869167 -0.098759 0
M  V30 26 C -0.305499 -2.137592 -0.906416 0
M  V30 27 C -0.360403 -3.486009 -0.621818 0
M  V30 28 C -2.117782 -5.889046 0.917624 0
M  V30 29 C -1.729349 -6.603011 -0.366484 0
M  V30 30 C -0.274093 -6.382114 0.066808 0
M  V30 31 H -1.010553 -5.341551 3.056231 0
M  V30 32 H -0.090233 -6.636792 2.503339 0
M  V30 33 H -1.030456 -3.314322 2.709743 0
M  V30 34 H -0.927860 -0.950806 2.179168 0
M  V30 35 H 1.654341 -0.732526 0.429321 0
M  V30 36 H 3.450477 -1.063517 2.023419 0
M  V30 37 H 4.019930 0.733086 3.532296 0
M  V30 38 H 1.122444 4.114189 3.104014 0
M  V30 39 H 1.276025 6.043020 2.074504 0
M  V30 40 H 0.496417 7.594257 0.247067 0
M  V30 41 H -1.051076 4.176677 -1.938580 0
M  V30 42 H -0.106830 -1.762685 -1.898019 0
M  V30 43 H -0.202423 -4.209948 -1.405034 0
M  V30 44 H -2.865260 -5.082160 0.721692 0
M  V30 45 H -2.432931 -6.601164 1.686977 0
M  V30 46 H -2.035561 -7.653529 -0.452347 0
M  V30 47 H -2.019686 -6.034753 -1.276306 0
M  V30 48 H 0.385802 -6.036717 -0.741860 0
M  V30 49 H 0.112101 -7.322395 0.559309 0
M  V30 END ATOM
M  V30 BEGIN BOND
M  V30 1 1 1 2
M  V30 2 1 2 3
M  V30 3 2 3 4
M  V30 4 1 4 5
M  V30 5 2 5 6
M  V30 6 1 6 7
M  V30 7 2 7 8
M  V30 8 1 8 9
M  V30 9 2 9 10
M  V30 10 1 10 11
M  V30 11 1 11 12
M  V30 12 2 12 13
M  V30 13 1 13 14
M  V30 14 2 14 15
M  V30 15 1 15 16
M  V30 16 2 16 17
M  V30 17 1 17 18
M  V30 18 1 18 19
M  V30 19 2 19 20
M  V30 20 1 20 21
M  V30 21 2 21 22
M  V30 22 1 22 23
M  V30 23 1 22 24
M  V30 24 2 24 25
M  V30 25 1 6 26
M  V30 26 2 26 27
M  V30 27 1 2 28
M  V30 28 1 28 29
M  V30 29 1 29 30
M  V30 30 1 30 2
M  V30 31 1 27 3
M  V30 32 1 11 7
M  V30 33 1 17 12
M  V30 34 1 25 19
M  V30 35 1 25 10
M  V30 36 1 1 31
M  V30 37 1 1 32
M  V30 38 1 4 33
M  V30 39 1 5 34
M  V30 40 1 13 35
M  V30 41 1 14 36
M  V30 42 1 15 37
M  V30 43 1 18 38
M  V30 44 1 20 39
M  V30 45 1 21 40
M  V30 46 1 24 41
M  V30 47 1 26 42
M  V30 48 1 27 43
M  V30 49 1 28 44
M  V30 50 1 28 45
M  V30 51 1 29 46
M  V30 52 1 29 47
M  V30 53 1 30 48
M  V30 54 1 30 49
M  V30 END BOND
M  V30 END CTAB
M  END
>  <Dataset>  (247) 
ChEMBL_Kinases

>  <Ligand_Instance>  (247) 
nan

>  <PDB_ID>  (247) 
nan

>  <Standardized_SMILES>  (247) 
NC1(c2ccc(-c3nnc4n3-c3cccnc3Nc3ccc(Br)cc3-4)cc2)CCC1

>  <Name>  (247) 
nan

>  <Pocket>  (247) 
nan

>  <ATP_Site>  (247) 
nan

>  <Peripheral>  (247) 
nan

>  <Num_H_Atoms_ProtBoundConf>  (247) 
nan

>  <Num_Resolved_Atoms>  (247) 
nan

>  <Num_Not_Resolved_Atoms>  (247) 
nan

$$$$
CHEMBL3684514
     RDKit          3D

  0  0  0  0  0  0  0  0  0  0999 V3000
M  V30 BEGIN CTAB
M  V30 COUNTS 62 68 0 0 0
M  V30 BEGIN ATOM
M  V30 1 C 3.979480 0.604064 8.367499 0
M  V30 2 N 3.259818 0.631934 7.083904 0
M  V30 3 C 3.086767 -0.490409 6.388720 0
M  V30 4 C 2.389707 -0.073342 5.278953 0
M  V30 5 C 2.149410 1.286580 5.312104 0
M  V30 6 S 1.389197 2.581231 4.444565 0
M  V30 7 O 2.303873 3.796817 4.363970 0
M  V30 8 O 0.232479 3.061193 5.318038 0
M  V30 9 N 0.738070 2.170687 2.945819 0
M  V30 10 C 1.585932 1.713478 1.919047 0
M  V30 11 C 0.780991 1.055741 0.837799 0
M  V30 12 C -0.436600 1.629636 0.555000 0
M  V30 13 C -1.284298 1.126786 -0.410141 0
M  V30 14 C -0.928882 -0.012309 -1.154768 0
M  V30 15 C -1.697652 -0.625049 -2.212893 0
M  V30 16 N -1.893196 0.198005 -3.285482 0
M  V30 17 N -2.569944 -0.465569 -4.239393 0
M  V30 18 C -2.805507 -1.688874 -3.792471 0
M  V30 19 N -2.273743 -1.765534 -2.564510 0
M  V30 20 C -2.265360 -2.855819 -1.670276 0
M  V30 21 C -2.155381 -2.413864 -0.380333 0
M  V30 22 C -2.078623 -3.371655 0.609950 0
M  V30 23 C -2.119700 -4.716542 0.242276 0
M  V30 24 N -2.233720 -5.155910 -1.046747 0
M  V30 25 C -2.308481 -4.190090 -2.012124 0
M  V30 26 N -2.502418 -4.793401 -3.311619 0
M  V30 27 C -3.272155 -4.103143 -4.327531 0
M  V30 28 C -3.903201 -5.052254 -5.143112 0
M  V30 29 C -4.697681 -4.573989 -6.161457 0
M  V30 30 C -4.859421 -3.213519 -6.362476 0
M  V30 31 C -4.252369 -2.258083 -5.578776 0
M  V30 32 C -3.462452 -2.735010 -4.567244 0
M  V30 33 C 0.317644 -0.597005 -0.862872 0
M  V30 34 C 1.126410 -0.057071 0.109334 0
M  V30 35 C 2.392124 2.845611 1.229789 0
M  V30 36 C 3.506676 1.833912 1.037855 0
M  V30 37 C 2.873492 1.046411 2.183732 0
M  V30 38 N 2.728354 1.681393 6.488059 0
M  V30 39 H 3.668094 1.498686 8.937157 0
M  V30 40 H 3.620184 -0.284076 8.944927 0
M  V30 41 H 5.064151 0.520155 8.228295 0
M  V30 42 H 3.354265 -1.528949 6.513793 0
M  V30 43 H 1.981137 -0.550071 4.390109 0
M  V30 44 H 0.212585 3.015077 2.565688 0
M  V30 45 H -0.911252 2.495751 0.990202 0
M  V30 46 H -2.255304 1.486278 -0.719298 0
M  V30 47 H -2.161369 -1.442370 0.035901 0
M  V30 48 H -1.985779 -3.204687 1.691802 0
M  V30 49 H -2.061121 -5.501161 0.976963 0
M  V30 50 H -2.102000 -5.724384 -3.502281 0
M  V30 51 H -3.729604 -6.097391 -4.929501 0
M  V30 52 H -5.198163 -5.281420 -6.807992 0
M  V30 53 H -5.492566 -2.821244 -7.173171 0
M  V30 54 H -4.311279 -1.191618 -5.649971 0
M  V30 55 H 0.648283 -1.475377 -1.401364 0
M  V30 56 H 2.052446 -0.529652 0.299467 0
M  V30 57 H 1.906755 3.219695 0.311214 0
M  V30 58 H 2.645483 3.685970 1.896551 0
M  V30 59 H 4.524738 2.220220 1.243809 0
M  V30 60 H 3.531457 1.300279 0.077642 0
M  V30 61 H 2.936554 -0.038137 2.027147 0
M  V30 62 H 3.421482 1.351147 3.104429 0
M  V30 END ATOM
M  V30 BEGIN BOND
M  V30 1 1 1 2
M  V30 2 1 2 3
M  V30 3 2 3 4
M  V30 4 1 4 5
M  V30 5 1 5 6
M  V30 6 2 6 7
M  V30 7 2 6 8
M  V30 8 1 6 9
M  V30 9 1 9 10
M  V30 10 1 10 11
M  V30 11 2 11 12
M  V30 12 1 12 13
M  V30 13 2 13 14
M  V30 14 1 14 15
M  V30 15 2 15 16
M  V30 16 1 16 17
M  V30 17 2 17 18
M  V30 18 1 18 19
M  V30 19 1 19 20
M  V30 20 2 20 21
M  V30 21 1 21 22
M  V30 22 2 22 23
M  V30 23 1 23 24
M  V30 24 2 24 25
M  V30 25 1 25 26
M  V30 26 1 26 27
M  V30 27 2 27 28
M  V30 28 1 28 29
M  V30 29 2 29 30
M  V30 30 1 30 31
M  V30 31 2 31 32
M  V30 32 1 14 33
M  V30 33 2 33 34
M  V30 34 1 10 35
M  V30 35 1 35 36
M  V30 36 1 36 37
M  V30 37 2 5 38
M  V30 38 1 38 2
M  V30 39 1 37 10
M  V30 40 1 34 11
M  V30 41 1 19 15
M  V30 42 1 25 20
M  V30 43 1 32 27
M  V30 44 1 32 18
M  V30 45 1 1 39
M  V30 46 1 1 40
M  V30 47 1 1 41
M  V30 48 1 3 42
M  V30 49 1 4 43
M  V30 50 1 9 44
M  V30 51 1 12 45
M  V30 52 1 13 46
M  V30 53 1 21 47
M  V30 54 1 22 48
M  V30 55 1 23 49
M  V30 56 1 26 50
M  V30 57 1 28 51
M  V30 58 1 29 52
M  V30 59 1 30 53
M  V30 60 1 31 54
M  V30 61 1 33 55
M  V30 62 1 34 56
M  V30 63 1 35 57
M  V30 64 1 35 58
M  V30 65 1 36 59
M  V30 66 1 36 60
M  V30 67 1 37 61
M  V30 68 1 37 62
M  V30 END BOND
M  V30 END CTAB
M  END
>  <Dataset>  (248) 
ChEMBL_Kinases

>  <Ligand_Instance>  (248) 
nan

>  <PDB_ID>  (248) 
nan

>  <Standardized_SMILES>  (248) 
Cn1ccc(S(=O)(=O)NC2(c3ccc(-c4nnc5n4-c4cccnc4Nc4ccccc4-5)cc3)CCC2)n1

>  <Name>  (248) 
nan

>  <Pocket>  (248) 
nan

>  <ATP_Site>  (248) 
nan

>  <Peripheral>  (248) 
nan

>  <Num_H_Atoms_ProtBoundConf>  (248) 
nan

>  <Num_Resolved_Atoms>  (248) 
nan

>  <Num_Not_Resolved_Atoms>  (248) 
nan

$$$$
CHEMBL3685743
     RDKit          3D

  0  0  0  0  0  0  0  0  0  0999 V3000
M  V30 BEGIN CTAB
M  V30 COUNTS 54 58 0 0 0
M  V30 BEGIN ATOM
M  V30 1 N 1.987498 -3.704721 2.346216 0
M  V30 2 C 1.069603 -3.163287 1.379073 0 CFG=1
M  V30 3 C 1.108483 -1.650587 1.361978 0
M  V30 4 N 1.409348 -1.149921 0.034233 0
M  V30 5 C 2.388308 -0.141801 -0.007803 0
M  V30 6 C 3.636356 -0.695964 -0.184715 0
M  V30 7 C 4.736218 0.125037 -0.180770 0
M  V30 8 N 4.687622 1.479136 -0.011565 0
M  V30 9 C 3.429791 1.988097 0.159048 0
M  V30 10 C 2.265869 1.195299 0.163450 0
M  V30 11 N 1.111122 1.949574 0.337555 0
M  V30 12 C -0.077538 2.359114 0.950864 0
M  V30 13 C -0.015098 3.641007 1.533184 0
M  V30 14 C -1.065522 4.283163 2.186195 0
M  V30 15 C -2.190481 3.496035 2.190770 0
M  V30 16 C -2.369783 2.255645 1.665334 0
M  V30 17 C -3.583057 1.604790 1.741328 0
M  V30 18 N -3.606328 0.380860 1.149579 0
M  V30 19 C -2.529992 -0.147689 0.540873 0
M  V30 20 C -2.916206 -1.472947 0.015361 0
M  V30 21 C -2.737593 -2.450049 0.974099 0
M  V30 22 F -2.281356 -2.269701 2.236429 0
M  V30 23 C -3.047591 -3.767112 0.655976 0
M  V30 24 C -3.525385 -4.098354 -0.593260 0
M  V30 25 C -3.693140 -3.096176 -1.531507 0
M  V30 26 C -3.394038 -1.778719 -1.245252 0
M  V30 27 F -3.511582 -0.721185 -2.064554 0
M  V30 28 N -1.371559 0.498546 0.481005 0
M  V30 29 C -1.277753 1.705990 1.042197 0
M  V30 30 C 0.760196 -1.669138 -1.129178 0
M  V30 31 C 0.655041 -3.174870 -1.112262 0
M  V30 32 C 1.430063 -3.774390 0.044377 0 CFG=2
M  V30 33 F 1.111837 -5.116283 0.089463 0
M  V30 34 H 2.870759 -4.070710 1.972137 0
M  V30 35 H 2.069806 -3.121272 3.208821 0
M  V30 36 H 0.055839 -3.485985 1.685236 0
M  V30 37 H 1.879087 -1.350051 2.124188 0
M  V30 38 H 0.169922 -1.268366 1.724242 0
M  V30 39 H 3.890977 -1.733735 -0.333218 0
M  V30 40 H 5.750629 -0.218026 -0.310157 0
M  V30 41 H 3.397161 3.080672 0.294698 0
M  V30 42 H 1.068966 2.596498 -0.523674 0
M  V30 43 H 0.917308 4.214249 1.492559 0
M  V30 44 H -0.946307 5.252366 2.602555 0
M  V30 45 H -3.062856 3.919425 2.684361 0
M  V30 46 H -4.393536 2.086637 2.240796 0
M  V30 47 H -2.925829 -4.575731 1.371307 0
M  V30 48 H -3.765653 -5.109638 -0.844779 0
M  V30 49 H -4.064623 -3.277240 -2.538219 0
M  V30 50 H -0.231598 -1.242290 -1.334571 0
M  V30 51 H 1.395944 -1.343104 -2.005173 0
M  V30 52 H 1.128099 -3.559424 -2.038389 0
M  V30 53 H -0.406921 -3.542923 -1.109746 0
M  V30 54 H 2.500430 -3.694203 -0.171992 0
M  V30 END ATOM
M  V30 BEGIN BOND
M  V30 1 1 1 2
M  V30 2 1 2 3
M  V30 3 1 3 4
M  V30 4 1 4 5
M  V30 5 2 5 6
M  V30 6 1 6 7
M  V30 7 2 7 8
M  V30 8 1 8 9
M  V30 9 2 9 10
M  V30 10 1 10 11
M  V30 11 1 11 12
M  V30 12 2 12 13
M  V30 13 1 13 14
M  V30 14 2 14 15
M  V30 15 1 15 16
M  V30 16 2 16 17
M  V30 17 1 17 18
M  V30 18 2 18 19
M  V30 19 1 19 20
M  V30 20 2 20 21
M  V30 21 1 21 22
M  V30 22 1 21 23
M  V30 23 2 23 24
M  V30 24 1 24 25
M  V30 25 2 25 26
M  V30 26 1 26 27
M  V30 27 1 19 28
M  V30 28 2 28 29
M  V30 29 1 4 30
M  V30 30 1 30 31
M  V30 31 1 31 32
M  V30 32 1 32 33
M  V30 33 1 32 2
M  V30 34 1 10 5
M  V30 35 1 29 12
M  V30 36 1 29 16
M  V30 37 1 26 20
M  V30 38 1 1 34
M  V30 39 1 1 35
M  V30 40 1 2 36 CFG=1
M  V30 41 1 3 37
M  V30 42 1 3 38
M  V30 43 1 6 39
M  V30 44 1 7 40
M  V30 45 1 9 41
M  V30 46 1 11 42
M  V30 47 1 13 43
M  V30 48 1 14 44
M  V30 49 1 15 45
M  V30 50 1 17 46
M  V30 51 1 23 47
M  V30 52 1 24 48
M  V30 53 1 25 49
M  V30 54 1 30 50
M  V30 55 1 30 51
M  V30 56 1 31 52
M  V30 57 1 31 53
M  V30 58 1 32 54 CFG=3
M  V30 END BOND
M  V30 END CTAB
M  END
>  <Dataset>  (249) 
ChEMBL_Kinases

>  <Ligand_Instance>  (249) 
nan

>  <PDB_ID>  (249) 
nan

>  <Standardized_SMILES>  (249) 
N[C@H]1CN(c2ccncc2Nc2cccc3cnc(-c4c(F)cccc4F)nc23)CC[C@@H]1F

>  <Name>  (249) 
nan

>  <Pocket>  (249) 
nan

>  <ATP_Site>  (249) 
nan

>  <Peripheral>  (249) 
nan

>  <Num_H_Atoms_ProtBoundConf>  (249) 
nan

>  <Num_Resolved_Atoms>  (249) 
nan

>  <Num_Not_Resolved_Atoms>  (249) 
nan

$$$$
CHEMBL3685332
     RDKit          3D

  0  0  0  0  0  0  0  0  0  0999 V3000
M  V30 BEGIN CTAB
M  V30 COUNTS 72 77 0 0 0
M  V30 BEGIN ATOM
M  V30 1 N 4.882208 -4.448153 5.986847 0
M  V30 2 C 3.557185 -4.299051 5.472168 0
M  V30 3 O 2.616390 -5.127750 5.656701 0
M  V30 4 C 3.246707 -3.101575 4.667515 0
M  V30 5 C 4.219597 -2.152236 4.422479 0
M  V30 6 C 3.931065 -1.022144 3.663624 0
M  V30 7 C 2.659343 -0.884194 3.172019 0
M  V30 8 C 1.652870 -1.790397 3.380888 0
M  V30 9 C 0.405032 -1.583257 2.856689 0
M  V30 10 N 0.054577 -0.440714 2.066728 0
M  V30 11 C -1.301809 -0.358325 1.584360 0
M  V30 12 C -2.348404 -0.301078 2.649801 0
M  V30 13 C -2.104042 0.915077 3.495359 0
M  V30 14 N -2.137600 2.161429 2.802155 0
M  V30 15 C -1.881446 3.244195 3.740306 0
M  V30 16 C -2.103122 4.595547 3.129534 0
M  V30 17 O -2.200254 4.524073 1.734703 0
M  V30 18 C -3.357559 3.797644 1.450205 0
M  V30 19 C -3.360436 2.439291 2.120472 0
M  V30 20 C -1.595106 -1.388642 0.536159 0
M  V30 21 C -2.727499 -2.183127 0.511400 0
M  V30 22 C -2.955580 -3.108593 -0.472829 0
M  V30 23 C -2.030761 -3.251443 -1.465420 0
M  V30 24 C -0.889055 -2.459444 -1.452036 0
M  V30 25 N -0.004796 -2.717224 -2.566233 0
M  V30 26 C -0.420845 -1.831946 -3.580740 0
M  V30 27 O -1.397495 -1.098049 -3.253372 0
M  V30 28 C 0.146657 -1.681383 -4.932930 0
M  V30 29 C -0.366532 -0.761040 -5.820617 0
M  V30 30 C 0.413335 -0.906460 -6.975355 0
M  V30 31 C 0.239203 -0.117898 -8.223043 0
M  V30 32 C 1.509548 0.402838 -8.793028 0
M  V30 33 C 0.591234 -0.611853 -9.549489 0
M  V30 34 N 1.315139 -1.871268 -6.719406 0
M  V30 35 N 1.168221 -2.348443 -5.493734 0
M  V30 36 C -0.654048 -1.528865 -0.467153 0
M  V30 37 N -0.472579 -2.542194 3.139014 0
M  V30 38 C -0.181189 -3.627269 3.872570 0
M  V30 39 N 1.065772 -3.825384 4.391026 0
M  V30 40 C 2.013963 -2.882226 4.140556 0
M  V30 41 H 5.141401 -5.034056 5.143158 0
M  V30 42 H 5.477094 -4.179555 6.785085 0
M  V30 43 H 5.224942 -2.289607 4.828180 0
M  V30 44 H 4.738851 -0.331953 3.517737 0
M  V30 45 H 2.506969 0.013464 2.594129 0
M  V30 46 H 0.718622 0.322586 1.824763 0
M  V30 47 H -1.406086 0.618680 1.023473 0
M  V30 48 H -2.401032 -1.189238 3.309304 0
M  V30 49 H -3.329348 -0.209962 2.143284 0
M  V30 50 H -1.191687 0.778775 4.108589 0
M  V30 51 H -2.929944 0.978767 4.266547 0
M  V30 52 H -2.614578 3.147045 4.593867 0
M  V30 53 H -0.861658 3.173125 4.161777 0
M  V30 54 H -3.068550 5.069436 3.471496 0
M  V30 55 H -1.292830 5.321490 3.364517 0
M  V30 56 H -4.216940 4.426924 1.759837 0
M  V30 57 H -3.452195 3.692693 0.329588 0
M  V30 58 H -4.173805 2.474630 2.902427 0
M  V30 59 H -3.662330 1.640391 1.414194 0
M  V30 60 H -3.439101 -2.059176 1.292158 0
M  V30 61 H -3.842007 -3.711701 -0.467887 0
M  V30 62 H -2.238856 -3.989361 -2.228267 0
M  V30 63 H 0.816624 -3.341629 -2.826849 0
M  V30 64 H -1.196062 -0.045485 -5.713006 0
M  V30 65 H -0.590096 0.639695 -8.165824 0
M  V30 66 H 1.506289 1.430357 -9.243308 0
M  V30 67 H 2.498388 0.023033 -8.535369 0
M  V30 68 H 1.041277 -1.595955 -9.741070 0
M  V30 69 H 0.035774 -0.192669 -10.421336 0
M  V30 70 H 1.659203 -3.080684 -4.940649 0
M  V30 71 H 0.270209 -0.956330 -0.543696 0
M  V30 72 H -1.044156 -4.290333 3.985892 0
M  V30 END ATOM
M  V30 BEGIN BOND
M  V30 1 1 1 2
M  V30 2 2 2 3
M  V30 3 1 2 4
M  V30 4 2 4 5
M  V30 5 1 5 6
M  V30 6 2 6 7
M  V30 7 1 7 8
M  V30 8 2 8 9
M  V30 9 1 9 10
M  V30 10 1 10 11
M  V30 11 1 11 12
M  V30 12 1 12 13
M  V30 13 1 13 14
M  V30 14 1 14 15
M  V30 15 1 15 16
M  V30 16 1 16 17
M  V30 17 1 17 18
M  V30 18 1 18 19
M  V30 19 1 11 20
M  V30 20 2 20 21
M  V30 21 1 21 22
M  V30 22 2 22 23
M  V30 23 1 23 24
M  V30 24 1 24 25
M  V30 25 1 25 26
M  V30 26 2 26 27
M  V30 27 1 26 28
M  V30 28 2 28 29
M  V30 29 1 29 30
M  V30 30 1 30 31
M  V30 31 1 31 32
M  V30 32 1 32 33
M  V30 33 2 30 34
M  V30 34 1 34 35
M  V30 35 2 24 36
M  V30 36 1 9 37
M  V30 37 2 37 38
M  V30 38 1 38 39
M  V30 39 2 39 40
M  V30 40 1 40 4
M  V30 41 1 40 8
M  V30 42 1 19 14
M  V30 43 1 36 20
M  V30 44 1 35 28
M  V30 45 1 33 31
M  V30 46 1 1 41
M  V30 47 1 1 42
M  V30 48 1 5 43
M  V30 49 1 6 44
M  V30 50 1 7 45
M  V30 51 1 10 46
M  V30 52 1 11 47
M  V30 53 1 12 48
M  V30 54 1 12 49
M  V30 55 1 13 50
M  V30 56 1 13 51
M  V30 57 1 15 52
M  V30 58 1 15 53
M  V30 59 1 16 54
M  V30 60 1 16 55
M  V30 61 1 18 56
M  V30 62 1 18 57
M  V30 63 1 19 58
M  V30 64 1 19 59
M  V30 65 1 21 60
M  V30 66 1 22 61
M  V30 67 1 23 62
M  V30 68 1 25 63
M  V30 69 1 29 64
M  V30 70 1 31 65
M  V30 71 1 32 66
M  V30 72 1 32 67
M  V30 73 1 33 68
M  V30 74 1 33 69
M  V30 75 1 35 70
M  V30 76 1 36 71
M  V30 77 1 38 72
M  V30 END BOND
M  V30 END CTAB
M  END
>  <Dataset>  (250) 
ChEMBL_Kinases

>  <Ligand_Instance>  (250) 
nan

>  <PDB_ID>  (250) 
nan

>  <Standardized_SMILES>  (250) 
NC(=O)c1cccc2c(NC(CCN3CCOCC3)c3cccc(NC(=O)c4cc(C5CC5)n[nH]4)c3)ncnc12

>  <Name>  (250) 
nan

>  <Pocket>  (250) 
nan

>  <ATP_Site>  (250) 
nan

>  <Peripheral>  (250) 
nan

>  <Num_H_Atoms_ProtBoundConf>  (250) 
nan

>  <Num_Resolved_Atoms>  (250) 
nan

>  <Num_Not_Resolved_Atoms>  (250) 
nan

$$$$
CHEMBL3685331
     RDKit          3D

  0  0  0  0  0  0  0  0  0  0999 V3000
M  V30 BEGIN CTAB
M  V30 COUNTS 56 59 0 0 0
M  V30 BEGIN ATOM
M  V30 1 C 5.067079 -4.528932 2.808784 0
M  V30 2 O 4.569473 -3.398725 3.460096 0
M  V30 3 C 3.979968 -2.326291 2.814756 0
M  V30 4 C 3.554952 -1.311027 3.638932 0
M  V30 5 C 2.955056 -0.212707 3.016517 0
M  V30 6 C 2.832709 -0.222599 1.641811 0
M  V30 7 C 2.212629 0.922948 1.033494 0
M  V30 8 O 0.942599 0.935269 1.185303 0
M  V30 9 N 2.268395 2.131459 0.303170 0
M  V30 10 C 3.218946 3.018669 -0.333257 0
M  V30 11 C 0.888517 2.475842 0.255950 0
M  V30 12 C 0.195754 3.235468 1.164228 0
M  V30 13 C -1.138019 3.490972 0.993134 0
M  V30 14 C -1.885948 3.022506 -0.076279 0
M  V30 15 C -1.211189 2.257830 -1.000218 0
M  V30 16 C -1.841285 1.648755 -2.236539 0
M  V30 17 N -2.347412 0.371353 -2.016052 0
M  V30 18 C -2.906731 -0.969426 -2.034248 0
M  V30 19 N -3.304302 -1.742008 -3.063341 0
M  V30 20 C -3.775747 -2.980361 -2.915581 0
M  V30 21 N -3.839195 -3.436252 -1.671700 0
M  V30 22 C -3.471090 -2.750297 -0.592843 0
M  V30 23 C -3.585770 -3.313353 0.652143 0
M  V30 24 C -4.082618 -4.650957 0.894719 0
M  V30 25 N -4.413907 -5.395230 -0.286337 0
M  V30 26 O -4.473734 -5.731133 1.333168 0
M  V30 27 C -3.231135 -2.656450 1.809825 0
M  V30 28 C -2.736248 -1.363762 1.692058 0
M  V30 29 C -2.650602 -0.867805 0.414432 0
M  V30 30 C -2.988325 -1.479361 -0.754204 0
M  V30 31 C 0.155088 2.001105 -0.817236 0
M  V30 32 C 3.271236 -1.258223 0.855235 0
M  V30 33 C 3.870189 -2.361230 1.443090 0
M  V30 34 H 6.083788 -4.343705 2.366624 0
M  V30 35 H 5.107608 -5.361255 3.572219 0
M  V30 36 H 4.362537 -4.824646 2.017152 0
M  V30 37 H 3.672313 -1.347319 4.714480 0
M  V30 38 H 2.597943 0.625156 3.624870 0
M  V30 39 H 4.244204 2.878517 0.084053 0
M  V30 40 H 3.322069 2.866595 -1.421008 0
M  V30 41 H 2.974011 4.092978 -0.103226 0
M  V30 42 H 0.769844 3.608979 2.005164 0
M  V30 43 H -1.636637 4.096157 1.741639 0
M  V30 44 H -2.930996 3.207131 -0.233069 0
M  V30 45 H -2.657816 2.399366 -2.472367 0
M  V30 46 H -1.052860 1.808679 -3.007399 0
M  V30 47 H -2.462549 0.417134 -3.070509 0
M  V30 48 H -4.045478 -3.451895 -3.849127 0
M  V30 49 H -4.626928 -5.974638 -1.151381 0
M  V30 50 H -5.154565 -5.281144 -1.061495 0
M  V30 51 H -3.339423 -3.144515 2.768311 0
M  V30 52 H -2.445264 -0.805128 2.562652 0
M  V30 53 H -2.268502 0.129648 0.380590 0
M  V30 54 H 0.668044 1.386114 -1.573958 0
M  V30 55 H 3.141491 -1.193049 -0.198577 0
M  V30 56 H 4.201335 -3.151073 0.814198 0
M  V30 END ATOM
M  V30 BEGIN BOND
M  V30 1 1 1 2
M  V30 2 1 2 3
M  V30 3 2 3 4
M  V30 4 1 4 5
M  V30 5 2 5 6
M  V30 6 1 6 7
M  V30 7 2 7 8
M  V30 8 1 7 9
M  V30 9 1 9 10
M  V30 10 1 9 11
M  V30 11 2 11 12
M  V30 12 1 12 13
M  V30 13 2 13 14
M  V30 14 1 14 15
M  V30 15 1 15 16
M  V30 16 1 16 17
M  V30 17 1 17 18
M  V30 18 2 18 19
M  V30 19 1 19 20
M  V30 20 2 20 21
M  V30 21 1 21 22
M  V30 22 2 22 23
M  V30 23 1 23 24
M  V30 24 1 24 25
M  V30 25 2 24 26
M  V30 26 1 23 27
M  V30 27 2 27 28
M  V30 28 1 28 29
M  V30 29 2 29 30
M  V30 30 2 15 31
M  V30 31 1 6 32
M  V30 32 2 32 33
M  V30 33 1 33 3
M  V30 34 1 31 11
M  V30 35 1 30 18
M  V30 36 1 30 22
M  V30 37 1 1 34
M  V30 38 1 1 35
M  V30 39 1 1 36
M  V30 40 1 4 37
M  V30 41 1 5 38
M  V30 42 1 10 39
M  V30 43 1 10 40
M  V30 44 1 10 41
M  V30 45 1 12 42
M  V30 46 1 13 43
M  V30 47 1 14 44
M  V30 48 1 16 45
M  V30 49 1 16 46
M  V30 50 1 17 47
M  V30 51 1 20 48
M  V30 52 1 25 49
M  V30 53 1 25 50
M  V30 54 1 27 51
M  V30 55 1 28 52
M  V30 56 1 29 53
M  V30 57 1 31 54
M  V30 58 1 32 55
M  V30 59 1 33 56
M  V30 END BOND
M  V30 END CTAB
M  END
>  <Dataset>  (251) 
ChEMBL_Kinases

>  <Ligand_Instance>  (251) 
nan

>  <PDB_ID>  (251) 
nan

>  <Standardized_SMILES>  (251) 
COc1ccc(C(=O)N(C)c2cccc(CNc3ncnc4c(C(N)=O)cccc34)c2)cc1

>  <Name>  (251) 
nan

>  <Pocket>  (251) 
nan

>  <ATP_Site>  (251) 
nan

>  <Peripheral>  (251) 
nan

>  <Num_H_Atoms_ProtBoundConf>  (251) 
nan

>  <Num_Resolved_Atoms>  (251) 
nan

>  <Num_Not_Resolved_Atoms>  (251) 
nan

$$$$
CHEMBL3685330
     RDKit          3D

  0  0  0  0  0  0  0  0  0  0999 V3000
M  V30 BEGIN CTAB
M  V30 COUNTS 41 43 0 0 0
M  V30 BEGIN ATOM
M  V30 1 N -3.999536 -1.299266 0.574538 0
M  V30 2 C -2.606741 -1.710187 0.350286 0
M  V30 3 C -1.810934 -1.293689 1.546245 0 CFG=1
M  V30 4 N -0.404227 -1.651825 1.481167 0
M  V30 5 C 0.570801 -1.107340 0.609273 0
M  V30 6 C 0.330344 -0.109860 -0.311214 0
M  V30 7 C 1.209381 0.484759 -1.186644 0
M  V30 8 N 2.475600 0.036384 -1.142631 0
M  V30 9 C 2.823660 -0.932231 -0.284743 0
M  V30 10 C 4.108062 -1.399701 -0.225913 0
M  V30 11 C 5.085743 -0.792892 -1.153468 0
M  V30 12 N 4.725071 0.219842 -2.087793 0
M  V30 13 O 6.298575 -1.118137 -1.191196 0
M  V30 14 C 4.608108 -2.383629 0.599287 0
M  V30 15 C 3.642679 -2.926075 1.449526 0
M  V30 16 C 2.318955 -2.497061 1.441511 0
M  V30 17 C 1.911739 -1.499470 0.573584 0
M  V30 18 C -1.990134 0.121917 1.940711 0
M  V30 19 C -2.720420 1.165203 1.429882 0
M  V30 20 C -2.802172 2.443655 1.918582 0
M  V30 21 C -2.048731 2.702860 3.072506 0
M  V30 22 C -1.294310 1.693089 3.631947 0
M  V30 23 C -1.241002 0.398928 3.097217 0
M  V30 24 H -4.462279 -2.010889 1.207988 0
M  V30 25 H -4.484288 -1.427926 -0.353431 0
M  V30 26 H -2.649825 -2.844454 0.376419 0
M  V30 27 H -2.269004 -1.364892 -0.618947 0
M  V30 28 H -2.252104 -1.877233 2.408369 0
M  V30 29 H -0.099016 -2.387010 2.152000 0
M  V30 30 H -0.664890 0.311233 -0.400642 0
M  V30 31 H 0.939006 1.264187 -1.880681 0
M  V30 32 H 4.344051 -0.509380 -2.753186 0
M  V30 33 H 4.797598 1.278231 -2.126736 0
M  V30 34 H 5.631356 -2.717043 0.605887 0
M  V30 35 H 3.983904 -3.712394 2.126766 0
M  V30 36 H 1.700673 -3.011472 2.152108 0
M  V30 37 H -3.262792 0.882422 0.539974 0
M  V30 38 H -3.439356 3.120359 1.365988 0
M  V30 39 H -2.121440 3.705463 3.443115 0
M  V30 40 H -0.724446 1.943895 4.530195 0
M  V30 41 H -0.604821 -0.284421 3.647237 0
M  V30 END ATOM
M  V30 BEGIN BOND
M  V30 1 1 1 2
M  V30 2 1 2 3
M  V30 3 1 3 4
M  V30 4 1 4 5
M  V30 5 2 5 6
M  V30 6 1 6 7
M  V30 7 2 7 8
M  V30 8 1 8 9
M  V30 9 2 9 10
M  V30 10 1 10 11
M  V30 11 1 11 12
M  V30 12 2 11 13
M  V30 13 1 10 14
M  V30 14 2 14 15
M  V30 15 1 15 16
M  V30 16 2 16 17
M  V30 17 1 3 18
M  V30 18 2 18 19
M  V30 19 1 19 20
M  V30 20 2 20 21
M  V30 21 1 21 22
M  V30 22 2 22 23
M  V30 23 1 17 5
M  V30 24 1 23 18
M  V30 25 1 17 9
M  V30 26 1 1 24
M  V30 27 1 1 25
M  V30 28 1 2 26
M  V30 29 1 2 27
M  V30 30 1 3 28 CFG=1
M  V30 31 1 4 29
M  V30 32 1 6 30
M  V30 33 1 7 31
M  V30 34 1 12 32
M  V30 35 1 12 33
M  V30 36 1 14 34
M  V30 37 1 15 35
M  V30 38 1 16 36
M  V30 39 1 19 37
M  V30 40 1 20 38
M  V30 41 1 21 39
M  V30 42 1 22 40
M  V30 43 1 23 41
M  V30 END BOND
M  V30 END CTAB
M  END
>  <Dataset>  (252) 
ChEMBL_Kinases

>  <Ligand_Instance>  (252) 
nan

>  <PDB_ID>  (252) 
nan

>  <Standardized_SMILES>  (252) 
NC[C@@H](Nc1ccnc2c(C(N)=O)cccc12)c1ccccc1

>  <Name>  (252) 
nan

>  <Pocket>  (252) 
nan

>  <ATP_Site>  (252) 
nan

>  <Peripheral>  (252) 
nan

>  <Num_H_Atoms_ProtBoundConf>  (252) 
nan

>  <Num_Resolved_Atoms>  (252) 
nan

>  <Num_Not_Resolved_Atoms>  (252) 
nan

$$$$
CHEMBL3685328
     RDKit          3D

  0  0  0  0  0  0  0  0  0  0999 V3000
M  V30 BEGIN CTAB
M  V30 COUNTS 47 49 0 0 0
M  V30 BEGIN ATOM
M  V30 1 C -0.834896 -3.015661 3.547463 0
M  V30 2 N 0.079179 -2.750969 2.464860 0
M  V30 3 C -0.580995 -2.803826 1.196570 0
M  V30 4 C -1.583731 -1.638632 1.011966 0 CFG=1
M  V30 5 N -0.990620 -0.373311 1.061947 0
M  V30 6 C -0.462546 0.949547 1.109126 0
M  V30 7 N -1.153379 2.087119 1.138558 0
M  V30 8 C -0.657943 3.312717 1.215845 0
M  V30 9 N 0.668923 3.374975 1.267289 0
M  V30 10 C 1.479670 2.317421 1.245302 0
M  V30 11 C 2.839040 2.574692 1.300710 0
M  V30 12 C 3.378206 3.925355 1.382635 0
M  V30 13 N 2.453742 4.993929 1.377095 0
M  V30 14 O 4.608622 4.158182 1.455879 0
M  V30 15 C 3.710446 1.507840 1.272449 0
M  V30 16 C 3.188719 0.233294 1.189759 0
M  V30 17 O 4.127822 -0.777522 1.165950 0
M  V30 18 C 3.810200 -2.129262 1.085293 0
M  V30 19 C 1.843268 0.082209 1.140331 0
M  V30 20 C 0.909787 1.065279 1.163664 0
M  V30 21 C -2.299951 -2.002954 -0.246477 0
M  V30 22 C -1.702120 -1.726449 -1.455059 0
M  V30 23 C -2.341892 -2.052478 -2.644470 0
M  V30 24 C -3.576331 -2.653885 -2.653662 0
M  V30 25 C -4.197556 -2.941778 -1.439208 0
M  V30 26 Cl -5.787068 -3.715004 -1.337316 0
M  V30 27 C -3.555449 -2.614757 -0.264387 0
M  V30 28 H -0.354703 -3.716747 4.289448 0
M  V30 29 H -1.045107 -2.051865 4.072840 0
M  V30 30 H -1.781280 -3.494769 3.221348 0
M  V30 31 H 0.831567 -3.457348 2.453213 0
M  V30 32 H 0.120613 -2.728349 0.354053 0
M  V30 33 H -1.108943 -3.761741 1.074063 0
M  V30 34 H -2.329759 -1.883909 1.846075 0
M  V30 35 H -2.019003 -0.091669 0.982129 0
M  V30 36 H -1.322562 4.165625 1.232600 0
M  V30 37 H 1.653541 5.498636 1.815291 0
M  V30 38 H 1.794861 5.791957 1.335121 0
M  V30 39 H 4.760653 1.782499 1.319421 0
M  V30 40 H 3.901461 -2.535191 0.040684 0
M  V30 41 H 2.817697 -2.386968 1.442747 0
M  V30 42 H 4.546043 -2.700960 1.703532 0
M  V30 43 H 1.481475 -0.918802 1.061824 0
M  V30 44 H -0.728309 -1.252121 -1.452842 0
M  V30 45 H -1.876878 -1.837514 -3.606042 0
M  V30 46 H -4.132994 -2.935992 -3.543073 0
M  V30 47 H -3.991435 -2.815116 0.727051 0
M  V30 END ATOM
M  V30 BEGIN BOND
M  V30 1 1 1 2
M  V30 2 1 2 3
M  V30 3 1 3 4
M  V30 4 1 4 5
M  V30 5 1 5 6
M  V30 6 2 6 7
M  V30 7 1 7 8
M  V30 8 2 8 9
M  V30 9 1 9 10
M  V30 10 2 10 11
M  V30 11 1 11 12
M  V30 12 1 12 13
M  V30 13 2 12 14
M  V30 14 1 11 15
M  V30 15 2 15 16
M  V30 16 1 16 17
M  V30 17 1 17 18
M  V30 18 1 16 19
M  V30 19 2 19 20
M  V30 20 1 4 21
M  V30 21 2 21 22
M  V30 22 1 22 23
M  V30 23 2 23 24
M  V30 24 1 24 25
M  V30 25 1 25 26
M  V30 26 2 25 27
M  V30 27 1 20 6
M  V30 28 1 27 21
M  V30 29 1 20 10
M  V30 30 1 1 28
M  V30 31 1 1 29
M  V30 32 1 1 30
M  V30 33 1 2 31
M  V30 34 1 3 32
M  V30 35 1 3 33
M  V30 36 1 4 34 CFG=1
M  V30 37 1 5 35
M  V30 38 1 8 36
M  V30 39 1 13 37
M  V30 40 1 13 38
M  V30 41 1 15 39
M  V30 42 1 18 40
M  V30 43 1 18 41
M  V30 44 1 18 42
M  V30 45 1 19 43
M  V30 46 1 22 44
M  V30 47 1 23 45
M  V30 48 1 24 46
M  V30 49 1 27 47
M  V30 END BOND
M  V30 END CTAB
M  END
>  <Dataset>  (253) 
ChEMBL_Kinases

>  <Ligand_Instance>  (253) 
nan

>  <PDB_ID>  (253) 
nan

>  <Standardized_SMILES>  (253) 
CNC[C@@H](Nc1ncnc2c(C(N)=O)cc(OC)cc12)c1cccc(Cl)c1

>  <Name>  (253) 
nan

>  <Pocket>  (253) 
nan

>  <ATP_Site>  (253) 
nan

>  <Peripheral>  (253) 
nan

>  <Num_H_Atoms_ProtBoundConf>  (253) 
nan

>  <Num_Resolved_Atoms>  (253) 
nan

>  <Num_Not_Resolved_Atoms>  (253) 
nan

$$$$
CHEMBL3685310
     RDKit          3D

  0  0  0  0  0  0  0  0  0  0999 V3000
M  V30 BEGIN CTAB
M  V30 COUNTS 57 60 0 0 0
M  V30 BEGIN ATOM
M  V30 1 C 7.074094 -1.521860 5.413288 0
M  V30 2 O 7.299349 -1.466539 4.034770 0
M  V30 3 C 6.433665 -0.948768 3.084449 0
M  V30 4 C 5.219533 -0.419336 3.448082 0
M  V30 5 C 4.457555 0.060524 2.410037 0
M  V30 6 C 4.802996 0.052113 1.078895 0
M  V30 7 C 4.032715 0.531270 -0.054430 0
M  V30 8 O 4.448347 0.550455 -1.228934 0
M  V30 9 N 2.724013 1.007982 0.195265 0
M  V30 10 C 1.550301 1.556298 -0.368717 0
M  V30 11 C 1.475283 2.953730 -0.410957 0
M  V30 12 C 0.342308 3.602964 -0.929652 0
M  V30 13 C -0.627096 2.763112 -1.364082 0
M  V30 14 C -0.628464 1.357802 -1.356699 0
M  V30 15 C -1.869565 0.753244 -1.877119 0
M  V30 16 C -1.613867 0.492324 -3.362900 0
M  V30 17 N -2.135709 -0.500638 -1.193172 0
M  V30 18 C -3.478933 -0.962334 -1.030400 0
M  V30 19 N -4.448910 -0.186550 -1.531491 0
M  V30 20 C -5.734641 -0.527285 -1.428454 0
M  V30 21 N -6.155169 -1.676347 -0.812173 0
M  V30 22 C -5.192944 -2.479742 -0.296413 0
M  V30 23 C -5.562026 -3.644724 0.327304 0
M  V30 24 C -6.953174 -4.070237 0.469847 0
M  V30 25 N -7.979826 -3.249610 -0.058220 0
M  V30 26 O -7.343048 -5.121779 1.030252 0
M  V30 27 C -4.555326 -4.459289 0.848917 0
M  V30 28 C -3.212669 -4.111182 0.745671 0
M  V30 29 C -2.202632 -4.990341 1.294724 0
M  V30 30 N -1.397868 -5.701661 1.723745 0
M  V30 31 C -2.870206 -2.921865 0.106572 0
M  V30 32 C -3.856792 -2.139417 -0.395864 0
M  V30 33 C 0.512996 0.806376 -0.836902 0
M  V30 34 C 6.036214 -0.494442 0.792740 0
M  V30 35 C 6.888224 -1.010429 1.780138 0
M  V30 36 F 8.067335 -1.517296 1.391549 0
M  V30 37 H 7.460613 -2.442834 5.902757 0
M  V30 38 H 7.598789 -0.656996 5.900400 0
M  V30 39 H 6.013532 -1.424077 5.721093 0
M  V30 40 H 4.861104 -0.366289 4.462481 0
M  V30 41 H 3.499263 0.482403 2.676533 0
M  V30 42 H 2.344528 1.003734 1.173525 0
M  V30 43 H 2.300235 3.546934 -0.040804 0
M  V30 44 H 0.296291 4.666605 -0.961695 0
M  V30 45 H -1.498903 3.312021 -1.759224 0
M  V30 46 H -2.717289 1.445855 -1.775988 0
M  V30 47 H -0.582978 0.078578 -3.499633 0
M  V30 48 H -1.710365 1.425556 -3.942589 0
M  V30 49 H -2.323362 -0.254133 -3.721493 0
M  V30 50 H -1.291343 -1.001376 -0.850519 0
M  V30 51 H -6.486196 0.153895 -1.861266 0
M  V30 52 H -8.958167 -3.586774 -0.241532 0
M  V30 53 H -8.496926 -2.435597 -0.439659 0
M  V30 54 H -4.893457 -5.348805 1.321757 0
M  V30 55 H -1.821333 -2.690419 0.047870 0
M  V30 56 H 0.548618 -0.254972 -0.817494 0
M  V30 57 H 6.373300 -0.533581 -0.243097 0
M  V30 END ATOM
M  V30 BEGIN BOND
M  V30 1 1 1 2
M  V30 2 1 2 3
M  V30 3 2 3 4
M  V30 4 1 4 5
M  V30 5 2 5 6
M  V30 6 1 6 7
M  V30 7 2 7 8
M  V30 8 1 7 9
M  V30 9 1 9 10
M  V30 10 2 10 11
M  V30 11 1 11 12
M  V30 12 2 12 13
M  V30 13 1 13 14
M  V30 14 1 14 15
M  V30 15 1 15 16
M  V30 16 1 15 17
M  V30 17 1 17 18
M  V30 18 2 18 19
M  V30 19 1 19 20
M  V30 20 2 20 21
M  V30 21 1 21 22
M  V30 22 2 22 23
M  V30 23 1 23 24
M  V30 24 1 24 25
M  V30 25 2 24 26
M  V30 26 1 23 27
M  V30 27 2 27 28
M  V30 28 1 28 29
M  V30 29 3 29 30
M  V30 30 1 28 31
M  V30 31 2 31 32
M  V30 32 2 14 33
M  V30 33 1 6 34
M  V30 34 2 34 35
M  V30 35 1 35 36
M  V30 36 1 35 3
M  V30 37 1 33 10
M  V30 38 1 32 18
M  V30 39 1 32 22
M  V30 40 1 1 37
M  V30 41 1 1 38
M  V30 42 1 1 39
M  V30 43 1 4 40
M  V30 44 1 5 41
M  V30 45 1 9 42
M  V30 46 1 11 43
M  V30 47 1 12 44
M  V30 48 1 13 45
M  V30 49 1 15 46
M  V30 50 1 16 47
M  V30 51 1 16 48
M  V30 52 1 16 49
M  V30 53 1 17 50
M  V30 54 1 20 51
M  V30 55 1 25 52
M  V30 56 1 25 53
M  V30 57 1 27 54
M  V30 58 1 31 55
M  V30 59 1 33 56
M  V30 60 1 34 57
M  V30 END BOND
M  V30 END CTAB
M  END
>  <Dataset>  (254) 
ChEMBL_Kinases

>  <Ligand_Instance>  (254) 
nan

>  <PDB_ID>  (254) 
nan

>  <Standardized_SMILES>  (254) 
COc1ccc(C(=O)Nc2cccc(C(C)Nc3ncnc4c(C(N)=O)cc(C#N)cc34)c2)cc1F

>  <Name>  (254) 
nan

>  <Pocket>  (254) 
nan

>  <ATP_Site>  (254) 
nan

>  <Peripheral>  (254) 
nan

>  <Num_H_Atoms_ProtBoundConf>  (254) 
nan

>  <Num_Resolved_Atoms>  (254) 
nan

>  <Num_Not_Resolved_Atoms>  (254) 
nan

$$$$
CHEMBL3685305
     RDKit          3D

  0  0  0  0  0  0  0  0  0  0999 V3000
M  V30 BEGIN CTAB
M  V30 COUNTS 49 52 0 0 0
M  V30 BEGIN ATOM
M  V30 1 N 2.485147 -4.995328 2.099705 0
M  V30 2 C 3.785563 -4.456024 2.263619 0
M  V30 3 O 4.621874 -5.113489 2.908987 0
M  V30 4 C 4.082911 -3.157404 1.669836 0
M  V30 5 C 5.357683 -2.671133 1.863280 0
M  V30 6 C 5.671409 -1.432248 1.307317 0
M  V30 7 C 4.686115 -0.775092 0.600645 0
M  V30 8 C 3.422923 -1.224021 0.391118 0
M  V30 9 C 2.484393 -0.513308 -0.328244 0
M  V30 10 N 2.777087 0.728960 -0.896623 0
M  V30 11 C 1.881476 1.569340 -1.668378 0
M  V30 12 C 0.719086 1.971690 -0.836571 0
M  V30 13 C 0.895673 3.101711 -0.043779 0
M  V30 14 C -0.089154 3.627050 0.788754 0
M  V30 15 C -1.315446 2.997245 0.837567 0
M  V30 16 C -1.505769 1.883202 0.062868 0
M  V30 17 N -2.753440 1.213918 0.089418 0
M  V30 18 C -3.072412 0.159306 0.986006 0
M  V30 19 O -2.064606 -0.072077 1.742285 0
M  V30 20 C -4.317001 -0.564623 1.068878 0
M  V30 21 C -5.482548 -0.449439 0.348455 0
M  V30 22 F -5.447526 0.511832 -0.600232 0
M  V30 23 C -6.597310 -1.218200 0.543709 0
M  V30 24 C -6.600551 -2.189181 1.519026 0
M  V30 25 Cl -8.028548 -3.160377 1.755534 0
M  V30 26 C -5.458352 -2.333940 2.257206 0
M  V30 27 C -4.353120 -1.561646 2.053394 0
M  V30 28 F -3.269639 -1.807893 2.863033 0
M  V30 29 C -0.507497 1.391908 -0.749701 0
M  V30 30 N 1.302276 -1.133351 -0.417088 0
M  V30 31 C 1.015687 -2.325612 0.123315 0
M  V30 32 N 1.939125 -3.007931 0.821905 0
M  V30 33 C 3.146729 -2.451404 0.954226 0
M  V30 34 H 1.527157 -4.717917 2.414742 0
M  V30 35 H 1.514394 -5.314595 2.030121 0
M  V30 36 H 6.037169 -3.263799 2.426104 0
M  V30 37 H 6.677094 -1.045333 1.458595 0
M  V30 38 H 5.022986 0.168440 0.212442 0
M  V30 39 H 3.694114 1.169413 -0.809968 0
M  V30 40 H 2.333496 2.492492 -2.048675 0
M  V30 41 H 1.530170 1.011331 -2.580981 0
M  V30 42 H 1.839813 3.649041 -0.033291 0
M  V30 43 H 0.105966 4.511922 1.384747 0
M  V30 44 H -2.060967 3.415521 1.483803 0
M  V30 45 H -3.453077 1.523672 -0.585715 0
M  V30 46 H -7.437071 -1.013733 -0.097675 0
M  V30 47 H -5.461063 -3.094275 3.020965 0
M  V30 48 H -0.678958 0.528599 -1.351198 0
M  V30 49 H -0.010560 -2.670670 -0.057887 0
M  V30 END ATOM
M  V30 BEGIN BOND
M  V30 1 1 1 2
M  V30 2 2 2 3
M  V30 3 1 2 4
M  V30 4 2 4 5
M  V30 5 1 5 6
M  V30 6 2 6 7
M  V30 7 1 7 8
M  V30 8 2 8 9
M  V30 9 1 9 10
M  V30 10 1 10 11
M  V30 11 1 11 12
M  V30 12 2 12 13
M  V30 13 1 13 14
M  V30 14 2 14 15
M  V30 15 1 15 16
M  V30 16 1 16 17
M  V30 17 1 17 18
M  V30 18 2 18 19
M  V30 19 1 18 20
M  V30 20 2 20 21
M  V30 21 1 21 22
M  V30 22 1 21 23
M  V30 23 2 23 24
M  V30 24 1 24 25
M  V30 25 1 24 26
M  V30 26 2 26 27
M  V30 27 1 27 28
M  V30 28 2 16 29
M  V30 29 1 9 30
M  V30 30 2 30 31
M  V30 31 1 31 32
M  V30 32 2 32 33
M  V30 33 1 33 4
M  V30 34 1 33 8
M  V30 35 1 29 12
M  V30 36 1 27 20
M  V30 37 1 1 34
M  V30 38 1 1 35
M  V30 39 1 5 36
M  V30 40 1 6 37
M  V30 41 1 7 38
M  V30 42 1 10 39
M  V30 43 1 11 40
M  V30 44 1 11 41
M  V30 45 1 13 42
M  V30 46 1 14 43
M  V30 47 1 15 44
M  V30 48 1 17 45
M  V30 49 1 23 46
M  V30 50 1 26 47
M  V30 51 1 29 48
M  V30 52 1 31 49
M  V30 END BOND
M  V30 END CTAB
M  END
>  <Dataset>  (255) 
ChEMBL_Kinases

>  <Ligand_Instance>  (255) 
nan

>  <PDB_ID>  (255) 
nan

>  <Standardized_SMILES>  (255) 
NC(=O)c1cccc2c(NCc3cccc(NC(=O)c4c(F)cc(Cl)cc4F)c3)ncnc12

>  <Name>  (255) 
nan

>  <Pocket>  (255) 
nan

>  <ATP_Site>  (255) 
nan

>  <Peripheral>  (255) 
nan

>  <Num_H_Atoms_ProtBoundConf>  (255) 
nan

>  <Num_Resolved_Atoms>  (255) 
nan

>  <Num_Not_Resolved_Atoms>  (255) 
nan

$$$$
CHEMBL3685304
     RDKit          3D

  0  0  0  0  0  0  0  0  0  0999 V3000
M  V30 BEGIN CTAB
M  V30 COUNTS 53 56 0 0 0
M  V30 BEGIN ATOM
M  V30 1 C -0.469361 0.521004 4.730856 0
M  V30 2 C -1.201518 1.030438 3.518771 0 CFG=1
M  V30 3 N -0.370496 1.760666 2.591459 0
M  V30 4 C 0.914300 1.245954 2.187947 0
M  V30 5 N 1.402394 0.105595 2.676101 0
M  V30 6 C 2.608415 -0.347351 2.306772 0
M  V30 7 N 3.406361 0.286759 1.440365 0
M  V30 8 C 2.974532 1.442724 0.910618 0
M  V30 9 C 3.778191 2.104311 0.022050 0
M  V30 10 C 5.078697 1.591414 -0.359280 0
M  V30 11 N 5.576556 0.375497 0.178195 0
M  V30 12 O 5.822941 2.187781 -1.174132 0
M  V30 13 C 3.346426 3.282665 -0.523453 0
M  V30 14 C 2.101797 3.803024 -0.177801 0
M  V30 15 C 1.339465 3.088607 0.722967 0
M  V30 16 C 1.736017 1.901610 1.294015 0
M  V30 17 C -2.056215 -0.008304 2.925422 0
M  V30 18 C -3.367757 -0.172142 3.403664 0
M  V30 19 C -4.319504 -1.072905 2.978478 0
M  V30 20 C -3.941156 -1.919516 1.957849 0
M  V30 21 C -2.674105 -1.834946 1.423013 0
M  V30 22 N -2.273664 -2.703350 0.370655 0
M  V30 23 C -2.437019 -2.398849 -0.995298 0
M  V30 24 O -2.953772 -1.326524 -1.409443 0
M  V30 25 C -2.005934 -3.331918 -2.029973 0
M  V30 26 C -2.172112 -3.014118 -3.367618 0
M  V30 27 C -1.805507 -3.812531 -4.429610 0
M  V30 28 C -1.219361 -5.040762 -4.152114 0
M  V30 29 F -0.842959 -5.859092 -5.162922 0
M  V30 30 C -1.044110 -5.378188 -2.839877 0
M  V30 31 O -0.463306 -6.592826 -2.478421 0
M  V30 32 C -1.420274 -4.560199 -1.796708 0
M  V30 33 C -1.791170 -0.901972 1.913277 0
M  V30 34 H 0.445077 1.135620 4.939223 0
M  V30 35 H -1.138984 0.470621 5.604164 0
M  V30 36 H -0.068358 -0.515054 4.592993 0
M  V30 37 H -1.940217 1.794647 3.964569 0
M  V30 38 H -0.740668 2.652175 2.240179 0
M  V30 39 H 2.951122 -1.282147 2.738546 0
M  V30 40 H 5.934338 -0.312603 -0.536593 0
M  V30 41 H 5.785296 -0.234363 0.994218 0
M  V30 42 H 3.989968 3.785838 -1.217051 0
M  V30 43 H 1.815401 4.733067 -0.638779 0
M  V30 44 H 0.393886 3.561299 0.933435 0
M  V30 45 H -3.692197 0.494334 4.220330 0
M  V30 46 H -5.285024 -1.103471 3.419501 0
M  V30 47 H -4.656629 -2.631081 1.604948 0
M  V30 48 H -1.845987 -3.590793 0.715135 0
M  V30 49 H -2.623904 -2.068230 -3.650326 0
M  V30 50 H -1.963451 -3.505619 -5.456308 0
M  V30 51 H -0.941426 -7.123788 -1.751384 0
M  V30 52 H -1.267527 -4.857924 -0.768458 0
M  V30 53 H -0.821438 -0.869065 1.463436 0
M  V30 END ATOM
M  V30 BEGIN BOND
M  V30 1 1 1 2
M  V30 2 1 2 3
M  V30 3 1 3 4
M  V30 4 2 4 5
M  V30 5 1 5 6
M  V30 6 2 6 7
M  V30 7 1 7 8
M  V30 8 2 8 9
M  V30 9 1 9 10
M  V30 10 1 10 11
M  V30 11 2 10 12
M  V30 12 1 9 13
M  V30 13 2 13 14
M  V30 14 1 14 15
M  V30 15 2 15 16
M  V30 16 1 2 17
M  V30 17 2 17 18
M  V30 18 1 18 19
M  V30 19 2 19 20
M  V30 20 1 20 21
M  V30 21 1 21 22
M  V30 22 1 22 23
M  V30 23 2 23 24
M  V30 24 1 23 25
M  V30 25 2 25 26
M  V30 26 1 26 27
M  V30 27 2 27 28
M  V30 28 1 28 29
M  V30 29 1 28 30
M  V30 30 1 30 31
M  V30 31 2 30 32
M  V30 32 2 21 33
M  V30 33 1 16 4
M  V30 34 1 33 17
M  V30 35 1 16 8
M  V30 36 1 32 25
M  V30 37 1 1 34
M  V30 38 1 1 35
M  V30 39 1 1 36
M  V30 40 1 2 37 CFG=1
M  V30 41 1 3 38
M  V30 42 1 6 39
M  V30 43 1 11 40
M  V30 44 1 11 41
M  V30 45 1 13 42
M  V30 46 1 14 43
M  V30 47 1 15 44
M  V30 48 1 18 45
M  V30 49 1 19 46
M  V30 50 1 20 47
M  V30 51 1 22 48
M  V30 52 1 26 49
M  V30 53 1 27 50
M  V30 54 1 31 51
M  V30 55 1 32 52
M  V30 56 1 33 53
M  V30 END BOND
M  V30 END CTAB
M  END
>  <Dataset>  (256) 
ChEMBL_Kinases

>  <Ligand_Instance>  (256) 
nan

>  <PDB_ID>  (256) 
nan

>  <Standardized_SMILES>  (256) 
C[C@@H](Nc1ncnc2c(C(N)=O)cccc12)c1cccc(NC(=O)c2ccc(F)c(O)c2)c1

>  <Name>  (256) 
nan

>  <Pocket>  (256) 
nan

>  <ATP_Site>  (256) 
nan

>  <Peripheral>  (256) 
nan

>  <Num_H_Atoms_ProtBoundConf>  (256) 
nan

>  <Num_Resolved_Atoms>  (256) 
nan

>  <Num_Not_Resolved_Atoms>  (256) 
nan

$$$$
CHEMBL3685303
     RDKit          3D

  0  0  0  0  0  0  0  0  0  0999 V3000
M  V30 BEGIN CTAB
M  V30 COUNTS 56 59 0 0 0
M  V30 BEGIN ATOM
M  V30 1 C 1.974752 -3.397254 3.249734 0
M  V30 2 O 0.670361 -3.137394 2.962111 0
M  V30 3 C 0.452254 -2.835013 1.655873 0
M  V30 4 C 1.225404 -1.590114 1.268418 0
M  V30 5 N 0.888662 -0.445507 2.067584 0
M  V30 6 C 1.566787 0.783582 2.399181 0
M  V30 7 N 2.813263 1.041337 1.980566 0
M  V30 8 C 3.535905 2.127837 2.258655 0
M  V30 9 N 2.940434 3.037748 3.032702 0
M  V30 10 C 1.678695 2.841673 3.492281 0
M  V30 11 C 1.071943 3.785820 4.289042 0
M  V30 12 C 1.820984 4.967888 4.611503 0
M  V30 13 N 3.135828 5.188100 4.153391 0
M  V30 14 O 1.845359 6.062158 5.205092 0
M  V30 15 C -0.200112 3.688061 4.806339 0
M  V30 16 C -0.924467 2.530899 4.489450 0
M  V30 17 C -0.329718 1.576054 3.692347 0
M  V30 18 C 0.945872 1.718739 3.198483 0
M  V30 19 C 0.952036 -1.308439 -0.198490 0
M  V30 20 C 1.286556 -0.209888 -0.939941 0
M  V30 21 C 1.007592 -0.008109 -2.265819 0
M  V30 22 C 0.323878 -0.987895 -2.950351 0
M  V30 23 C -0.053925 -2.132400 -2.279360 0
M  V30 24 N -0.759207 -3.099876 -3.051984 0
M  V30 25 C -2.135261 -2.800302 -2.941030 0
M  V30 26 O -2.381715 -1.782442 -2.208195 0
M  V30 27 C -3.268991 -3.515971 -3.561616 0
M  V30 28 C -4.514927 -3.000208 -3.278647 0
M  V30 29 C -5.571585 -3.691306 -3.873404 0
M  V30 30 C -5.410727 -4.802254 -4.682538 0
M  V30 31 Br -6.899598 -5.701230 -5.462761 0
M  V30 32 C -4.118405 -5.226622 -4.894351 0
M  V30 33 C -3.008845 -4.611844 -4.351852 0
M  V30 34 C 0.258442 -2.272470 -0.944679 0
M  V30 35 H 2.658828 -2.556141 3.067922 0
M  V30 36 H 2.387347 -4.232983 2.609491 0
M  V30 37 H 2.064364 -3.770561 4.315401 0
M  V30 38 H -0.602887 -2.812357 1.354579 0
M  V30 39 H 0.937303 -3.665171 1.055947 0
M  V30 40 H 2.289616 -1.786807 1.318783 0
M  V30 41 H -0.051547 -0.614842 2.445196 0
M  V30 42 H 4.530073 2.292917 1.902578 0
M  V30 43 H 4.130988 5.300719 3.896563 0
M  V30 44 H 3.548601 5.677588 3.311626 0
M  V30 45 H -0.546217 4.509364 5.417990 0
M  V30 46 H -1.910231 2.458612 4.892616 0
M  V30 47 H -0.925581 0.719226 3.484040 0
M  V30 48 H 1.814646 0.570569 -0.447467 0
M  V30 49 H 1.312193 0.884547 -2.754955 0
M  V30 50 H 0.108597 -0.823653 -3.988539 0
M  V30 51 H -0.536689 -3.939076 -3.655263 0
M  V30 52 H -4.694305 -2.143778 -2.658464 0
M  V30 53 H -6.595421 -3.367450 -3.714382 0
M  V30 54 H -3.989502 -6.104030 -5.532881 0
M  V30 55 H -2.025095 -4.995347 -4.557922 0
M  V30 56 H -0.099100 -3.200569 -0.567748 0
M  V30 END ATOM
M  V30 BEGIN BOND
M  V30 1 1 1 2
M  V30 2 1 2 3
M  V30 3 1 3 4
M  V30 4 1 4 5
M  V30 5 1 5 6
M  V30 6 2 6 7
M  V30 7 1 7 8
M  V30 8 2 8 9
M  V30 9 1 9 10
M  V30 10 2 10 11
M  V30 11 1 11 12
M  V30 12 1 12 13
M  V30 13 2 12 14
M  V30 14 1 11 15
M  V30 15 2 15 16
M  V30 16 1 16 17
M  V30 17 2 17 18
M  V30 18 1 4 19
M  V30 19 2 19 20
M  V30 20 1 20 21
M  V30 21 2 21 22
M  V30 22 1 22 23
M  V30 23 1 23 24
M  V30 24 1 24 25
M  V30 25 2 25 26
M  V30 26 1 25 27
M  V30 27 2 27 28
M  V30 28 1 28 29
M  V30 29 2 29 30
M  V30 30 1 30 31
M  V30 31 1 30 32
M  V30 32 2 32 33
M  V30 33 2 23 34
M  V30 34 1 18 6
M  V30 35 1 34 19
M  V30 36 1 18 10
M  V30 37 1 33 27
M  V30 38 1 1 35
M  V30 39 1 1 36
M  V30 40 1 1 37
M  V30 41 1 3 38
M  V30 42 1 3 39
M  V30 43 1 4 40
M  V30 44 1 5 41
M  V30 45 1 8 42
M  V30 46 1 13 43
M  V30 47 1 13 44
M  V30 48 1 15 45
M  V30 49 1 16 46
M  V30 50 1 17 47
M  V30 51 1 20 48
M  V30 52 1 21 49
M  V30 53 1 22 50
M  V30 54 1 24 51
M  V30 55 1 28 52
M  V30 56 1 29 53
M  V30 57 1 32 54
M  V30 58 1 33 55
M  V30 59 1 34 56
M  V30 END BOND
M  V30 END CTAB
M  END
>  <Dataset>  (257) 
ChEMBL_Kinases

>  <Ligand_Instance>  (257) 
nan

>  <PDB_ID>  (257) 
nan

>  <Standardized_SMILES>  (257) 
COCC(Nc1ncnc2c(C(N)=O)cccc12)c1cccc(NC(=O)c2ccc(Br)cc2)c1

>  <Name>  (257) 
nan

>  <Pocket>  (257) 
nan

>  <ATP_Site>  (257) 
nan

>  <Peripheral>  (257) 
nan

>  <Num_H_Atoms_ProtBoundConf>  (257) 
nan

>  <Num_Resolved_Atoms>  (257) 
nan

>  <Num_Not_Resolved_Atoms>  (257) 
nan

$$$$
CHEMBL3685282
     RDKit          3D

  0  0  0  0  0  0  0  0  0  0999 V3000
M  V30 BEGIN CTAB
M  V30 COUNTS 73 77 0 0 0
M  V30 BEGIN ATOM
M  V30 1 N 5.428706 -3.237385 6.391124 0
M  V30 2 C 5.096299 -3.349174 5.016712 0
M  V30 3 O 5.795306 -4.229977 4.455915 0
M  V30 4 C 4.059213 -2.508329 4.406940 0
M  V30 5 C 3.402434 -1.594282 5.205597 0
M  V30 6 C 2.443983 -0.841869 4.567953 0
M  V30 7 C 2.178812 -1.009594 3.225760 0
M  V30 8 C 2.847609 -1.927342 2.452554 0
M  V30 9 C 2.574426 -2.086034 1.112873 0
M  V30 10 N 1.594982 -1.280851 0.437829 0
M  V30 11 C 1.157671 -1.299100 -0.925346 0
M  V30 12 C 0.637788 0.018127 -1.452922 0
M  V30 13 C 1.587808 1.143050 -1.430245 0
M  V30 14 N 2.111442 1.610344 -0.205025 0
M  V30 15 C 3.097956 2.648299 -0.578494 0
M  V30 16 C 3.795075 3.216443 0.618109 0
M  V30 17 C 2.764094 4.040215 1.368041 0
M  V30 18 C 1.364094 3.698578 0.916881 0
M  V30 19 C 1.141186 2.252391 0.653429 0
M  V30 20 C 0.008599 -2.278063 -1.061411 0
M  V30 21 C -0.046365 -3.529995 -0.503804 0
M  V30 22 C -1.072964 -4.436001 -0.610184 0
M  V30 23 C -2.173560 -4.064870 -1.352198 0
M  V30 24 C -2.192902 -2.821935 -1.943653 0
M  V30 25 N -3.364278 -2.516260 -2.692167 0
M  V30 26 C -4.463350 -1.907399 -2.073111 0
M  V30 27 O -4.200362 -1.716487 -0.835064 0
M  V30 28 C -5.731140 -1.524165 -2.671324 0
M  V30 29 C -6.658282 -0.955644 -1.790038 0
M  V30 30 C -7.904427 -0.543134 -2.201954 0
M  V30 31 C -8.838662 0.050367 -1.210484 0
M  V30 32 F -9.506130 -1.009003 -0.604070 0
M  V30 33 F -9.716774 0.914756 -1.835041 0
M  V30 34 F -8.077436 0.764858 -0.294172 0
M  V30 35 C -8.314280 -0.665997 -3.510870 0
M  V30 36 C -7.417152 -1.222274 -4.391928 0
M  V30 37 C -6.184043 -1.626621 -3.967229 0
M  V30 38 F -5.291041 -2.174259 -4.819204 0
M  V30 39 C -1.123268 -1.965364 -1.792003 0
M  V30 40 N 3.312535 -3.021628 0.499138 0
M  V30 41 C 4.252288 -3.781358 1.056149 0
M  V30 42 N 4.524550 -3.628898 2.373168 0
M  V30 43 C 3.812827 -2.694917 3.064100 0
M  V30 44 H 6.133698 -2.950669 7.089927 0
M  V30 45 H 5.133244 -3.385649 7.358869 0
M  V30 46 H 3.634705 -1.487534 6.255759 0
M  V30 47 H 1.904996 -0.110573 5.163146 0
M  V30 48 H 1.408336 -0.367608 2.829890 0
M  V30 49 H 1.052984 -0.551784 0.925602 0
M  V30 50 H 1.973127 -1.716250 -1.541627 0
M  V30 51 H -0.361688 0.228812 -1.041496 0
M  V30 52 H 0.457426 -0.186901 -2.557845 0
M  V30 53 H 1.075674 2.013824 -1.927315 0
M  V30 54 H 2.425542 0.899250 -2.113574 0
M  V30 55 H 2.529020 3.443992 -1.072011 0
M  V30 56 H 3.827236 2.148030 -1.262867 0
M  V30 57 H 4.616805 3.846075 0.227855 0
M  V30 58 H 4.260281 2.437983 1.257911 0
M  V30 59 H 2.924513 3.931849 2.441962 0
M  V30 60 H 2.943783 5.098507 1.087656 0
M  V30 61 H 0.696116 3.975562 1.784641 0
M  V30 62 H 1.064380 4.286474 0.051255 0
M  V30 63 H 1.241232 1.726377 1.649434 0
M  V30 64 H 0.104274 2.113244 0.341520 0
M  V30 65 H 0.791965 -3.854584 0.086915 0
M  V30 66 H -1.021332 -5.400648 -0.131810 0
M  V30 67 H -2.983696 -4.756813 -1.447177 0
M  V30 68 H -3.432737 -2.736012 -3.708856 0
M  V30 69 H -6.412317 -0.820514 -0.724519 0
M  V30 70 H -9.284149 -0.338702 -3.801361 0
M  V30 71 H -7.655544 -1.355286 -5.434198 0
M  V30 72 H -1.288595 -1.040112 -2.307139 0
M  V30 73 H 4.768191 -4.505183 0.412249 0
M  V30 END ATOM
M  V30 BEGIN BOND
M  V30 1 1 1 2
M  V30 2 2 2 3
M  V30 3 1 2 4
M  V30 4 2 4 5
M  V30 5 1 5 6
M  V30 6 2 6 7
M  V30 7 1 7 8
M  V30 8 2 8 9
M  V30 9 1 9 10
M  V30 10 1 10 11
M  V30 11 1 11 12
M  V30 12 1 12 13
M  V30 13 1 13 14
M  V30 14 1 14 15
M  V30 15 1 15 16
M  V30 16 1 16 17
M  V30 17 1 17 18
M  V30 18 1 18 19
M  V30 19 1 11 20
M  V30 20 2 20 21
M  V30 21 1 21 22
M  V30 22 2 22 23
M  V30 23 1 23 24
M  V30 24 1 24 25
M  V30 25 1 25 26
M  V30 26 2 26 27
M  V30 27 1 26 28
M  V30 28 2 28 29
M  V30 29 1 29 30
M  V30 30 1 30 31
M  V30 31 1 31 32
M  V30 32 1 31 33
M  V30 33 1 31 34
M  V30 34 2 30 35
M  V30 35 1 35 36
M  V30 36 2 36 37
M  V30 37 1 37 38
M  V30 38 2 24 39
M  V30 39 1 9 40
M  V30 40 2 40 41
M  V30 41 1 41 42
M  V30 42 2 42 43
M  V30 43 1 43 4
M  V30 44 1 43 8
M  V30 45 1 19 14
M  V30 46 1 39 20
M  V30 47 1 37 28
M  V30 48 1 1 44
M  V30 49 1 1 45
M  V30 50 1 5 46
M  V30 51 1 6 47
M  V30 52 1 7 48
M  V30 53 1 10 49
M  V30 54 1 11 50
M  V30 55 1 12 51
M  V30 56 1 12 52
M  V30 57 1 13 53
M  V30 58 1 13 54
M  V30 59 1 15 55
M  V30 60 1 15 56
M  V30 61 1 16 57
M  V30 62 1 16 58
M  V30 63 1 17 59
M  V30 64 1 17 60
M  V30 65 1 18 61
M  V30 66 1 18 62
M  V30 67 1 19 63
M  V30 68 1 19 64
M  V30 69 1 21 65
M  V30 70 1 22 66
M  V30 71 1 23 67
M  V30 72 1 25 68
M  V30 73 1 29 69
M  V30 74 1 35 70
M  V30 75 1 36 71
M  V30 76 1 39 72
M  V30 77 1 41 73
M  V30 END BOND
M  V30 END CTAB
M  END
>  <Dataset>  (258) 
ChEMBL_Kinases

>  <Ligand_Instance>  (258) 
nan

>  <PDB_ID>  (258) 
nan

>  <Standardized_SMILES>  (258) 
NC(=O)c1cccc2c(NC(CCN3CCCCC3)c3cccc(NC(=O)c4cc(C(F)(F)F)ccc4F)c3)ncnc12

>  <Name>  (258) 
nan

>  <Pocket>  (258) 
nan

>  <ATP_Site>  (258) 
nan

>  <Peripheral>  (258) 
nan

>  <Num_H_Atoms_ProtBoundConf>  (258) 
nan

>  <Num_Resolved_Atoms>  (258) 
nan

>  <Num_Not_Resolved_Atoms>  (258) 
nan

$$$$
CHEMBL3685281
     RDKit          3D

  0  0  0  0  0  0  0  0  0  0999 V3000
M  V30 BEGIN CTAB
M  V30 COUNTS 59 62 0 0 0
M  V30 BEGIN ATOM
M  V30 1 C 2.559018 -0.841004 4.851596 0
M  V30 2 C 1.939105 -1.768689 3.856205 0
M  V30 3 C 2.392675 -1.515707 2.466992 0
M  V30 4 N 2.119350 -0.231242 1.925294 0
M  V30 5 C 2.692970 1.070343 2.137291 0
M  V30 6 N 3.726478 1.302557 2.956181 0
M  V30 7 C 4.308105 2.483724 3.170713 0
M  V30 8 N 3.859130 3.577211 2.534953 0
M  V30 9 C 2.807774 3.416514 1.684248 0
M  V30 10 C 2.339273 4.532885 1.026933 0
M  V30 11 C 2.987179 5.817234 1.273599 0
M  V30 12 N 2.549215 7.004973 0.625576 0
M  V30 13 O 3.957593 5.929566 2.067142 0
M  V30 14 C 1.280653 4.495727 0.141444 0
M  V30 15 C 0.696981 3.238979 -0.057050 0
M  V30 16 C 1.187852 2.140268 0.615042 0
M  V30 17 C 2.227566 2.188575 1.481865 0
M  V30 18 C 1.886628 -2.559263 1.515064 0
M  V30 19 C 2.696862 -3.650339 1.177833 0
M  V30 20 C 2.357473 -4.677805 0.323907 0
M  V30 21 C 1.103213 -4.616853 -0.245609 0
M  V30 22 C 0.266756 -3.562248 0.054441 0
M  V30 23 N -1.012603 -3.556507 -0.563879 0
M  V30 24 C -2.272596 -4.069984 -0.215229 0
M  V30 25 O -2.301694 -4.675640 0.888983 0
M  V30 26 C -3.392286 -3.864224 -1.127692 0
M  V30 27 C -3.380425 -3.209197 -2.338633 0
M  V30 28 C -4.534580 -3.102844 -3.082916 0
M  V30 29 C -5.752274 -3.630412 -2.679943 0
M  V30 30 O -6.853185 -3.478377 -3.483890 0
M  V30 31 C -6.915764 -2.831083 -4.715894 0
M  V30 32 C -5.756223 -4.290834 -1.455217 0
M  V30 33 F -6.949588 -4.802412 -1.070574 0
M  V30 34 C -4.593021 -4.400527 -0.700448 0
M  V30 35 C 0.667043 -2.568557 0.915498 0
M  V30 36 H 2.116080 0.156287 4.846614 0
M  V30 37 H 3.646775 -0.814073 4.687945 0
M  V30 38 H 2.379102 -1.218712 5.912990 0
M  V30 39 H 0.827059 -1.818682 3.956767 0
M  V30 40 H 2.276854 -2.808021 4.136997 0
M  V30 41 H 3.518599 -1.638516 2.485978 0
M  V30 42 H 1.338646 -0.266036 1.242000 0
M  V30 43 H 5.146231 2.509482 3.872901 0
M  V30 44 H 2.431399 7.941163 1.106222 0
M  V30 45 H 2.250215 7.348597 -0.313033 0
M  V30 46 H 0.963537 5.410123 -0.340756 0
M  V30 47 H -0.131735 3.237217 -0.756617 0
M  V30 48 H 0.652593 1.261320 0.369838 0
M  V30 49 H 3.696370 -3.692833 1.635727 0
M  V30 50 H 3.074160 -5.469547 0.141830 0
M  V30 51 H 0.835385 -5.425354 -0.917899 0
M  V30 52 H -0.784145 -3.024603 -1.436426 0
M  V30 53 H -2.423725 -2.808224 -2.630355 0
M  V30 54 H -4.398096 -2.564475 -4.018162 0
M  V30 55 H -6.723736 -3.501201 -5.578548 0
M  V30 56 H -6.193638 -2.000393 -4.812554 0
M  V30 57 H -7.947640 -2.418549 -4.896092 0
M  V30 58 H -4.761374 -4.944789 0.230949 0
M  V30 59 H -0.014700 -1.759926 1.129408 0
M  V30 END ATOM
M  V30 BEGIN BOND
M  V30 1 1 1 2
M  V30 2 1 2 3
M  V30 3 1 3 4
M  V30 4 1 4 5
M  V30 5 2 5 6
M  V30 6 1 6 7
M  V30 7 2 7 8
M  V30 8 1 8 9
M  V30 9 2 9 10
M  V30 10 1 10 11
M  V30 11 1 11 12
M  V30 12 2 11 13
M  V30 13 1 10 14
M  V30 14 2 14 15
M  V30 15 1 15 16
M  V30 16 2 16 17
M  V30 17 1 3 18
M  V30 18 2 18 19
M  V30 19 1 19 20
M  V30 20 2 20 21
M  V30 21 1 21 22
M  V30 22 1 22 23
M  V30 23 1 23 24
M  V30 24 2 24 25
M  V30 25 1 24 26
M  V30 26 2 26 27
M  V30 27 1 27 28
M  V30 28 2 28 29
M  V30 29 1 29 30
M  V30 30 1 30 31
M  V30 31 1 29 32
M  V30 32 1 32 33
M  V30 33 2 32 34
M  V30 34 2 22 35
M  V30 35 1 17 5
M  V30 36 1 35 18
M  V30 37 1 17 9
M  V30 38 1 34 26
M  V30 39 1 1 36
M  V30 40 1 1 37
M  V30 41 1 1 38
M  V30 42 1 2 39
M  V30 43 1 2 40
M  V30 44 1 3 41
M  V30 45 1 4 42
M  V30 46 1 7 43
M  V30 47 1 12 44
M  V30 48 1 12 45
M  V30 49 1 14 46
M  V30 50 1 15 47
M  V30 51 1 16 48
M  V30 52 1 19 49
M  V30 53 1 20 50
M  V30 54 1 21 51
M  V30 55 1 23 52
M  V30 56 1 27 53
M  V30 57 1 28 54
M  V30 58 1 31 55
M  V30 59 1 31 56
M  V30 60 1 31 57
M  V30 61 1 34 58
M  V30 62 1 35 59
M  V30 END BOND
M  V30 END CTAB
M  END
>  <Dataset>  (259) 
ChEMBL_Kinases

>  <Ligand_Instance>  (259) 
nan

>  <PDB_ID>  (259) 
nan

>  <Standardized_SMILES>  (259) 
CCC(Nc1ncnc2c(C(N)=O)cccc12)c1cccc(NC(=O)c2ccc(OC)c(F)c2)c1

>  <Name>  (259) 
nan

>  <Pocket>  (259) 
nan

>  <ATP_Site>  (259) 
nan

>  <Peripheral>  (259) 
nan

>  <Num_H_Atoms_ProtBoundConf>  (259) 
nan

>  <Num_Resolved_Atoms>  (259) 
nan

>  <Num_Not_Resolved_Atoms>  (259) 
nan

$$$$
CHEMBL3685278
     RDKit          3D

  0  0  0  0  0  0  0  0  0  0999 V3000
M  V30 BEGIN CTAB
M  V30 COUNTS 70 74 0 0 0
M  V30 BEGIN ATOM
M  V30 1 N 3.926652 5.953086 4.795516 0
M  V30 2 C 3.115427 5.404531 3.783531 0
M  V30 3 O 2.799059 6.554528 3.437094 0
M  V30 4 C 3.039967 3.963938 3.639548 0
M  V30 5 C 3.736550 3.123281 4.476139 0
M  V30 6 C 3.558997 1.789488 4.205883 0
M  V30 7 C 2.751552 1.335348 3.185266 0
M  V30 8 C 2.063684 2.180818 2.360008 0
M  V30 9 C 1.275503 1.666299 1.355166 0
M  V30 10 N 1.115628 0.278944 1.086224 0
M  V30 11 C 0.292517 -0.255689 0.046642 0
M  V30 12 C 0.458696 0.338476 -1.302521 0
M  V30 13 C 1.765947 0.238791 -2.001122 0
M  V30 14 N 2.885690 0.765579 -1.302073 0
M  V30 15 C 3.986334 1.093311 -2.278547 0
M  V30 16 C 5.169237 1.310060 -1.321872 0
M  V30 17 C 4.774985 0.486738 -0.085344 0
M  V30 18 C 3.669397 -0.360727 -0.679223 0
M  V30 19 C -1.121931 -0.483537 0.401607 0
M  V30 20 C -1.949416 0.361158 1.104274 0
M  V30 21 C -3.270421 0.133271 1.421685 0
M  V30 22 C -3.845662 -1.050255 1.006885 0
M  V30 23 C -3.088773 -1.960063 0.294808 0
M  V30 24 N -3.783533 -3.139408 -0.073135 0
M  V30 25 C -4.552624 -3.584898 -1.156783 0
M  V30 26 O -4.634235 -2.682447 -2.030057 0
M  V30 27 C -5.155120 -4.899674 -1.238161 0
M  V30 28 C -5.815024 -5.123883 -2.452126 0
M  V30 29 C -6.445837 -6.320083 -2.709031 0
M  V30 30 C -6.463571 -7.349360 -1.801208 0
M  V30 31 C -7.110565 -8.666262 -1.978752 0
M  V30 32 F -8.257175 -8.796266 -1.181919 0
M  V30 33 F -6.272463 -9.692933 -1.590617 0
M  V30 34 F -7.502381 -8.909249 -3.282558 0
M  V30 35 C -5.820421 -7.148989 -0.601902 0
M  V30 36 C -5.191426 -5.953248 -0.348265 0
M  V30 37 F -4.549498 -5.711089 0.812984 0
M  V30 38 C -1.771321 -1.662655 0.013537 0
M  V30 39 N 0.675301 2.645116 0.639316 0
M  V30 40 C 0.809413 3.955454 0.853577 0
M  V30 41 N 1.587899 4.425939 1.843401 0
M  V30 42 C 2.230436 3.522856 2.615604 0
M  V30 43 H 4.513931 6.362294 5.530417 0
M  V30 44 H 4.597309 5.553941 5.478703 0
M  V30 45 H 4.356565 3.498112 5.264257 0
M  V30 46 H 4.103352 1.107727 4.854347 0
M  V30 47 H 2.715618 0.272250 3.103285 0
M  V30 48 H 1.627268 -0.385004 1.698965 0
M  V30 49 H 0.696482 -1.335818 -0.082949 0
M  V30 50 H 0.078543 1.414317 -1.313532 0
M  V30 51 H -0.294109 -0.195125 -1.964739 0
M  V30 52 H 1.714883 0.729414 -3.024762 0
M  V30 53 H 1.987459 -0.837378 -2.272781 0
M  V30 54 H 4.207580 0.230654 -2.915714 0
M  V30 55 H 3.777188 2.039366 -2.764366 0
M  V30 56 H 6.102444 0.866942 -1.705059 0
M  V30 57 H 5.262238 2.369342 -1.059170 0
M  V30 58 H 4.288595 1.170039 0.657139 0
M  V30 59 H 5.598741 -0.085377 0.330803 0
M  V30 60 H 4.150971 -0.906021 -1.532426 0
M  V30 61 H 3.119536 -0.982801 -0.023894 0
M  V30 62 H -1.550825 1.297841 1.454033 0
M  V30 63 H -3.851061 0.854705 1.978305 0
M  V30 64 H -4.875641 -1.214692 1.258127 0
M  V30 65 H -3.582000 -3.727658 0.762757 0
M  V30 66 H -5.870402 -4.380375 -3.261224 0
M  V30 67 H -6.951816 -6.482457 -3.648889 0
M  V30 68 H -5.753570 -7.868685 0.203026 0
M  V30 69 H -1.239159 -2.419153 -0.547637 0
M  V30 70 H 0.264181 4.642981 0.198003 0
M  V30 END ATOM
M  V30 BEGIN BOND
M  V30 1 1 1 2
M  V30 2 2 2 3
M  V30 3 1 2 4
M  V30 4 2 4 5
M  V30 5 1 5 6
M  V30 6 2 6 7
M  V30 7 1 7 8
M  V30 8 2 8 9
M  V30 9 1 9 10
M  V30 10 1 10 11
M  V30 11 1 11 12
M  V30 12 1 12 13
M  V30 13 1 13 14
M  V30 14 1 14 15
M  V30 15 1 15 16
M  V30 16 1 16 17
M  V30 17 1 17 18
M  V30 18 1 11 19
M  V30 19 2 19 20
M  V30 20 1 20 21
M  V30 21 2 21 22
M  V30 22 1 22 23
M  V30 23 1 23 24
M  V30 24 1 24 25
M  V30 25 2 25 26
M  V30 26 1 25 27
M  V30 27 2 27 28
M  V30 28 1 28 29
M  V30 29 2 29 30
M  V30 30 1 30 31
M  V30 31 1 31 32
M  V30 32 1 31 33
M  V30 33 1 31 34
M  V30 34 1 30 35
M  V30 35 2 35 36
M  V30 36 1 36 37
M  V30 37 2 23 38
M  V30 38 1 9 39
M  V30 39 2 39 40
M  V30 40 1 40 41
M  V30 41 2 41 42
M  V30 42 1 42 4
M  V30 43 1 42 8
M  V30 44 1 18 14
M  V30 45 1 38 19
M  V30 46 1 36 27
M  V30 47 1 1 43
M  V30 48 1 1 44
M  V30 49 1 5 45
M  V30 50 1 6 46
M  V30 51 1 7 47
M  V30 52 1 10 48
M  V30 53 1 11 49
M  V30 54 1 12 50
M  V30 55 1 12 51
M  V30 56 1 13 52
M  V30 57 1 13 53
M  V30 58 1 15 54
M  V30 59 1 15 55
M  V30 60 1 16 56
M  V30 61 1 16 57
M  V30 62 1 17 58
M  V30 63 1 17 59
M  V30 64 1 18 60
M  V30 65 1 18 61
M  V30 66 1 20 62
M  V30 67 1 21 63
M  V30 68 1 22 64
M  V30 69 1 24 65
M  V30 70 1 28 66
M  V30 71 1 29 67
M  V30 72 1 35 68
M  V30 73 1 38 69
M  V30 74 1 40 70
M  V30 END BOND
M  V30 END CTAB
M  END
>  <Dataset>  (260) 
ChEMBL_Kinases

>  <Ligand_Instance>  (260) 
nan

>  <PDB_ID>  (260) 
nan

>  <Standardized_SMILES>  (260) 
NC(=O)c1cccc2c(NC(CCN3CCCC3)c3cccc(NC(=O)c4ccc(C(F)(F)F)cc4F)c3)ncnc12

>  <Name>  (260) 
nan

>  <Pocket>  (260) 
nan

>  <ATP_Site>  (260) 
nan

>  <Peripheral>  (260) 
nan

>  <Num_H_Atoms_ProtBoundConf>  (260) 
nan

>  <Num_Resolved_Atoms>  (260) 
nan

>  <Num_Not_Resolved_Atoms>  (260) 
nan

$$$$
CHEMBL3685271
     RDKit          3D

  0  0  0  0  0  0  0  0  0  0999 V3000
M  V30 BEGIN CTAB
M  V30 COUNTS 53 56 0 0 0
M  V30 BEGIN ATOM
M  V30 1 C 6.772109 -3.389407 5.519990 0
M  V30 2 O 6.193622 -2.229694 6.130994 0
M  V30 3 C 5.364610 -1.425249 5.344055 0
M  V30 4 C 5.126938 -1.758136 4.025907 0
M  V30 5 C 4.316150 -0.995523 3.209456 0
M  V30 6 C 3.732586 0.133781 3.747122 0
M  V30 7 C 2.845084 1.100703 3.109754 0
M  V30 8 O 2.309944 2.131786 3.593981 0
M  V30 9 N 2.513984 0.878976 1.742933 0
M  V30 10 C 1.704451 1.574644 0.800477 0
M  V30 11 C 2.106735 2.586881 -0.065549 0
M  V30 12 C 1.187008 3.158424 -0.921312 0
M  V30 13 C -0.147645 2.755812 -0.952513 0
M  V30 14 C -0.552655 1.750479 -0.094141 0
M  V30 15 C -1.962459 1.290072 -0.092605 0
M  V30 16 N -2.074360 0.208706 -1.053221 0
M  V30 17 C -3.372848 -0.368018 -1.192393 0
M  V30 18 N -4.416422 0.050043 -0.493717 0
M  V30 19 C -5.618009 -0.510918 -0.647630 0
M  V30 20 N -5.894649 -1.535277 -1.506180 0
M  V30 21 C -4.859790 -1.995052 -2.240586 0
M  V30 22 C -5.089321 -3.023558 -3.117107 0
M  V30 23 C -6.420799 -3.597757 -3.244071 0
M  V30 24 N -7.525107 -3.118319 -2.470706 0
M  V30 25 O -6.661724 -4.537404 -4.035452 0
M  V30 26 C -4.076620 -3.525292 -3.883389 0
M  V30 27 C -2.816422 -2.968021 -3.750519 0
M  V30 28 F -1.848834 -3.498230 -4.529379 0
M  V30 29 C -2.629708 -1.937155 -2.858935 0
M  V30 30 C -3.625002 -1.405106 -2.070022 0
M  V30 31 C 0.369004 1.169049 0.771956 0
M  V30 32 C 3.975811 0.466991 5.081609 0
M  V30 33 C 4.790150 -0.299942 5.899741 0
M  V30 34 H 7.519568 -3.836820 6.201457 0
M  V30 35 H 7.347930 -3.044600 4.614894 0
M  V30 36 H 6.029720 -4.094527 5.138146 0
M  V30 37 H 5.557410 -2.629864 3.554288 0
M  V30 38 H 4.065490 -1.158127 2.184683 0
M  V30 39 H 2.839216 0.092730 1.139238 0
M  V30 40 H 3.143352 2.851078 0.006351 0
M  V30 41 H 1.532565 3.949086 -1.587747 0
M  V30 42 H -0.846939 3.227820 -1.639977 0
M  V30 43 H -2.305241 0.965209 0.915801 0
M  V30 44 H -2.582996 2.133728 -0.455926 0
M  V30 45 H -1.230286 -0.089183 -1.581382 0
M  V30 46 H -6.482740 -0.158603 -0.063277 0
M  V30 47 H -7.231377 -3.514716 -1.547418 0
M  V30 48 H -8.118886 -2.602862 -3.136819 0
M  V30 49 H -4.286677 -4.338246 -4.567580 0
M  V30 50 H -1.630036 -1.567486 -2.820089 0
M  V30 51 H -0.007023 0.389226 1.418007 0
M  V30 52 H 3.564138 1.338671 5.606359 0
M  V30 53 H 4.993065 -0.064785 6.930045 0
M  V30 END ATOM
M  V30 BEGIN BOND
M  V30 1 1 1 2
M  V30 2 1 2 3
M  V30 3 2 3 4
M  V30 4 1 4 5
M  V30 5 2 5 6
M  V30 6 1 6 7
M  V30 7 2 7 8
M  V30 8 1 7 9
M  V30 9 1 9 10
M  V30 10 2 10 11
M  V30 11 1 11 12
M  V30 12 2 12 13
M  V30 13 1 13 14
M  V30 14 1 14 15
M  V30 15 1 15 16
M  V30 16 1 16 17
M  V30 17 2 17 18
M  V30 18 1 18 19
M  V30 19 2 19 20
M  V30 20 1 20 21
M  V30 21 2 21 22
M  V30 22 1 22 23
M  V30 23 1 23 24
M  V30 24 2 23 25
M  V30 25 1 22 26
M  V30 26 2 26 27
M  V30 27 1 27 28
M  V30 28 1 27 29
M  V30 29 2 29 30
M  V30 30 2 14 31
M  V30 31 1 6 32
M  V30 32 2 32 33
M  V30 33 1 33 3
M  V30 34 1 31 10
M  V30 35 1 30 17
M  V30 36 1 30 21
M  V30 37 1 1 34
M  V30 38 1 1 35
M  V30 39 1 1 36
M  V30 40 1 4 37
M  V30 41 1 5 38
M  V30 42 1 9 39
M  V30 43 1 11 40
M  V30 44 1 12 41
M  V30 45 1 13 42
M  V30 46 1 15 43
M  V30 47 1 15 44
M  V30 48 1 16 45
M  V30 49 1 19 46
M  V30 50 1 24 47
M  V30 51 1 24 48
M  V30 52 1 26 49
M  V30 53 1 29 50
M  V30 54 1 31 51
M  V30 55 1 32 52
M  V30 56 1 33 53
M  V30 END BOND
M  V30 END CTAB
M  END
>  <Dataset>  (261) 
ChEMBL_Kinases

>  <Ligand_Instance>  (261) 
nan

>  <PDB_ID>  (261) 
nan

>  <Standardized_SMILES>  (261) 
COc1ccc(C(=O)Nc2cccc(CNc3ncnc4c(C(N)=O)cc(F)cc34)c2)cc1

>  <Name>  (261) 
nan

>  <Pocket>  (261) 
nan

>  <ATP_Site>  (261) 
nan

>  <Peripheral>  (261) 
nan

>  <Num_H_Atoms_ProtBoundConf>  (261) 
nan

>  <Num_Resolved_Atoms>  (261) 
nan

>  <Num_Not_Resolved_Atoms>  (261) 
nan

$$$$
CHEMBL3685236
     RDKit          3D

  0  0  0  0  0  0  0  0  0  0999 V3000
M  V30 BEGIN CTAB
M  V30 COUNTS 60 63 0 0 0
M  V30 BEGIN ATOM
M  V30 1 C -1.763142 -0.348108 5.406583 0
M  V30 2 C -2.087514 0.651089 4.327986 0 CFG=1
M  V30 3 N -0.889169 1.379637 3.953619 0
M  V30 4 C 0.389365 0.808269 3.692259 0
M  V30 5 N 0.611960 -0.490952 3.800443 0
M  V30 6 C 1.826607 -0.994208 3.565781 0
M  V30 7 N 2.884740 -0.212741 3.208733 0
M  V30 8 C 2.700099 1.128279 3.086150 0
M  V30 9 C 3.778967 1.902573 2.727278 0
M  V30 10 C 5.075012 1.337645 2.475540 0
M  V30 11 N 5.369233 -0.050825 2.563108 0
M  V30 12 O 6.075475 2.039916 2.150290 0
M  V30 13 C 3.624872 3.266581 2.597273 0
M  V30 14 C 2.369120 3.830599 2.834834 0
M  V30 15 C 1.350689 2.983892 3.187809 0
M  V30 16 C 1.435520 1.621897 3.334374 0
M  V30 17 C -2.842175 0.113421 3.194331 0
M  V30 18 C -4.242094 0.249068 3.150846 0
M  V30 19 C -5.131425 -0.178645 2.189288 0
M  V30 20 C -4.565565 -0.835532 1.112337 0
M  V30 21 C -3.200219 -1.022705 1.056035 0
M  V30 22 N -2.572727 -1.699340 -0.039876 0
M  V30 23 C -2.003089 -1.370103 -1.284213 0
M  V30 24 O -1.964663 -0.166760 -1.684444 0
M  V30 25 C -1.494659 -2.624679 -1.975846 0
M  V30 26 N -0.891205 -2.299448 -3.269866 0
M  V30 27 C -0.471695 -3.435638 -3.815997 0
M  V30 28 C 0.189832 -3.334370 -5.169172 0
M  V30 29 C 1.669316 -3.096457 -5.028635 0
M  V30 30 C -0.407242 -2.171376 -5.922902 0
M  V30 31 C -0.013521 -4.619273 -5.936912 0
M  V30 32 C -0.602224 -4.783873 -3.204184 0
M  V30 33 S -1.470143 -4.219076 -1.611265 0
M  V30 34 C -2.399934 -0.556586 2.068461 0
M  V30 35 H -0.709987 -0.168304 5.751640 0
M  V30 36 H -1.905086 -1.354589 4.955826 0
M  V30 37 H -2.389060 -0.239799 6.289316 0
M  V30 38 H -2.808811 1.375267 4.833624 0
M  V30 39 H -1.061590 2.399487 3.888478 0
M  V30 40 H 2.093290 -2.049182 3.630956 0
M  V30 41 H 5.002654 -1.012399 2.488665 0
M  V30 42 H 6.306184 -0.448879 2.789249 0
M  V30 43 H 4.474059 3.872156 2.315652 0
M  V30 44 H 2.269385 4.897880 2.727450 0
M  V30 45 H 0.422886 3.499159 3.349527 0
M  V30 46 H -4.731804 0.767191 3.993136 0
M  V30 47 H -6.180333 -0.014517 2.269398 0
M  V30 48 H -5.168395 -1.211729 0.301805 0
M  V30 49 H -2.658197 -2.667632 0.389086 0
M  V30 50 H 2.053625 -2.898221 -6.057854 0
M  V30 51 H 1.890915 -2.182015 -4.439321 0
M  V30 52 H 2.235555 -3.961833 -4.638144 0
M  V30 53 H -1.485339 -2.418003 -6.134458 0
M  V30 54 H 0.166281 -1.883626 -6.803946 0
M  V30 55 H -0.482855 -1.321860 -5.183809 0
M  V30 56 H -1.044923 -5.010010 -5.815871 0
M  V30 57 H 0.774587 -5.344529 -5.620901 0
M  V30 58 H 0.139333 -4.366358 -7.013928 0
M  V30 59 H -0.227033 -5.684126 -3.718894 0
M  V30 60 H -1.357069 -0.720663 1.978142 0
M  V30 END ATOM
M  V30 BEGIN BOND
M  V30 1 1 1 2
M  V30 2 1 2 3
M  V30 3 1 3 4
M  V30 4 2 4 5
M  V30 5 1 5 6
M  V30 6 2 6 7
M  V30 7 1 7 8
M  V30 8 2 8 9
M  V30 9 1 9 10
M  V30 10 1 10 11
M  V30 11 2 10 12
M  V30 12 1 9 13
M  V30 13 2 13 14
M  V30 14 1 14 15
M  V30 15 2 15 16
M  V30 16 1 2 17
M  V30 17 2 17 18
M  V30 18 1 18 19
M  V30 19 2 19 20
M  V30 20 1 20 21
M  V30 21 1 21 22
M  V30 22 1 22 23
M  V30 23 2 23 24
M  V30 24 1 23 25
M  V30 25 2 25 26
M  V30 26 1 26 27
M  V30 27 1 27 28
M  V30 28 1 28 29
M  V30 29 1 28 30
M  V30 30 1 28 31
M  V30 31 2 27 32
M  V30 32 1 32 33
M  V30 33 2 21 34
M  V30 34 1 16 4
M  V30 35 1 34 17
M  V30 36 1 16 8
M  V30 37 1 33 25
M  V30 38 1 1 35
M  V30 39 1 1 36
M  V30 40 1 1 37
M  V30 41 1 2 38 CFG=1
M  V30 42 1 3 39
M  V30 43 1 6 40
M  V30 44 1 11 41
M  V30 45 1 11 42
M  V30 46 1 13 43
M  V30 47 1 14 44
M  V30 48 1 15 45
M  V30 49 1 18 46
M  V30 50 1 19 47
M  V30 51 1 20 48
M  V30 52 1 22 49
M  V30 53 1 29 50
M  V30 54 1 29 51
M  V30 55 1 29 52
M  V30 56 1 30 53
M  V30 57 1 30 54
M  V30 58 1 30 55
M  V30 59 1 31 56
M  V30 60 1 31 57
M  V30 61 1 31 58
M  V30 62 1 32 59
M  V30 63 1 34 60
M  V30 END BOND
M  V30 END CTAB
M  END
>  <Dataset>  (262) 
ChEMBL_Kinases

>  <Ligand_Instance>  (262) 
nan

>  <PDB_ID>  (262) 
nan

>  <Standardized_SMILES>  (262) 
C[C@@H](Nc1ncnc2c(C(N)=O)cccc12)c1cccc(NC(=O)c2nc(C(C)(C)C)cs2)c1

>  <Name>  (262) 
nan

>  <Pocket>  (262) 
nan

>  <ATP_Site>  (262) 
nan

>  <Peripheral>  (262) 
nan

>  <Num_H_Atoms_ProtBoundConf>  (262) 
nan

>  <Num_Resolved_Atoms>  (262) 
nan

>  <Num_Not_Resolved_Atoms>  (262) 
nan

$$$$
CHEMBL3685235
     RDKit          3D

  0  0  0  0  0  0  0  0  0  0999 V3000
M  V30 BEGIN CTAB
M  V30 COUNTS 56 59 0 0 0
M  V30 BEGIN ATOM
M  V30 1 C 1.355915 0.605596 5.175630 0
M  V30 2 C 0.299430 -0.020251 4.291969 0 CFG=1
M  V30 3 N -0.182509 0.961776 3.304114 0
M  V30 4 C 0.770170 1.475599 2.392826 0
M  V30 5 N 2.052298 1.076236 2.438837 0
M  V30 6 C 3.022514 1.498278 1.625313 0
M  V30 7 N 2.695405 2.397577 0.679896 0
M  V30 8 C 1.431406 2.879234 0.530897 0
M  V30 9 C 1.185210 3.797892 -0.463337 0
M  V30 10 C 2.298750 4.214142 -1.319577 0
M  V30 11 N 1.949927 5.171432 -2.335223 0
M  V30 12 O 3.432726 3.738859 -1.128084 0
M  V30 13 C -0.104974 4.266437 -0.586048 0
M  V30 14 C -1.061106 3.790947 0.286477 0
M  V30 15 C -0.799208 2.863982 1.284439 0
M  V30 16 C 0.489629 2.394882 1.408314 0
M  V30 17 C 0.853283 -1.209623 3.589902 0
M  V30 18 C 2.036476 -1.874765 3.877784 0
M  V30 19 C 2.522143 -2.958565 3.205771 0
M  V30 20 C 1.754223 -3.410565 2.158634 0
M  V30 21 F 2.172419 -4.494994 1.430084 0
M  V30 22 C 0.562631 -2.850885 1.762382 0
M  V30 23 N -0.199704 -3.334229 0.678825 0
M  V30 24 C -1.209133 -4.266172 0.372509 0
M  V30 25 O -1.669036 -4.971657 1.309005 0
M  V30 26 C -1.704651 -4.407632 -0.989676 0
M  V30 27 C -2.648548 -5.398850 -1.138727 0
M  V30 28 C -3.185063 -5.602906 -2.413623 0
M  V30 29 C -2.780959 -4.833153 -3.494209 0
M  V30 30 O -3.214239 -4.915238 -4.794034 0
M  V30 31 C -4.306574 -4.195659 -5.313614 0
M  V30 32 F -4.545188 -4.444485 -6.628217 0
M  V30 33 F -3.982025 -2.837511 -5.196674 0
M  V30 34 F -5.380151 -4.384923 -4.476989 0
M  V30 35 C -1.814996 -3.847831 -3.244754 0
M  V30 36 C -1.249928 -3.600706 -2.008183 0
M  V30 37 C 0.162811 -1.756821 2.511845 0
M  V30 38 H 1.104597 1.663419 5.405730 0
M  V30 39 H 1.317847 0.071149 6.147138 0
M  V30 40 H 2.373606 0.531574 4.782656 0
M  V30 41 H -0.539712 -0.369964 4.920068 0
M  V30 42 H -1.189375 1.203987 3.353279 0
M  V30 43 H 4.017372 1.100682 1.764750 0
M  V30 44 H 1.117898 5.107706 -2.966596 0
M  V30 45 H 2.692535 5.915743 -2.296118 0
M  V30 46 H -0.280002 4.978089 -1.360709 0
M  V30 47 H -2.059430 4.219663 0.113936 0
M  V30 48 H -1.595073 2.538769 1.929475 0
M  V30 49 H 2.601639 -1.481228 4.709922 0
M  V30 50 H 3.457677 -3.408896 3.505895 0
M  V30 51 H 0.258219 -2.698715 -0.008629 0
M  V30 52 H -3.011987 -6.037496 -0.348239 0
M  V30 53 H -3.915586 -6.341116 -2.631963 0
M  V30 54 H -1.454145 -3.206151 -4.055443 0
M  V30 55 H -0.508794 -2.829974 -1.864041 0
M  V30 56 H -0.773156 -1.278554 2.237246 0
M  V30 END ATOM
M  V30 BEGIN BOND
M  V30 1 1 1 2
M  V30 2 1 2 3
M  V30 3 1 3 4
M  V30 4 2 4 5
M  V30 5 1 5 6
M  V30 6 2 6 7
M  V30 7 1 7 8
M  V30 8 2 8 9
M  V30 9 1 9 10
M  V30 10 1 10 11
M  V30 11 2 10 12
M  V30 12 1 9 13
M  V30 13 2 13 14
M  V30 14 1 14 15
M  V30 15 2 15 16
M  V30 16 1 2 17
M  V30 17 2 17 18
M  V30 18 1 18 19
M  V30 19 2 19 20
M  V30 20 1 20 21
M  V30 21 1 20 22
M  V30 22 1 22 23
M  V30 23 1 23 24
M  V30 24 2 24 25
M  V30 25 1 24 26
M  V30 26 2 26 27
M  V30 27 1 27 28
M  V30 28 2 28 29
M  V30 29 1 29 30
M  V30 30 1 30 31
M  V30 31 1 31 32
M  V30 32 1 31 33
M  V30 33 1 31 34
M  V30 34 1 29 35
M  V30 35 2 35 36
M  V30 36 2 22 37
M  V30 37 1 16 4
M  V30 38 1 37 17
M  V30 39 1 16 8
M  V30 40 1 36 26
M  V30 41 1 1 38
M  V30 42 1 1 39
M  V30 43 1 1 40
M  V30 44 1 2 41 CFG=1
M  V30 45 1 3 42
M  V30 46 1 6 43
M  V30 47 1 11 44
M  V30 48 1 11 45
M  V30 49 1 13 46
M  V30 50 1 14 47
M  V30 51 1 15 48
M  V30 52 1 18 49
M  V30 53 1 19 50
M  V30 54 1 23 51
M  V30 55 1 27 52
M  V30 56 1 28 53
M  V30 57 1 35 54
M  V30 58 1 36 55
M  V30 59 1 37 56
M  V30 END BOND
M  V30 END CTAB
M  END
>  <Dataset>  (263) 
ChEMBL_Kinases

>  <Ligand_Instance>  (263) 
nan

>  <PDB_ID>  (263) 
nan

>  <Standardized_SMILES>  (263) 
C[C@@H](Nc1ncnc2c(C(N)=O)cccc12)c1ccc(F)c(NC(=O)c2ccc(OC(F)(F)F)cc2)c1

>  <Name>  (263) 
nan

>  <Pocket>  (263) 
nan

>  <ATP_Site>  (263) 
nan

>  <Peripheral>  (263) 
nan

>  <Num_H_Atoms_ProtBoundConf>  (263) 
nan

>  <Num_Resolved_Atoms>  (263) 
nan

>  <Num_Not_Resolved_Atoms>  (263) 
nan

$$$$
CHEMBL3684983
     RDKit          3D

  0  0  0  0  0  0  0  0  0  0999 V3000
M  V30 BEGIN CTAB
M  V30 COUNTS 68 73 0 0 0
M  V30 BEGIN ATOM
M  V30 1 C 4.047677 2.402956 4.025951 0
M  V30 2 C 4.365178 1.633398 2.744361 0
M  V30 3 C 5.472269 0.677205 2.926263 0
M  V30 4 N 5.181013 -0.698216 2.687891 0
M  V30 5 C 6.257022 -1.533884 3.116951 0
M  V30 6 C 6.051255 -2.998489 2.912253 0
M  V30 7 O 7.222068 -3.626663 3.398682 0
M  V30 8 C 3.871593 -1.128896 3.029242 0
M  V30 9 C 2.913010 -0.278148 2.285013 0
M  V30 10 C 1.770632 -0.774546 1.712747 0
M  V30 11 C 0.944753 0.102594 1.041190 0
M  V30 12 C 1.174325 1.452156 0.895260 0
M  V30 13 N 0.343000 2.370895 0.207901 0
M  V30 14 C -0.875010 2.127031 -0.476055 0
M  V30 15 N -1.518515 3.159795 -1.047697 0
M  V30 16 C -2.660592 3.069780 -1.715718 0
M  V30 17 C -3.254273 1.844499 -1.850831 0
M  V30 18 C -4.419299 1.460500 -2.478497 0
M  V30 19 C -5.350543 2.213605 -3.170109 0
M  V30 20 C -6.417061 1.526099 -3.682564 0
M  V30 21 N -6.556336 0.197478 -3.525843 0
M  V30 22 C -5.623195 -0.490557 -2.844775 0
M  V30 23 C -4.505898 0.098634 -2.284478 0
M  V30 24 N -3.426299 -0.280583 -1.570485 0
M  V30 25 C -3.253503 -1.648081 -1.223407 0 CFG=1
M  V30 26 C -3.007322 -2.567926 -2.409617 0
M  V30 27 C -3.361678 -3.959155 -1.984993 0
M  V30 28 C -3.211726 -4.222992 -0.525328 0 CFG=2
M  V30 29 C -4.565824 -4.288588 0.181443 0
M  V30 30 C -2.229033 -3.372777 0.201131 0
M  V30 31 C -2.181888 -1.931080 -0.216285 0
M  V30 32 C -2.632030 0.762168 -1.283191 0
M  V30 33 N -1.477725 0.935150 -0.622611 0
M  V30 34 N 2.308653 1.871096 1.478922 0
M  V30 35 C 3.141095 1.073868 2.137761 0
M  V30 36 H 3.367212 1.813691 4.662128 0
M  V30 37 H 5.043640 2.572709 4.524659 0
M  V30 38 H 3.644317 3.404696 3.761659 0
M  V30 39 H 4.718895 2.426410 2.026360 0
M  V30 40 H 5.811328 0.746829 4.002097 0
M  V30 41 H 6.383898 0.939163 2.347398 0
M  V30 42 H 7.166657 -1.211243 2.573218 0
M  V30 43 H 6.460589 -1.308677 4.186615 0
M  V30 44 H 5.235470 -3.423964 3.512611 0
M  V30 45 H 6.012659 -3.239740 1.830417 0
M  V30 46 H 7.882536 -3.705442 2.659050 0
M  V30 47 H 3.723999 -0.948840 4.119251 0
M  V30 48 H 3.772665 -2.191612 2.809113 0
M  V30 49 H 1.523965 -1.828238 1.786711 0
M  V30 50 H 0.068161 -0.321197 0.613465 0
M  V30 51 H 0.680974 3.368179 0.208554 0
M  V30 52 H -3.096938 3.974762 -2.140003 0
M  V30 53 H -5.202833 3.296881 -3.277465 0
M  V30 54 H -7.156097 2.128114 -4.232340 0
M  V30 55 H -5.744567 -1.557718 -2.722358 0
M  V30 56 H -4.208831 -2.006965 -0.771152 0
M  V30 57 H -3.542721 -2.273017 -3.314837 0
M  V30 58 H -1.901327 -2.587757 -2.648024 0
M  V30 59 H -2.748975 -4.670448 -2.614948 0
M  V30 60 H -4.414568 -4.184436 -2.307845 0
M  V30 61 H -2.815113 -5.282622 -0.449972 0
M  V30 62 H -4.791814 -5.302141 0.579605 0
M  V30 63 H -5.364823 -4.091705 -0.588475 0
M  V30 64 H -4.662433 -3.560824 0.988241 0
M  V30 65 H -1.219388 -3.848243 0.160209 0
M  V30 66 H -2.519343 -3.434361 1.292313 0
M  V30 67 H -2.261639 -1.255082 0.635959 0
M  V30 68 H -1.198573 -1.796351 -0.747925 0
M  V30 END ATOM
M  V30 BEGIN BOND
M  V30 1 1 1 2
M  V30 2 1 2 3
M  V30 3 1 3 4
M  V30 4 1 4 5
M  V30 5 1 5 6
M  V30 6 1 6 7
M  V30 7 1 4 8
M  V30 8 1 8 9
M  V30 9 2 9 10
M  V30 10 1 10 11
M  V30 11 2 11 12
M  V30 12 1 12 13
M  V30 13 1 13 14
M  V30 14 2 14 15
M  V30 15 1 15 16
M  V30 16 2 16 17
M  V30 17 1 17 18
M  V30 18 2 18 19
M  V30 19 1 19 20
M  V30 20 2 20 21
M  V30 21 1 21 22
M  V30 22 2 22 23
M  V30 23 1 23 24
M  V30 24 1 24 25
M  V30 25 1 25 26
M  V30 26 1 26 27
M  V30 27 1 27 28
M  V30 28 1 28 29
M  V30 29 1 28 30
M  V30 30 1 30 31
M  V30 31 1 24 32
M  V30 32 2 32 33
M  V30 33 1 12 34
M  V30 34 2 34 35
M  V30 35 1 35 2
M  V30 36 1 35 9
M  V30 37 1 33 14
M  V30 38 1 32 17
M  V30 39 1 23 18
M  V30 40 1 31 25
M  V30 41 1 1 36
M  V30 42 1 1 37
M  V30 43 1 1 38
M  V30 44 1 2 39
M  V30 45 1 3 40
M  V30 46 1 3 41
M  V30 47 1 5 42
M  V30 48 1 5 43
M  V30 49 1 6 44
M  V30 50 1 6 45
M  V30 51 1 7 46
M  V30 52 1 8 47
M  V30 53 1 8 48
M  V30 54 1 10 49
M  V30 55 1 11 50
M  V30 56 1 13 51
M  V30 57 1 16 52
M  V30 58 1 19 53
M  V30 59 1 20 54
M  V30 60 1 22 55
M  V30 61 1 25 56 CFG=1
M  V30 62 1 26 57
M  V30 63 1 26 58
M  V30 64 1 27 59
M  V30 65 1 27 60
M  V30 66 1 28 61 CFG=3
M  V30 67 1 29 62
M  V30 68 1 29 63
M  V30 69 1 29 64
M  V30 70 1 30 65
M  V30 71 1 30 66
M  V30 72 1 31 67
M  V30 73 1 31 68
M  V30 END BOND
M  V30 END CTAB
M  END
>  <Dataset>  (264) 
ChEMBL_Kinases

>  <Ligand_Instance>  (264) 
nan

>  <PDB_ID>  (264) 
nan

>  <Standardized_SMILES>  (264) 
CC1CN(CCO)Cc2ccc(Nc3ncc4c5ccncc5n([C@H]5CC[C@H](C)CC5)c4n3)nc21

>  <Name>  (264) 
nan

>  <Pocket>  (264) 
nan

>  <ATP_Site>  (264) 
nan

>  <Peripheral>  (264) 
nan

>  <Num_H_Atoms_ProtBoundConf>  (264) 
nan

>  <Num_Resolved_Atoms>  (264) 
nan

>  <Num_Not_Resolved_Atoms>  (264) 
nan

$$$$
CHEMBL3684984
     RDKit          3D

  0  0  0  0  0  0  0  0  0  0999 V3000
M  V30 BEGIN CTAB
M  V30 COUNTS 59 64 0 0 0
M  V30 BEGIN ATOM
M  V30 1 C 4.933403 -1.232865 2.753191 0
M  V30 2 C 3.500435 -1.693167 2.642047 0 CFG=1
M  V30 3 C 2.565671 -0.866618 3.464934 0
M  V30 4 C 1.721120 0.059480 2.610840 0
M  V30 5 C 2.561996 0.615020 1.454676 0 CFG=2
M  V30 6 N 1.857809 1.697354 0.833179 0
M  V30 7 C 2.356473 2.906406 0.440965 0
M  V30 8 C 3.631377 3.431886 0.524766 0
M  V30 9 N 3.824975 4.670999 0.048743 0
M  V30 10 C 2.866120 5.434614 -0.502020 0
M  V30 11 C 1.569576 4.945755 -0.605776 0
M  V30 12 C 1.355245 3.670159 -0.119887 0
M  V30 13 C 0.233079 2.874852 -0.049853 0
M  V30 14 C -1.070326 3.042864 -0.422127 0
M  V30 15 N -1.999947 2.114119 -0.241186 0
M  V30 16 C -1.734002 0.909028 0.330514 0
M  V30 17 N -2.393646 -0.282560 0.714324 0
M  V30 18 C -2.839615 -1.346394 -0.107295 0
M  V30 19 C -2.777506 -1.365095 -1.476132 0
M  V30 20 C -3.159144 -2.375592 -2.306955 0
M  V30 21 C -3.661482 -3.498895 -1.703398 0
M  V30 22 C -3.748895 -3.537836 -0.306655 0
M  V30 23 N -3.345065 -2.481585 0.442255 0
M  V30 24 C -4.237282 -4.639468 0.588671 0
M  V30 25 O -3.174366 -5.193836 1.311774 0
M  V30 26 C -4.810050 -5.705192 -0.282739 0
M  V30 27 N -4.108698 -5.884256 -1.528581 0
M  V30 28 C -4.151248 -4.712688 -2.371152 0
M  V30 29 N -0.453227 0.771327 0.683445 0
M  V30 30 C 0.523865 1.678146 0.524948 0
M  V30 31 C 2.768787 -0.530189 0.514762 0
M  V30 32 C 3.030457 -1.827602 1.214091 0
M  V30 33 H 4.976688 -0.248553 3.281066 0
M  V30 34 H 5.560321 -1.914349 3.397249 0
M  V30 35 H 5.457104 -1.217368 1.769010 0
M  V30 36 H 3.480181 -2.737568 3.054601 0
M  V30 37 H 1.845226 -1.530331 3.981323 0
M  V30 38 H 3.112251 -0.300829 4.256649 0
M  V30 39 H 0.888534 -0.511396 2.143815 0
M  V30 40 H 1.415972 0.908751 3.224146 0
M  V30 41 H 3.540895 0.994574 1.795624 0
M  V30 42 H 4.461503 2.863707 0.961506 0
M  V30 43 H 3.102678 6.425737 -0.861489 0
M  V30 44 H 0.750851 5.535511 -1.050631 0
M  V30 45 H -1.414420 3.950711 -0.890789 0
M  V30 46 H -2.562944 -0.361352 1.750759 0
M  V30 47 H -2.376100 -0.460559 -1.930877 0
M  V30 48 H -3.104327 -2.378202 -3.380962 0
M  V30 49 H -5.004708 -4.272128 1.275280 0
M  V30 50 H -2.355492 -5.227404 0.742505 0
M  V30 51 H -5.898138 -5.547740 -0.452391 0
M  V30 52 H -4.742406 -6.684344 0.276103 0
M  V30 53 H -4.525772 -6.691004 -2.042766 0
M  V30 54 H -3.649763 -4.870502 -3.326746 0
M  V30 55 H -5.246344 -4.517296 -2.587716 0
M  V30 56 H 3.576585 -0.384210 -0.238076 0
M  V30 57 H 1.830983 -0.592732 -0.108282 0
M  V30 58 H 2.109078 -2.446523 1.221643 0
M  V30 59 H 3.804545 -2.447705 0.674623 0
M  V30 END ATOM
M  V30 BEGIN BOND
M  V30 1 1 1 2
M  V30 2 1 2 3
M  V30 3 1 3 4
M  V30 4 1 4 5
M  V30 5 1 5 6
M  V30 6 1 6 7
M  V30 7 2 7 8
M  V30 8 1 8 9
M  V30 9 2 9 10
M  V30 10 1 10 11
M  V30 11 2 11 12
M  V30 12 1 12 13
M  V30 13 2 13 14
M  V30 14 1 14 15
M  V30 15 2 15 16
M  V30 16 1 16 17
M  V30 17 1 17 18
M  V30 18 2 18 19
M  V30 19 1 19 20
M  V30 20 2 20 21
M  V30 21 1 21 22
M  V30 22 2 22 23
M  V30 23 1 22 24
M  V30 24 1 24 25
M  V30 25 1 24 26
M  V30 26 1 26 27
M  V30 27 1 27 28
M  V30 28 1 16 29
M  V30 29 2 29 30
M  V30 30 1 5 31
M  V30 31 1 31 32
M  V30 32 1 32 2
M  V30 33 1 30 6
M  V30 34 1 12 7
M  V30 35 1 30 13
M  V30 36 1 23 18
M  V30 37 1 28 21
M  V30 38 1 1 33
M  V30 39 1 1 34
M  V30 40 1 1 35
M  V30 41 1 2 36 CFG=1
M  V30 42 1 3 37
M  V30 43 1 3 38
M  V30 44 1 4 39
M  V30 45 1 4 40
M  V30 46 1 5 41 CFG=1
M  V30 47 1 8 42
M  V30 48 1 10 43
M  V30 49 1 11 44
M  V30 50 1 14 45
M  V30 51 1 17 46
M  V30 52 1 19 47
M  V30 53 1 20 48
M  V30 54 1 24 49
M  V30 55 1 25 50
M  V30 56 1 26 51
M  V30 57 1 26 52
M  V30 58 1 27 53
M  V30 59 1 28 54
M  V30 60 1 28 55
M  V30 61 1 31 56
M  V30 62 1 31 57
M  V30 63 1 32 58
M  V30 64 1 32 59
M  V30 END BOND
M  V30 END CTAB
M  END
>  <Dataset>  (265) 
ChEMBL_Kinases

>  <Ligand_Instance>  (265) 
nan

>  <PDB_ID>  (265) 
nan

>  <Standardized_SMILES>  (265) 
C[C@H]1CC[C@H](n2c3cnccc3c3cnc(Nc4ccc5c(n4)C(O)CNC5)nc32)CC1

>  <Name>  (265) 
nan

>  <Pocket>  (265) 
nan

>  <ATP_Site>  (265) 
nan

>  <Peripheral>  (265) 
nan

>  <Num_H_Atoms_ProtBoundConf>  (265) 
nan

>  <Num_Resolved_Atoms>  (265) 
nan

>  <Num_Not_Resolved_Atoms>  (265) 
nan

$$$$
CHEMBL3684985
     RDKit          3D

  0  0  0  0  0  0  0  0  0  0999 V3000
M  V30 BEGIN CTAB
M  V30 COUNTS 66 71 0 0 0
M  V30 BEGIN ATOM
M  V30 1 C 1.976163 0.216763 4.171594 0
M  V30 2 C 3.078072 0.738542 3.268072 0 CFG=1
M  V30 3 C 3.279587 -0.161912 2.059107 0
M  V30 4 C 3.452451 0.770405 0.845475 0
M  V30 5 C 2.166638 1.474092 0.668917 0 CFG=2
M  V30 6 N 1.875710 1.986022 -0.643032 0
M  V30 7 C 2.636419 2.926986 -1.267808 0
M  V30 8 C 3.774340 3.658605 -1.000893 0
M  V30 9 N 4.288393 4.545207 -1.869275 0
M  V30 10 C 3.752614 4.803927 -3.067775 0
M  V30 11 C 2.601368 4.107463 -3.415749 0
M  V30 12 C 2.082517 3.203690 -2.523406 0
M  V30 13 C 0.974042 2.404092 -2.629549 0
M  V30 14 C -0.001393 2.179400 -3.575478 0
M  V30 15 N -0.963647 1.286671 -3.315175 0
M  V30 16 C -1.075228 0.565321 -2.186184 0
M  V30 17 N -2.142394 -0.352570 -2.027389 0
M  V30 18 C -2.439529 -1.191684 -0.947723 0
M  V30 19 C -1.715955 -1.282490 0.212247 0
M  V30 20 C -2.020529 -2.120090 1.277221 0
M  V30 21 C -3.127095 -2.920978 1.169791 0
M  V30 22 C -3.846152 -2.819176 -0.003394 0
M  V30 23 N -3.493254 -1.995734 -0.976478 0
M  V30 24 C -5.050979 -3.699034 -0.106281 0
M  V30 25 O -5.408747 -3.744661 -1.452141 0
M  V30 26 C -4.802406 -5.052361 0.467920 0
M  V30 27 N -3.835269 -5.126971 1.512451 0
M  V30 28 C -2.616082 -5.674883 0.950669 0
M  V30 29 C -1.505840 -5.813550 1.949995 0
M  V30 30 O -1.821383 -6.643018 3.007513 0
M  V30 31 C -3.621545 -3.882010 2.190743 0
M  V30 32 N -0.127788 0.781645 -1.263921 0
M  V30 33 C 0.849310 1.666696 -1.490149 0
M  V30 34 C 2.021320 2.489928 1.777496 0
M  V30 35 C 2.924398 2.182179 2.931469 0
M  V30 36 H 1.253856 -0.369472 3.537401 0
M  V30 37 H 2.366217 -0.520452 4.907014 0
M  V30 38 H 1.467208 1.006183 4.735376 0
M  V30 39 H 4.021712 0.641666 3.880394 0
M  V30 40 H 4.235402 -0.740294 2.113104 0
M  V30 41 H 2.418361 -0.827968 1.957542 0
M  V30 42 H 4.237236 1.461845 1.218192 0
M  V30 43 H 3.779264 0.154780 -0.012640 0
M  V30 44 H 1.356583 0.714826 0.886062 0
M  V30 45 H 4.257117 3.496128 -0.047246 0
M  V30 46 H 4.148095 5.511720 -3.781398 0
M  V30 47 H 2.119363 4.274790 -4.377572 0
M  V30 48 H 0.019491 2.722495 -4.512318 0
M  V30 49 H -2.812384 -0.406384 -2.854678 0
M  V30 50 H -0.844350 -0.692295 0.369297 0
M  V30 51 H -1.449065 -2.186368 2.183901 0
M  V30 52 H -5.861226 -3.192178 0.486591 0
M  V30 53 H -5.636277 -4.690768 -1.662682 0
M  V30 54 H -5.752914 -5.502570 0.870567 0
M  V30 55 H -4.525160 -5.713199 -0.400673 0
M  V30 56 H -2.855721 -6.695231 0.582423 0
M  V30 57 H -2.275205 -5.105475 0.087405 0
M  V30 58 H -0.636583 -6.227072 1.425352 0
M  V30 59 H -1.183279 -4.833473 2.365024 0
M  V30 60 H -2.474819 -6.262045 3.642394 0
M  V30 61 H -2.952226 -3.991024 3.038903 0
M  V30 62 H -4.645071 -3.505210 2.465939 0
M  V30 63 H 2.314100 3.479369 1.354616 0
M  V30 64 H 0.959976 2.611783 2.075008 0
M  V30 65 H 2.451927 2.660054 3.835078 0
M  V30 66 H 3.937025 2.645023 2.849984 0
M  V30 END ATOM
M  V30 BEGIN BOND
M  V30 1 1 1 2
M  V30 2 1 2 3
M  V30 3 1 3 4
M  V30 4 1 4 5
M  V30 5 1 5 6
M  V30 6 1 6 7
M  V30 7 2 7 8
M  V30 8 1 8 9
M  V30 9 2 9 10
M  V30 10 1 10 11
M  V30 11 2 11 12
M  V30 12 1 12 13
M  V30 13 2 13 14
M  V30 14 1 14 15
M  V30 15 2 15 16
M  V30 16 1 16 17
M  V30 17 1 17 18
M  V30 18 2 18 19
M  V30 19 1 19 20
M  V30 20 2 20 21
M  V30 21 1 21 22
M  V30 22 2 22 23
M  V30 23 1 22 24
M  V30 24 1 24 25
M  V30 25 1 24 26
M  V30 26 1 26 27
M  V30 27 1 27 28
M  V30 28 1 28 29
M  V30 29 1 29 30
M  V30 30 1 27 31
M  V30 31 1 16 32
M  V30 32 2 32 33
M  V30 33 1 5 34
M  V30 34 1 34 35
M  V30 35 1 35 2
M  V30 36 1 33 6
M  V30 37 1 12 7
M  V30 38 1 33 13
M  V30 39 1 23 18
M  V30 40 1 31 21
M  V30 41 1 1 36
M  V30 42 1 1 37
M  V30 43 1 1 38
M  V30 44 1 2 39 CFG=1
M  V30 45 1 3 40
M  V30 46 1 3 41
M  V30 47 1 4 42
M  V30 48 1 4 43
M  V30 49 1 5 44 CFG=1
M  V30 50 1 8 45
M  V30 51 1 10 46
M  V30 52 1 11 47
M  V30 53 1 14 48
M  V30 54 1 17 49
M  V30 55 1 19 50
M  V30 56 1 20 51
M  V30 57 1 24 52
M  V30 58 1 25 53
M  V30 59 1 26 54
M  V30 60 1 26 55
M  V30 61 1 28 56
M  V30 62 1 28 57
M  V30 63 1 29 58
M  V30 64 1 29 59
M  V30 65 1 30 60
M  V30 66 1 31 61
M  V30 67 1 31 62
M  V30 68 1 34 63
M  V30 69 1 34 64
M  V30 70 1 35 65
M  V30 71 1 35 66
M  V30 END BOND
M  V30 END CTAB
M  END
>  <Dataset>  (266) 
ChEMBL_Kinases

>  <Ligand_Instance>  (266) 
nan

>  <PDB_ID>  (266) 
nan

>  <Standardized_SMILES>  (266) 
C[C@H]1CC[C@H](n2c3cnccc3c3cnc(Nc4ccc5c(n4)C(O)CN(CCO)C5)nc32)CC1

>  <Name>  (266) 
nan

>  <Pocket>  (266) 
nan

>  <ATP_Site>  (266) 
nan

>  <Peripheral>  (266) 
nan

>  <Num_H_Atoms_ProtBoundConf>  (266) 
nan

>  <Num_Resolved_Atoms>  (266) 
nan

>  <Num_Not_Resolved_Atoms>  (266) 
nan

$$$$
CHEMBL3684986
     RDKit          3D

  0  0  0  0  0  0  0  0  0  0999 V3000
M  V30 BEGIN CTAB
M  V30 COUNTS 66 71 0 0 0
M  V30 BEGIN ATOM
M  V30 1 C 2.000155 -2.514228 4.821638 0
M  V30 2 C 3.188978 -2.360170 3.926426 0
M  V30 3 O 4.007969 -3.140544 3.374515 0
M  V30 4 N 3.505858 -0.994669 3.591533 0
M  V30 5 C 4.645316 -0.642072 2.728025 0
M  V30 6 C 4.042234 -0.211772 1.438184 0
M  V30 7 C 4.577401 -0.357438 0.190027 0
M  V30 8 C 3.843164 0.096299 -0.884387 0
M  V30 9 C 2.602726 0.686334 -0.762848 0
M  V30 10 N 1.871767 1.128408 -1.906342 0
M  V30 11 C 0.585962 1.688252 -1.667012 0
M  V30 12 N 0.028010 2.916671 -1.561422 0
M  V30 13 C -1.295333 3.055200 -1.302472 0
M  V30 14 C -2.116420 1.986746 -1.137711 0
M  V30 15 C -3.459159 1.852163 -0.870348 0
M  V30 16 C -4.453850 2.788752 -0.677165 0
M  V30 17 C -5.748950 2.336447 -0.417326 0
M  V30 18 N -5.932100 0.995529 -0.374728 0
M  V30 19 C -4.975935 0.089691 -0.560807 0
M  V30 20 C -3.683040 0.490384 -0.819544 0
M  V30 21 N -2.555548 -0.199954 -1.039802 0
M  V30 22 C -2.353823 -1.623756 -1.066894 0 CFG=1
M  V30 23 C -0.960105 -1.927773 -1.637404 0
M  V30 24 C -0.751217 -3.407491 -1.814998 0
M  V30 25 C -1.791933 -4.247835 -1.154707 0 CFG=2
M  V30 26 C -2.960234 -4.557578 -2.067363 0
M  V30 27 C -2.278282 -3.754999 0.164898 0
M  V30 28 C -2.367992 -2.268902 0.292401 0
M  V30 29 C -1.567798 0.727189 -1.241169 0
M  V30 30 N -0.254755 0.660849 -1.499097 0
M  V30 31 N 2.139021 0.798302 0.494340 0
M  V30 32 C 2.807092 0.376140 1.579423 0
M  V30 33 C 2.006087 0.666330 2.822884 0 CFG=2
M  V30 34 C 1.845963 2.172670 2.897093 0
M  V30 35 C 2.739522 0.166783 4.063893 0
M  V30 36 H 1.833468 -3.598498 4.995718 0
M  V30 37 H 2.173979 -2.048098 5.812686 0
M  V30 38 H 1.093390 -2.080796 4.332887 0
M  V30 39 H 5.318740 -1.514162 2.601967 0
M  V30 40 H 5.125919 0.234180 3.191676 0
M  V30 41 H 5.543554 -0.820981 0.132079 0
M  V30 42 H 4.251094 -0.010202 -1.877128 0
M  V30 43 H 2.309145 1.022725 -2.845737 0
M  V30 44 H -1.628617 4.077514 -1.240613 0
M  V30 45 H -4.293412 3.841409 -0.714480 0
M  V30 46 H -6.616748 2.967230 -0.247453 0
M  V30 47 H -5.172567 -0.972519 -0.517703 0
M  V30 48 H -3.093005 -2.037910 -1.771016 0
M  V30 49 H -0.777967 -1.396327 -2.588122 0
M  V30 50 H -0.231972 -1.609250 -0.839636 0
M  V30 51 H 0.246225 -3.726011 -1.452281 0
M  V30 52 H -0.768401 -3.656044 -2.911148 0
M  V30 53 H -1.314129 -5.253527 -0.949437 0
M  V30 54 H -2.815534 -4.051179 -3.052014 0
M  V30 55 H -3.941662 -4.288912 -1.603423 0
M  V30 56 H -3.052747 -5.635172 -2.314665 0
M  V30 57 H -3.262730 -4.258417 0.376136 0
M  V30 58 H -1.611121 -4.140473 0.990209 0
M  V30 59 H -1.439303 -1.899732 0.819358 0
M  V30 60 H -3.204464 -1.946035 0.942037 0
M  V30 61 H 1.003397 0.219240 2.783554 0
M  V30 62 H 0.828667 2.481084 3.210732 0
M  V30 63 H 2.072013 2.628813 1.922070 0
M  V30 64 H 2.612889 2.536857 3.638751 0
M  V30 65 H 1.999256 -0.085465 4.827252 0
M  V30 66 H 3.438675 0.976396 4.343246 0
M  V30 END ATOM
M  V30 BEGIN BOND
M  V30 1 1 1 2
M  V30 2 2 2 3
M  V30 3 1 2 4
M  V30 4 1 4 5
M  V30 5 1 5 6
M  V30 6 2 6 7
M  V30 7 1 7 8
M  V30 8 2 8 9
M  V30 9 1 9 10
M  V30 10 1 10 11
M  V30 11 2 11 12
M  V30 12 1 12 13
M  V30 13 2 13 14
M  V30 14 1 14 15
M  V30 15 2 15 16
M  V30 16 1 16 17
M  V30 17 2 17 18
M  V30 18 1 18 19
M  V30 19 2 19 20
M  V30 20 1 20 21
M  V30 21 1 21 22
M  V30 22 1 22 23
M  V30 23 1 23 24
M  V30 24 1 24 25
M  V30 25 1 25 26
M  V30 26 1 25 27
M  V30 27 1 27 28
M  V30 28 1 21 29
M  V30 29 2 29 30
M  V30 30 1 9 31
M  V30 31 2 31 32
M  V30 32 1 32 33
M  V30 33 1 33 34
M  V30 34 1 33 35
M  V30 35 1 35 4
M  V30 36 1 32 6
M  V30 37 1 30 11
M  V30 38 1 29 14
M  V30 39 1 20 15
M  V30 40 1 28 22
M  V30 41 1 1 36
M  V30 42 1 1 37
M  V30 43 1 1 38
M  V30 44 1 5 39
M  V30 45 1 5 40
M  V30 46 1 7 41
M  V30 47 1 8 42
M  V30 48 1 10 43
M  V30 49 1 13 44
M  V30 50 1 16 45
M  V30 51 1 17 46
M  V30 52 1 19 47
M  V30 53 1 22 48 CFG=3
M  V30 54 1 23 49
M  V30 55 1 23 50
M  V30 56 1 24 51
M  V30 57 1 24 52
M  V30 58 1 25 53 CFG=1
M  V30 59 1 26 54
M  V30 60 1 26 55
M  V30 61 1 26 56
M  V30 62 1 27 57
M  V30 63 1 27 58
M  V30 64 1 28 59
M  V30 65 1 28 60
M  V30 66 1 33 61 CFG=3
M  V30 67 1 34 62
M  V30 68 1 34 63
M  V30 69 1 34 64
M  V30 70 1 35 65
M  V30 71 1 35 66
M  V30 END BOND
M  V30 END CTAB
M  END
>  <Dataset>  (267) 
ChEMBL_Kinases

>  <Ligand_Instance>  (267) 
nan

>  <PDB_ID>  (267) 
nan

>  <Standardized_SMILES>  (267) 
CC(=O)N1Cc2ccc(Nc3ncc4c5ccncc5n([C@H]5CC[C@H](C)CC5)c4n3)nc2[C@H](C)C1

>  <Name>  (267) 
nan

>  <Pocket>  (267) 
nan

>  <ATP_Site>  (267) 
nan

>  <Peripheral>  (267) 
nan

>  <Num_H_Atoms_ProtBoundConf>  (267) 
nan

>  <Num_Resolved_Atoms>  (267) 
nan

>  <Num_Not_Resolved_Atoms>  (267) 
nan

$$$$
CHEMBL3684987
     RDKit          3D

  0  0  0  0  0  0  0  0  0  0999 V3000
M  V30 BEGIN CTAB
M  V30 COUNTS 62 67 0 0 0
M  V30 BEGIN ATOM
M  V30 1 C -8.155276 0.629734 1.712724 0
M  V30 2 O -7.158347 -0.187930 1.114962 0
M  V30 3 C -5.817324 0.136632 1.274960 0
M  V30 4 C -4.860922 -0.674498 0.683421 0
M  V30 5 C -3.518102 -0.396968 0.811507 0
M  V30 6 C -2.409601 -1.030750 0.333242 0
M  V30 7 C -2.138492 -2.128847 -0.422012 0
M  V30 8 N -0.883506 -2.480712 -0.715983 0
M  V30 9 C 0.191804 -1.799665 -0.302884 0
M  V30 10 N 1.549195 -2.107765 -0.571791 0
M  V30 11 C 2.052737 -3.190847 -1.327163 0
M  V30 12 C 1.311852 -4.166358 -1.954223 0
M  V30 13 C 1.833650 -5.212084 -2.685260 0
M  V30 14 C 3.180869 -5.322724 -2.820376 0
M  V30 15 C 3.916206 -4.345540 -2.191936 0
M  V30 16 N 3.371266 -3.341260 -1.487909 0
M  V30 17 C 5.396834 -4.357176 -2.266190 0
M  V30 18 C 5.926489 -5.443338 -3.154990 0
M  V30 19 N 5.108822 -6.629591 -3.164660 0
M  V30 20 C 3.760528 -6.431847 -3.596984 0
M  V30 21 N -0.102247 -0.732310 0.432585 0
M  V30 22 C -1.325965 -0.310982 0.772178 0
M  V30 23 N -1.709789 0.767163 1.518951 0
M  V30 24 C -0.901634 1.768105 2.160447 0 CFG=1
M  V30 25 C -1.064057 3.153379 1.630765 0
M  V30 26 C -0.715335 4.164239 2.671471 0
M  V30 27 C 0.400062 3.773186 3.593100 0 CFG=2
M  V30 28 C 1.775899 4.012260 2.993556 0
M  V30 29 C 0.280470 2.398445 4.176101 0
M  V30 30 C -1.011261 1.776827 3.668402 0
M  V30 31 C -3.058377 0.700628 1.533916 0
M  V30 32 C -4.058411 1.474313 2.102054 0
M  V30 33 N -5.375378 1.200801 1.975539 0
M  V30 34 H -9.034310 0.048766 2.064529 0
M  V30 35 H -7.756565 1.180110 2.595942 0
M  V30 36 H -8.487554 1.411801 0.978888 0
M  V30 37 H -5.166725 -1.540707 0.110758 0
M  V30 38 H -2.984877 -2.724934 -0.787786 0
M  V30 39 H 2.270239 -1.458327 -0.164363 0
M  V30 40 H 0.235992 -4.138394 -1.887185 0
M  V30 41 H 1.180929 -5.946293 -3.152955 0
M  V30 42 H 5.740977 -3.385015 -2.675578 0
M  V30 43 H 5.782270 -4.416582 -1.224699 0
M  V30 44 H 6.093554 -5.102799 -4.199706 0
M  V30 45 H 6.918661 -5.751114 -2.761198 0
M  V30 46 H 5.579753 -7.291370 -3.841305 0
M  V30 47 H 3.675455 -6.177017 -4.681596 0
M  V30 48 H 3.226450 -7.381557 -3.475897 0
M  V30 49 H 0.167315 1.487848 1.936134 0
M  V30 50 H -0.421046 3.288834 0.713083 0
M  V30 51 H -2.104285 3.338038 1.292932 0
M  V30 52 H -0.346748 5.079570 2.126863 0
M  V30 53 H -1.592095 4.519440 3.265542 0
M  V30 54 H 0.346969 4.487763 4.466804 0
M  V30 55 H 2.119879 5.064525 3.158438 0
M  V30 56 H 1.788348 3.830932 1.916002 0
M  V30 57 H 2.483913 3.332514 3.521048 0
M  V30 58 H 0.351691 2.376143 5.271257 0
M  V30 59 H 1.153184 1.799810 3.801210 0
M  V30 60 H -1.209399 0.778745 4.095680 0
M  V30 61 H -1.811443 2.461123 4.046191 0
M  V30 62 H -3.794370 2.341387 2.677154 0
M  V30 END ATOM
M  V30 BEGIN BOND
M  V30 1 1 1 2
M  V30 2 1 2 3
M  V30 3 2 3 4
M  V30 4 1 4 5
M  V30 5 1 5 6
M  V30 6 2 6 7
M  V30 7 1 7 8
M  V30 8 2 8 9
M  V30 9 1 9 10
M  V30 10 1 10 11
M  V30 11 2 11 12
M  V30 12 1 12 13
M  V30 13 2 13 14
M  V30 14 1 14 15
M  V30 15 2 15 16
M  V30 16 1 15 17
M  V30 17 1 17 18
M  V30 18 1 18 19
M  V30 19 1 19 20
M  V30 20 1 9 21
M  V30 21 2 21 22
M  V30 22 1 22 23
M  V30 23 1 23 24
M  V30 24 1 24 25
M  V30 25 1 25 26
M  V30 26 1 26 27
M  V30 27 1 27 28
M  V30 28 1 27 29
M  V30 29 1 29 30
M  V30 30 1 23 31
M  V30 31 1 31 32
M  V30 32 2 32 33
M  V30 33 1 33 3
M  V30 34 2 31 5
M  V30 35 1 22 6
M  V30 36 1 30 24
M  V30 37 1 16 11
M  V30 38 1 20 14
M  V30 39 1 1 34
M  V30 40 1 1 35
M  V30 41 1 1 36
M  V30 42 1 4 37
M  V30 43 1 7 38
M  V30 44 1 10 39
M  V30 45 1 12 40
M  V30 46 1 13 41
M  V30 47 1 17 42
M  V30 48 1 17 43
M  V30 49 1 18 44
M  V30 50 1 18 45
M  V30 51 1 19 46
M  V30 52 1 20 47
M  V30 53 1 20 48
M  V30 54 1 24 49 CFG=1
M  V30 55 1 25 50
M  V30 56 1 25 51
M  V30 57 1 26 52
M  V30 58 1 26 53
M  V30 59 1 27 54 CFG=1
M  V30 60 1 28 55
M  V30 61 1 28 56
M  V30 62 1 28 57
M  V30 63 1 29 58
M  V30 64 1 29 59
M  V30 65 1 30 60
M  V30 66 1 30 61
M  V30 67 1 32 62
M  V30 END BOND
M  V30 END CTAB
M  END
>  <Dataset>  (268) 
ChEMBL_Kinases

>  <Ligand_Instance>  (268) 
nan

>  <PDB_ID>  (268) 
nan

>  <Standardized_SMILES>  (268) 
COc1cc2c3cnc(Nc4ccc5c(n4)CCNC5)nc3n([C@H]3CC[C@H](C)CC3)c2cn1

>  <Name>  (268) 
nan

>  <Pocket>  (268) 
nan

>  <ATP_Site>  (268) 
nan

>  <Peripheral>  (268) 
nan

>  <Num_H_Atoms_ProtBoundConf>  (268) 
nan

>  <Num_Resolved_Atoms>  (268) 
nan

>  <Num_Not_Resolved_Atoms>  (268) 
nan

$$$$
CHEMBL3684988
     RDKit          3D

  0  0  0  0  0  0  0  0  0  0999 V3000
M  V30 BEGIN CTAB
M  V30 COUNTS 68 73 0 0 0
M  V30 BEGIN ATOM
M  V30 1 C 4.864238 -5.059446 5.538737 0
M  V30 2 O 4.996565 -3.735845 5.024883 0
M  V30 3 C 4.151783 -3.380686 3.957103 0
M  V30 4 C 4.271498 -2.098837 3.452221 0
M  V30 5 C 3.445209 -1.745269 2.405575 0
M  V30 6 C 3.360549 -0.555316 1.731885 0
M  V30 7 C 3.947419 0.688205 1.746768 0
M  V30 8 N 3.588441 1.674941 0.889298 0
M  V30 9 C 2.622721 1.465254 -0.027315 0
M  V30 10 N 2.100770 2.371184 -0.990344 0
M  V30 11 C 0.713790 2.751778 -0.857847 0
M  V30 12 C 0.146848 3.657989 -1.761807 0
M  V30 13 C -1.184455 3.979434 -1.609421 0
M  V30 14 C -1.942209 3.438856 -0.611059 0
M  V30 15 C -1.350401 2.550170 0.261278 0
M  V30 16 N -0.052235 2.232518 0.117797 0
M  V30 17 C -2.032696 1.867063 1.401622 0
M  V30 18 C -3.495939 1.654237 1.179554 0
M  V30 19 N -3.981545 2.372943 0.025961 0
M  V30 20 C -5.012571 1.805921 -0.754156 0
M  V30 21 O -5.214914 0.711539 -0.141379 0
M  V30 22 C -6.090976 1.209374 -1.567415 0
M  V30 23 O -6.436535 -0.024248 -1.032204 0
M  V30 24 C -3.381654 3.671653 -0.306084 0
M  V30 25 N 2.055673 0.256805 -0.038935 0
M  V30 26 C 2.377138 -0.758042 0.793266 0
M  V30 27 N 1.831592 -2.013225 0.835081 0
M  V30 28 C 0.798468 -2.532439 0.012066 0 CFG=1
M  V30 29 C 1.194256 -3.634892 -0.928391 0
M  V30 30 C 0.083949 -3.899706 -1.903440 0
M  V30 31 C -1.195458 -3.164195 -1.664552 0 CFG=2
M  V30 32 C -1.285534 -1.881234 -2.462808 0
M  V30 33 C -1.582611 -2.921763 -0.245916 0
M  V30 34 C -0.437486 -2.997174 0.732461 0
M  V30 35 C 2.516739 -2.584699 1.838626 0
M  V30 36 C 2.450064 -3.864041 2.397614 0
M  V30 37 N 3.246554 -4.259799 3.433503 0
M  V30 38 H 4.922850 -5.819197 4.734795 0
M  V30 39 H 5.548908 -5.231179 6.374435 0
M  V30 40 H 3.812818 -5.101899 5.928887 0
M  V30 41 H 4.983202 -1.386909 3.851805 0
M  V30 42 H 4.715300 0.866254 2.469270 0
M  V30 43 H 2.646521 2.766682 -1.767223 0
M  V30 44 H 0.723228 4.099423 -2.559635 0
M  V30 45 H -1.717793 4.668979 -2.255411 0
M  V30 46 H -1.902016 2.487162 2.323583 0
M  V30 47 H -1.552813 0.892328 1.625817 0
M  V30 48 H -4.090183 2.026030 2.047830 0
M  V30 49 H -3.758407 0.578067 1.084451 0
M  V30 50 H -6.983511 1.900409 -1.611479 0
M  V30 51 H -5.771440 1.080319 -2.628587 0
M  V30 52 H -5.743731 -0.667874 -1.355119 0
M  V30 53 H -3.894314 4.055439 -1.206915 0
M  V30 54 H -3.544699 4.321601 0.566382 0
M  V30 55 H 0.448723 -1.702378 -0.673176 0
M  V30 56 H 2.136718 -3.302374 -1.430661 0
M  V30 57 H 1.455175 -4.590119 -0.431120 0
M  V30 58 H -0.093925 -4.993801 -2.028470 0
M  V30 59 H 0.445299 -3.545229 -2.898542 0
M  V30 60 H -2.020323 -3.822887 -2.075459 0
M  V30 61 H -2.013806 -1.942812 -3.310857 0
M  V30 62 H -1.697284 -1.079098 -1.806594 0
M  V30 63 H -0.332001 -1.581154 -2.936626 0
M  V30 64 H -2.005172 -1.876532 -0.149002 0
M  V30 65 H -2.390002 -3.584147 0.131350 0
M  V30 66 H -0.594032 -2.327780 1.605669 0
M  V30 67 H -0.387885 -4.058963 1.042315 0
M  V30 68 H 1.750325 -4.558233 2.000824 0
M  V30 END ATOM
M  V30 BEGIN BOND
M  V30 1 1 1 2
M  V30 2 1 2 3
M  V30 3 2 3 4
M  V30 4 1 4 5
M  V30 5 1 5 6
M  V30 6 2 6 7
M  V30 7 1 7 8
M  V30 8 2 8 9
M  V30 9 1 9 10
M  V30 10 1 10 11
M  V30 11 2 11 12
M  V30 12 1 12 13
M  V30 13 2 13 14
M  V30 14 1 14 15
M  V30 15 2 15 16
M  V30 16 1 15 17
M  V30 17 1 17 18
M  V30 18 1 18 19
M  V30 19 1 19 20
M  V30 20 2 20 21
M  V30 21 1 20 22
M  V30 22 1 22 23
M  V30 23 1 19 24
M  V30 24 1 9 25
M  V30 25 2 25 26
M  V30 26 1 26 27
M  V30 27 1 27 28
M  V30 28 1 28 29
M  V30 29 1 29 30
M  V30 30 1 30 31
M  V30 31 1 31 32
M  V30 32 1 31 33
M  V30 33 1 33 34
M  V30 34 1 27 35
M  V30 35 1 35 36
M  V30 36 2 36 37
M  V30 37 1 37 3
M  V30 38 2 35 5
M  V30 39 1 26 6
M  V30 40 1 34 28
M  V30 41 1 16 11
M  V30 42 1 24 14
M  V30 43 1 1 38
M  V30 44 1 1 39
M  V30 45 1 1 40
M  V30 46 1 4 41
M  V30 47 1 7 42
M  V30 48 1 10 43
M  V30 49 1 12 44
M  V30 50 1 13 45
M  V30 51 1 17 46
M  V30 52 1 17 47
M  V30 53 1 18 48
M  V30 54 1 18 49
M  V30 55 1 22 50
M  V30 56 1 22 51
M  V30 57 1 23 52
M  V30 58 1 24 53
M  V30 59 1 24 54
M  V30 60 1 28 55 CFG=3
M  V30 61 1 29 56
M  V30 62 1 29 57
M  V30 63 1 30 58
M  V30 64 1 30 59
M  V30 65 1 31 60 CFG=3
M  V30 66 1 32 61
M  V30 67 1 32 62
M  V30 68 1 32 63
M  V30 69 1 33 64
M  V30 70 1 33 65
M  V30 71 1 34 66
M  V30 72 1 34 67
M  V30 73 1 36 68
M  V30 END BOND
M  V30 END CTAB
M  END
>  <Dataset>  (269) 
ChEMBL_Kinases

>  <Ligand_Instance>  (269) 
nan

>  <PDB_ID>  (269) 
nan

>  <Standardized_SMILES>  (269) 
COc1cc2c3cnc(Nc4ccc5c(n4)CCN(C(=O)CO)C5)nc3n([C@H]3CC[C@H](C)CC3)c2cn1

>  <Name>  (269) 
nan

>  <Pocket>  (269) 
nan

>  <ATP_Site>  (269) 
nan

>  <Peripheral>  (269) 
nan

>  <Num_H_Atoms_ProtBoundConf>  (269) 
nan

>  <Num_Resolved_Atoms>  (269) 
nan

>  <Num_Not_Resolved_Atoms>  (269) 
nan

$$$$
CHEMBL3684989
     RDKit          3D

  0  0  0  0  0  0  0  0  0  0999 V3000
M  V30 BEGIN CTAB
M  V30 COUNTS 58 63 0 0 0
M  V30 BEGIN ATOM
M  V30 1 O 5.082653 -5.581167 0.979926 0
M  V30 2 C 5.641598 -4.465540 1.254243 0
M  V30 3 C 6.713568 -4.825443 2.190391 0
M  V30 4 O 7.424745 -3.703062 2.590840 0
M  V30 5 N 5.186414 -3.234938 0.680207 0
M  V30 6 C 5.818867 -1.963126 0.983623 0
M  V30 7 C 5.391834 -0.969879 -0.075054 0
M  V30 8 C 3.907438 -0.908750 -0.045320 0
M  V30 9 N 3.280281 0.271823 0.046990 0
M  V30 10 C 1.956157 0.417002 0.078390 0
M  V30 11 N 1.361820 1.700715 0.177539 0
M  V30 12 C -0.007180 2.066800 0.224672 0
M  V30 13 N -0.357585 3.351463 0.321517 0
M  V30 14 C -1.637323 3.740629 0.368862 0
M  V30 15 C -2.677167 2.839671 0.320644 0
M  V30 16 C -4.061657 2.867790 0.343869 0
M  V30 17 C -4.903933 3.968368 0.435182 0
M  V30 18 C -6.258562 3.703130 0.437066 0
M  V30 19 N -6.687732 2.446571 0.354164 0
M  V30 20 C -5.871757 1.381376 0.265787 0
M  V30 21 C -4.497961 1.551493 0.256816 0
M  V30 22 N -3.432872 0.735242 0.182348 0
M  V30 23 C -3.459044 -0.682593 0.081736 0
M  V30 24 C -4.039452 -1.419813 1.245090 0
M  V30 25 C -4.169660 -2.805283 0.598538 0
M  V30 26 C -4.941530 -2.442926 -0.659885 0
M  V30 27 C -4.215526 -1.195617 -1.123724 0
M  V30 28 C -2.314115 1.518943 0.221027 0
M  V30 29 N -1.017838 1.187802 0.177571 0
M  V30 30 C 1.261619 -0.768696 0.006952 0
M  V30 31 C 1.828749 -2.019318 -0.089235 0
M  V30 32 C 3.202583 -2.090576 -0.116248 0
M  V30 33 C 4.071021 -3.295152 -0.212764 0
M  V30 34 H 6.317537 -5.342271 3.111411 0
M  V30 35 H 7.443984 -5.534679 1.748783 0
M  V30 36 H 8.215542 -3.936138 3.113620 0
M  V30 37 H 6.924377 -2.030362 1.056431 0
M  V30 38 H 5.469142 -1.595477 1.965911 0
M  V30 39 H 5.747679 -1.270266 -1.079293 0
M  V30 40 H 5.819418 0.031455 0.186806 0
M  V30 41 H 2.051007 2.501760 0.222744 0
M  V30 42 H -1.888312 4.792289 0.447620 0
M  V30 43 H -4.473891 4.960475 0.499229 0
M  V30 44 H -6.887063 4.583605 0.509423 0
M  V30 45 H -6.258539 0.393289 0.201299 0
M  V30 46 H -2.419339 -1.086045 -0.028676 0
M  V30 47 H -3.345991 -1.491909 2.111800 0
M  V30 48 H -4.984894 -1.050968 1.633941 0
M  V30 49 H -3.156153 -3.065184 0.264299 0
M  V30 50 H -4.663587 -3.535910 1.228707 0
M  V30 51 H -5.998238 -2.229678 -0.443802 0
M  V30 52 H -4.809570 -3.255666 -1.403906 0
M  V30 53 H -4.887696 -0.448058 -1.579982 0
M  V30 54 H -3.520469 -1.486866 -1.954455 0
M  V30 55 H 0.190322 -0.780470 0.023343 0
M  V30 56 H 1.321865 -2.952770 -0.146067 0
M  V30 57 H 3.505291 -4.221868 -0.031711 0
M  V30 58 H 4.453735 -3.363080 -1.271970 0
M  V30 END ATOM
M  V30 BEGIN BOND
M  V30 1 2 1 2
M  V30 2 1 2 3
M  V30 3 1 3 4
M  V30 4 1 2 5
M  V30 5 1 5 6
M  V30 6 1 6 7
M  V30 7 1 7 8
M  V30 8 2 8 9
M  V30 9 1 9 10
M  V30 10 1 10 11
M  V30 11 1 11 12
M  V30 12 2 12 13
M  V30 13 1 13 14
M  V30 14 2 14 15
M  V30 15 1 15 16
M  V30 16 2 16 17
M  V30 17 1 17 18
M  V30 18 2 18 19
M  V30 19 1 19 20
M  V30 20 2 20 21
M  V30 21 1 21 22
M  V30 22 1 22 23
M  V30 23 1 23 24
M  V30 24 1 24 25
M  V30 25 1 25 26
M  V30 26 1 26 27
M  V30 27 1 22 28
M  V30 28 2 28 29
M  V30 29 2 10 30
M  V30 30 1 30 31
M  V30 31 2 31 32
M  V30 32 1 32 33
M  V30 33 1 33 5
M  V30 34 1 32 8
M  V30 35 1 29 12
M  V30 36 1 28 15
M  V30 37 1 21 16
M  V30 38 1 27 23
M  V30 39 1 3 34
M  V30 40 1 3 35
M  V30 41 1 4 36
M  V30 42 1 6 37
M  V30 43 1 6 38
M  V30 44 1 7 39
M  V30 45 1 7 40
M  V30 46 1 11 41
M  V30 47 1 14 42
M  V30 48 1 17 43
M  V30 49 1 18 44
M  V30 50 1 20 45
M  V30 51 1 23 46
M  V30 52 1 24 47
M  V30 53 1 24 48
M  V30 54 1 25 49
M  V30 55 1 25 50
M  V30 56 1 26 51
M  V30 57 1 26 52
M  V30 58 1 27 53
M  V30 59 1 27 54
M  V30 60 1 30 55
M  V30 61 1 31 56
M  V30 62 1 33 57
M  V30 63 1 33 58
M  V30 END BOND
M  V30 END CTAB
M  END
>  <Dataset>  (270) 
ChEMBL_Kinases

>  <Ligand_Instance>  (270) 
nan

>  <PDB_ID>  (270) 
nan

>  <Standardized_SMILES>  (270) 
O=C(CO)N1CCc2nc(Nc3ncc4c5ccncc5n(C5CCCC5)c4n3)ccc2C1

>  <Name>  (270) 
nan

>  <Pocket>  (270) 
nan

>  <ATP_Site>  (270) 
nan

>  <Peripheral>  (270) 
nan

>  <Num_H_Atoms_ProtBoundConf>  (270) 
nan

>  <Num_Resolved_Atoms>  (270) 
nan

>  <Num_Not_Resolved_Atoms>  (270) 
nan

$$$$
CHEMBL3684990
     RDKit          3D

  0  0  0  0  0  0  0  0  0  0999 V3000
M  V30 BEGIN CTAB
M  V30 COUNTS 58 63 0 0 0
M  V30 BEGIN ATOM
M  V30 1 C 3.411343 -3.378441 0.318651 0
M  V30 2 C 2.828389 -2.175613 0.993380 0 CFG=1
M  V30 3 C 1.618426 -2.582844 1.771072 0
M  V30 4 C 0.878226 -1.349221 2.309298 0
M  V30 5 C 1.840648 -0.261837 2.761663 0 CFG=2
M  V30 6 N 1.702602 0.850998 1.921934 0
M  V30 7 C 2.679321 1.692244 1.479442 0
M  V30 8 C 4.027043 1.786723 1.667500 0
M  V30 9 N 4.818760 2.743239 1.110901 0
M  V30 10 C 4.300610 3.695422 0.306976 0
M  V30 11 C 2.941533 3.647626 0.082270 0
M  V30 12 C 2.127376 2.662230 0.656048 0
M  V30 13 C 0.774417 2.348320 0.637506 0
M  V30 14 C -0.162703 3.090460 -0.085725 0
M  V30 15 N -1.440369 2.653832 0.005572 0
M  V30 16 C -1.751686 1.569195 0.756196 0
M  V30 17 N -3.116649 1.174251 0.780549 0
M  V30 18 C -3.723035 0.089004 0.053416 0
M  V30 19 C -5.080865 -0.180092 0.126580 0
M  V30 20 C -5.550108 -1.254993 -0.595248 0
M  V30 21 C -4.692444 -2.020057 -1.353135 0
M  V30 22 C -3.329258 -1.736210 -1.415793 0
M  V30 23 N -2.874336 -0.673510 -0.700970 0
M  V30 24 C -2.415499 -2.577838 -2.226532 0
M  V30 25 N -2.806676 -3.943744 -2.303576 0
M  V30 26 C -4.150382 -4.260450 -1.977021 0
M  V30 27 C -5.154474 -3.168695 -2.135141 0
M  V30 28 N -0.773855 0.938902 1.404225 0
M  V30 29 C 0.522473 1.256508 1.403113 0
M  V30 30 C 3.090237 -0.918019 3.069916 0
M  V30 31 C 3.829635 -1.657540 2.007393 0
M  V30 32 H 3.855356 -4.080093 1.054594 0
M  V30 33 H 2.661898 -3.911107 -0.316902 0
M  V30 34 H 4.199448 -3.020092 -0.375922 0
M  V30 35 H 2.616308 -1.429719 0.203825 0
M  V30 36 H 0.940436 -3.156097 1.103679 0
M  V30 37 H 1.920967 -3.204340 2.621675 0
M  V30 38 H 0.265458 -1.037611 1.419724 0
M  V30 39 H 0.176835 -1.661900 3.082413 0
M  V30 40 H 1.405116 0.058590 3.767892 0
M  V30 41 H 4.540539 1.106168 2.277672 0
M  V30 42 H 4.927924 4.456749 -0.136433 0
M  V30 43 H 2.471318 4.390899 -0.559653 0
M  V30 44 H 0.076654 3.953848 -0.686427 0
M  V30 45 H -3.714459 1.762197 1.406786 0
M  V30 46 H -5.717437 0.441424 0.730001 0
M  V30 47 H -6.590525 -1.523121 -0.585224 0
M  V30 48 H -1.439598 -2.568063 -1.646852 0
M  V30 49 H -2.245367 -2.157237 -3.228959 0
M  V30 50 H -2.382862 -4.441420 -3.099717 0
M  V30 51 H -4.204386 -4.615781 -0.912778 0
M  V30 52 H -4.530825 -5.130504 -2.591586 0
M  V30 53 H -6.135012 -3.575777 -1.802524 0
M  V30 54 H -5.237277 -2.829812 -3.201280 0
M  V30 55 H 3.765401 -0.419540 3.833351 0
M  V30 56 H 2.747542 -1.778175 3.760128 0
M  V30 57 H 4.332624 -2.596019 2.406156 0
M  V30 58 H 4.669833 -1.131165 1.533163 0
M  V30 END ATOM
M  V30 BEGIN BOND
M  V30 1 1 1 2
M  V30 2 1 2 3
M  V30 3 1 3 4
M  V30 4 1 4 5
M  V30 5 1 5 6
M  V30 6 1 6 7
M  V30 7 2 7 8
M  V30 8 1 8 9
M  V30 9 2 9 10
M  V30 10 1 10 11
M  V30 11 2 11 12
M  V30 12 1 12 13
M  V30 13 2 13 14
M  V30 14 1 14 15
M  V30 15 2 15 16
M  V30 16 1 16 17
M  V30 17 1 17 18
M  V30 18 2 18 19
M  V30 19 1 19 20
M  V30 20 2 20 21
M  V30 21 1 21 22
M  V30 22 2 22 23
M  V30 23 1 22 24
M  V30 24 1 24 25
M  V30 25 1 25 26
M  V30 26 1 26 27
M  V30 27 1 16 28
M  V30 28 2 28 29
M  V30 29 1 5 30
M  V30 30 1 30 31
M  V30 31 1 31 2
M  V30 32 1 29 6
M  V30 33 1 12 7
M  V30 34 1 29 13
M  V30 35 1 23 18
M  V30 36 1 27 21
M  V30 37 1 1 32
M  V30 38 1 1 33
M  V30 39 1 1 34
M  V30 40 1 2 35 CFG=3
M  V30 41 1 3 36
M  V30 42 1 3 37
M  V30 43 1 4 38
M  V30 44 1 4 39
M  V30 45 1 5 40 CFG=1
M  V30 46 1 8 41
M  V30 47 1 10 42
M  V30 48 1 11 43
M  V30 49 1 14 44
M  V30 50 1 17 45
M  V30 51 1 19 46
M  V30 52 1 20 47
M  V30 53 1 24 48
M  V30 54 1 24 49
M  V30 55 1 25 50
M  V30 56 1 26 51
M  V30 57 1 26 52
M  V30 58 1 27 53
M  V30 59 1 27 54
M  V30 60 1 30 55
M  V30 61 1 30 56
M  V30 62 1 31 57
M  V30 63 1 31 58
M  V30 END BOND
M  V30 END CTAB
M  END
>  <Dataset>  (271) 
ChEMBL_Kinases

>  <Ligand_Instance>  (271) 
nan

>  <PDB_ID>  (271) 
nan

>  <Standardized_SMILES>  (271) 
C[C@H]1CC[C@H](n2c3cnccc3c3cnc(Nc4ccc5c(n4)CNCC5)nc32)CC1

>  <Name>  (271) 
nan

>  <Pocket>  (271) 
nan

>  <ATP_Site>  (271) 
nan

>  <Peripheral>  (271) 
nan

>  <Num_H_Atoms_ProtBoundConf>  (271) 
nan

>  <Num_Resolved_Atoms>  (271) 
nan

>  <Num_Not_Resolved_Atoms>  (271) 
nan

$$$$
CHEMBL3685234
     RDKit          3D

  0  0  0  0  0  0  0  0  0  0999 V3000
M  V30 BEGIN CTAB
M  V30 COUNTS 52 55 0 0 0
M  V30 BEGIN ATOM
M  V30 1 C 1.432410 -5.275437 0.288825 0
M  V30 2 C 2.186548 -4.308374 1.134040 0
M  V30 3 C 2.270943 -4.370128 2.499607 0
M  V30 4 C 2.982182 -3.446680 3.214406 0
M  V30 5 N 3.596885 -2.473255 2.521582 0
M  V30 6 C 3.538776 -2.374953 1.164347 0
M  V30 7 N 4.284460 -1.246647 0.716428 0
M  V30 8 C 3.792334 0.073798 0.537851 0
M  V30 9 C 4.632735 1.056040 0.099427 0
M  V30 10 C 4.184416 2.348001 -0.083795 0
M  V30 11 C 2.869630 2.626781 0.185113 0
M  V30 12 C 1.987594 1.683116 0.625231 0
M  V30 13 C 0.550826 1.854089 0.949443 0
M  V30 14 C 0.159377 3.202458 0.351538 0
M  V30 15 N -0.210119 0.758784 0.373275 0
M  V30 16 C -1.606721 0.740503 0.602705 0
M  V30 17 N -2.220720 1.688401 1.326262 0
M  V30 18 C -3.527665 1.715698 1.572700 0
M  V30 19 N -4.345460 0.760795 1.095130 0
M  V30 20 C -3.829283 -0.253624 0.345452 0
M  V30 21 C -4.637598 -1.250144 -0.160891 0
M  V30 22 C -6.062493 -1.221990 0.106849 0
M  V30 23 N -6.710151 -0.235711 0.861941 0
M  V30 24 O -6.827289 -2.115363 -0.340540 0
M  V30 25 C -4.114696 -2.275016 -0.918603 0
M  V30 26 C -2.740878 -2.271047 -1.156417 0
M  V30 27 C -1.974346 -1.253260 -0.628947 0
M  V30 28 C -2.467387 -0.218697 0.129843 0
M  V30 29 C 2.473605 0.382269 0.800964 0
M  V30 30 C 2.817759 -3.310503 0.435335 0
M  V30 31 H 2.111460 -5.561971 -0.538076 0
M  V30 32 H 0.517199 -4.831266 -0.132657 0
M  V30 33 H 1.166188 -6.189291 0.863395 0
M  V30 34 H 1.743085 -5.191095 2.983212 0
M  V30 35 H 3.025030 -3.528956 4.288124 0
M  V30 36 H 5.262610 -1.482872 0.522932 0
M  V30 37 H 5.686144 0.879760 -0.126804 0
M  V30 38 H 4.844575 3.126812 -0.429856 0
M  V30 39 H 2.472079 3.606498 0.061006 0
M  V30 40 H 0.406513 1.896149 2.043732 0
M  V30 41 H 0.679314 3.963581 0.969560 0
M  V30 42 H -0.914712 3.339635 0.240154 0
M  V30 43 H 0.601513 3.287648 -0.683094 0
M  V30 44 H 0.310729 0.047012 -0.176558 0
M  V30 45 H -3.845536 2.557056 2.175170 0
M  V30 46 H -6.497689 -0.407573 1.876244 0
M  V30 47 H -7.327759 0.608342 0.779383 0
M  V30 48 H -4.778229 -3.031886 -1.294542 0
M  V30 49 H -2.357783 -3.084099 -1.751914 0
M  V30 50 H -0.943493 -1.332310 -0.860746 0
M  V30 51 H 1.859346 -0.446288 1.146834 0
M  V30 52 H 2.858085 -3.111335 -0.620907 0
M  V30 END ATOM
M  V30 BEGIN BOND
M  V30 1 1 1 2
M  V30 2 2 2 3
M  V30 3 1 3 4
M  V30 4 2 4 5
M  V30 5 1 5 6
M  V30 6 1 6 7
M  V30 7 1 7 8
M  V30 8 2 8 9
M  V30 9 1 9 10
M  V30 10 2 10 11
M  V30 11 1 11 12
M  V30 12 1 12 13
M  V30 13 1 13 14
M  V30 14 1 13 15
M  V30 15 1 15 16
M  V30 16 2 16 17
M  V30 17 1 17 18
M  V30 18 2 18 19
M  V30 19 1 19 20
M  V30 20 2 20 21
M  V30 21 1 21 22
M  V30 22 1 22 23
M  V30 23 2 22 24
M  V30 24 1 21 25
M  V30 25 2 25 26
M  V30 26 1 26 27
M  V30 27 2 27 28
M  V30 28 2 12 29
M  V30 29 2 6 30
M  V30 30 1 30 2
M  V30 31 1 29 8
M  V30 32 1 28 16
M  V30 33 1 28 20
M  V30 34 1 1 31
M  V30 35 1 1 32
M  V30 36 1 1 33
M  V30 37 1 3 34
M  V30 38 1 4 35
M  V30 39 1 7 36
M  V30 40 1 9 37
M  V30 41 1 10 38
M  V30 42 1 11 39
M  V30 43 1 13 40
M  V30 44 1 14 41
M  V30 45 1 14 42
M  V30 46 1 14 43
M  V30 47 1 15 44
M  V30 48 1 18 45
M  V30 49 1 23 46
M  V30 50 1 23 47
M  V30 51 1 25 48
M  V30 52 1 26 49
M  V30 53 1 27 50
M  V30 54 1 29 51
M  V30 55 1 30 52
M  V30 END BOND
M  V30 END CTAB
M  END
>  <Dataset>  (272) 
ChEMBL_Kinases

>  <Ligand_Instance>  (272) 
nan

>  <PDB_ID>  (272) 
nan

>  <Standardized_SMILES>  (272) 
Cc1ccnc(Nc2cccc(C(C)Nc3ncnc4c(C(N)=O)cccc34)c2)c1

>  <Name>  (272) 
nan

>  <Pocket>  (272) 
nan

>  <ATP_Site>  (272) 
nan

>  <Peripheral>  (272) 
nan

>  <Num_H_Atoms_ProtBoundConf>  (272) 
nan

>  <Num_Resolved_Atoms>  (272) 
nan

>  <Num_Not_Resolved_Atoms>  (272) 
nan

$$$$
CHEMBL3684992
     RDKit          3D

  0  0  0  0  0  0  0  0  0  0999 V3000
M  V30 BEGIN CTAB
M  V30 COUNTS 64 69 0 0 0
M  V30 BEGIN ATOM
M  V30 1 C -0.895848 3.316657 3.384250 0
M  V30 2 C -0.031434 3.874083 2.267732 0 CFG=1
M  V30 3 C 1.019538 2.866488 1.922991 0
M  V30 4 C 1.232091 2.976669 0.400715 0
M  V30 5 C 0.023461 2.404209 -0.218095 0 CFG=2
M  V30 6 N 0.099222 2.025142 -1.600524 0
M  V30 7 C 0.318294 2.893495 -2.611117 0
M  V30 8 C 0.519552 4.231328 -2.713586 0
M  V30 9 N 0.721596 4.885772 -3.872834 0
M  V30 10 C 0.742080 4.250752 -5.063455 0
M  V30 11 C 0.539228 2.869813 -5.011185 0
M  V30 12 C 0.332975 2.202046 -3.828228 0
M  V30 13 C 0.117928 0.880927 -3.547488 0
M  V30 14 C 0.019444 -0.285403 -4.272646 0
M  V30 15 N -0.204368 -1.448936 -3.647041 0
M  V30 16 C -0.344441 -1.555332 -2.305600 0
M  V30 17 N -0.570537 -2.800780 -1.668324 0
M  V30 18 C -0.759195 -3.072940 -0.308032 0
M  V30 19 C -0.786097 -2.168554 0.702696 0
M  V30 20 C -0.963989 -2.421858 2.068536 0
M  V30 21 C -1.128230 -3.780149 2.370090 0
M  V30 22 C -1.099008 -4.689573 1.340441 0
M  V30 23 N -0.923137 -4.356123 0.058228 0
M  V30 24 C -1.276641 -6.069449 1.917227 0
M  V30 25 N -0.247745 -6.203646 2.965332 0
M  V30 26 C 0.904874 -7.044148 3.118588 0
M  V30 27 O 1.741847 -7.051790 4.088401 0
M  V30 28 C 1.406040 -8.103408 2.199816 0
M  V30 29 O 0.639737 -8.264016 1.064457 0
M  V30 30 C -0.395744 -5.317546 4.097753 0
M  V30 31 C -1.335330 -4.184741 3.779400 0
M  V30 32 N -0.240947 -0.398701 -1.653016 0
M  V30 33 C -0.020450 0.811222 -2.174911 0
M  V30 34 C -1.149948 3.311287 0.080914 0
M  V30 35 C -0.845590 4.340761 1.116962 0
M  V30 36 H -1.364655 2.357588 3.076049 0
M  V30 37 H -0.279255 3.095361 4.280762 0
M  V30 38 H -1.726643 4.001337 3.650102 0
M  V30 39 H 0.488413 4.777859 2.677137 0
M  V30 40 H 0.766919 1.821226 2.189112 0
M  V30 41 H 2.003581 3.084708 2.378029 0
M  V30 42 H 1.312742 4.076909 0.269962 0
M  V30 43 H 2.170488 2.443278 0.219724 0
M  V30 44 H -0.197498 1.447145 0.348121 0
M  V30 45 H 0.529333 4.857020 -1.853903 0
M  V30 46 H 0.908973 4.828447 -5.961042 0
M  V30 47 H 0.549325 2.332816 -5.933145 0
M  V30 48 H 0.124002 -0.234440 -5.333626 0
M  V30 49 H -0.593540 -3.615783 -2.354529 0
M  V30 50 H -0.664940 -1.128198 0.492933 0
M  V30 51 H -0.972914 -1.640834 2.809352 0
M  V30 52 H -1.143633 -6.775721 1.095009 0
M  V30 53 H -2.293041 -6.189603 2.318920 0
M  V30 54 H 1.380193 -9.063812 2.744182 0
M  V30 55 H 2.454119 -7.912031 1.875436 0
M  V30 56 H -0.059271 -8.979940 1.201969 0
M  V30 57 H -0.702041 -5.867288 5.015984 0
M  V30 58 H 0.610275 -4.843090 4.289952 0
M  V30 59 H -2.409779 -4.497017 3.939022 0
M  V30 60 H -1.090166 -3.360989 4.486040 0
M  V30 61 H -2.042293 2.725158 0.429738 0
M  V30 62 H -1.437206 3.781314 -0.883660 0
M  V30 63 H -0.434541 5.290281 0.671921 0
M  V30 64 H -1.835711 4.679361 1.545715 0
M  V30 END ATOM
M  V30 BEGIN BOND
M  V30 1 1 1 2
M  V30 2 1 2 3
M  V30 3 1 3 4
M  V30 4 1 4 5
M  V30 5 1 5 6
M  V30 6 1 6 7
M  V30 7 2 7 8
M  V30 8 1 8 9
M  V30 9 2 9 10
M  V30 10 1 10 11
M  V30 11 2 11 12
M  V30 12 1 12 13
M  V30 13 2 13 14
M  V30 14 1 14 15
M  V30 15 2 15 16
M  V30 16 1 16 17
M  V30 17 1 17 18
M  V30 18 2 18 19
M  V30 19 1 19 20
M  V30 20 2 20 21
M  V30 21 1 21 22
M  V30 22 2 22 23
M  V30 23 1 22 24
M  V30 24 1 24 25
M  V30 25 1 25 26
M  V30 26 2 26 27
M  V30 27 1 26 28
M  V30 28 1 28 29
M  V30 29 1 25 30
M  V30 30 1 30 31
M  V30 31 1 16 32
M  V30 32 2 32 33
M  V30 33 1 5 34
M  V30 34 1 34 35
M  V30 35 1 35 2
M  V30 36 1 33 6
M  V30 37 1 12 7
M  V30 38 1 33 13
M  V30 39 1 23 18
M  V30 40 1 31 21
M  V30 41 1 1 36
M  V30 42 1 1 37
M  V30 43 1 1 38
M  V30 44 1 2 39 CFG=1
M  V30 45 1 3 40
M  V30 46 1 3 41
M  V30 47 1 4 42
M  V30 48 1 4 43
M  V30 49 1 5 44 CFG=1
M  V30 50 1 8 45
M  V30 51 1 10 46
M  V30 52 1 11 47
M  V30 53 1 14 48
M  V30 54 1 17 49
M  V30 55 1 19 50
M  V30 56 1 20 51
M  V30 57 1 24 52
M  V30 58 1 24 53
M  V30 59 1 28 54
M  V30 60 1 28 55
M  V30 61 1 29 56
M  V30 62 1 30 57
M  V30 63 1 30 58
M  V30 64 1 31 59
M  V30 65 1 31 60
M  V30 66 1 34 61
M  V30 67 1 34 62
M  V30 68 1 35 63
M  V30 69 1 35 64
M  V30 END BOND
M  V30 END CTAB
M  END
>  <Dataset>  (273) 
ChEMBL_Kinases

>  <Ligand_Instance>  (273) 
nan

>  <PDB_ID>  (273) 
nan

>  <Standardized_SMILES>  (273) 
C[C@H]1CC[C@H](n2c3cnccc3c3cnc(Nc4ccc5c(n4)CN(C(=O)CO)CC5)nc32)CC1

>  <Name>  (273) 
nan

>  <Pocket>  (273) 
nan

>  <ATP_Site>  (273) 
nan

>  <Peripheral>  (273) 
nan

>  <Num_H_Atoms_ProtBoundConf>  (273) 
nan

>  <Num_Resolved_Atoms>  (273) 
nan

>  <Num_Not_Resolved_Atoms>  (273) 
nan

$$$$
CHEMBL3684993
     RDKit          3D

  0  0  0  0  0  0  0  0  0  0999 V3000
M  V30 BEGIN CTAB
M  V30 COUNTS 77 82 0 0 0
M  V30 BEGIN ATOM
M  V30 1 C 6.937914 -2.470504 1.428614 0
M  V30 2 C 5.606953 -3.060702 1.784675 0
M  V30 3 N 4.669114 -3.057617 0.756281 0
M  V30 4 C 3.418131 -3.704381 1.029614 0
M  V30 5 C 2.546496 -3.062187 2.050484 0
M  V30 6 C 4.732931 -2.185243 -0.334143 0
M  V30 7 C 4.503798 -0.767450 -0.126443 0
M  V30 8 O 4.371680 -1.360299 0.976231 0
M  V30 9 N 4.276931 0.611438 0.096488 0
M  V30 10 C 4.403163 1.512831 -1.047708 0
M  V30 11 C 3.548766 2.745830 -0.850914 0
M  V30 12 C 2.352905 2.334109 -0.060298 0
M  V30 13 N 1.112542 2.708677 -0.503417 0
M  V30 14 C 0.011796 2.346117 0.203017 0
M  V30 15 N -1.296043 2.721545 -0.271265 0
M  V30 16 C -2.448068 2.294742 0.494347 0
M  V30 17 N -3.196194 2.938719 1.407588 0
M  V30 18 C -4.222129 2.248408 1.964081 0
M  V30 19 C -4.515454 0.952594 1.638119 0
M  V30 20 C -5.451931 0.034901 2.023542 0
M  V30 21 C -6.490338 0.119571 2.933441 0
M  V30 22 C -7.259269 -1.036981 3.071893 0
M  V30 23 N -6.988636 -2.146055 2.357333 0
M  V30 24 C -5.984573 -2.235351 1.474220 0
M  V30 25 C -5.188947 -1.097808 1.305242 0
M  V30 26 N -4.127123 -0.955857 0.474030 0
M  V30 27 C -3.575497 -1.948508 -0.423478 0 CFG=1
M  V30 28 C -4.304387 -1.959518 -1.738068 0
M  V30 29 C -3.786204 -0.909035 -2.695832 0
M  V30 30 C -2.288749 -0.864073 -2.751051 0 CFG=2
M  V30 31 C -1.798544 -0.832456 -4.205117 0
M  V30 32 C -1.726626 -2.052699 -2.019943 0
M  V30 33 C -2.091340 -1.890883 -0.543206 0
M  V30 34 C -3.718632 0.332491 0.695202 0
M  V30 35 N -2.724738 1.047398 0.175507 0
M  V30 36 C 0.129318 1.597565 1.375611 0
M  V30 37 C 1.354356 1.199627 1.858143 0
M  V30 38 C 2.434351 1.593995 1.101651 0
M  V30 39 C 3.895036 1.279335 1.357524 0
M  V30 40 H 7.324745 -1.821304 2.267987 0
M  V30 41 H 7.718313 -3.258897 1.268867 0
M  V30 42 H 6.976323 -1.835844 0.542217 0
M  V30 43 H 5.242165 -2.631793 2.758480 0
M  V30 44 H 5.818040 -4.150696 2.042076 0
M  V30 45 H 3.662859 -4.738886 1.415684 0
M  V30 46 H 2.850735 -3.901206 0.092234 0
M  V30 47 H 3.074749 -2.751172 2.956088 0
M  V30 48 H 1.836682 -3.871043 2.403834 0
M  V30 49 H 1.892441 -2.289526 1.595100 0
M  V30 50 H 4.013687 -2.557076 -1.152896 0
M  V30 51 H 5.724569 -2.308985 -0.866294 0
M  V30 52 H 5.446490 1.836068 -1.220790 0
M  V30 53 H 4.012512 0.993472 -1.950169 0
M  V30 54 H 4.120372 3.501898 -0.235090 0
M  V30 55 H 3.218658 3.164763 -1.802149 0
M  V30 56 H -1.356873 3.285385 -1.145720 0
M  V30 57 H -4.810820 2.767151 2.687703 0
M  V30 58 H -6.677734 1.017286 3.484826 0
M  V30 59 H -8.091108 -1.047216 3.770208 0
M  V30 60 H -5.782041 -3.141808 0.905794 0
M  V30 61 H -3.819907 -2.938456 0.073015 0
M  V30 62 H -5.368558 -1.710389 -1.536582 0
M  V30 63 H -4.273851 -2.969041 -2.164922 0
M  V30 64 H -4.278245 0.062454 -2.509271 0
M  V30 65 H -4.136045 -1.218079 -3.708052 0
M  V30 66 H -1.863820 0.044926 -2.273520 0
M  V30 67 H -0.833534 -0.295752 -4.279887 0
M  V30 68 H -1.682582 -1.856245 -4.606592 0
M  V30 69 H -2.514958 -0.216600 -4.815085 0
M  V30 70 H -0.618072 -2.087658 -2.079099 0
M  V30 71 H -2.203792 -2.962081 -2.391782 0
M  V30 72 H -1.581327 -2.763653 -0.038289 0
M  V30 73 H -1.612254 -1.002040 -0.132767 0
M  V30 74 H -0.737574 1.291127 1.968384 0
M  V30 75 H 1.586830 0.631606 2.733370 0
M  V30 76 H 4.005279 0.583835 2.186767 0
M  V30 77 H 4.456631 2.210199 1.399998 0
M  V30 END ATOM
M  V30 BEGIN BOND
M  V30 1 1 1 2
M  V30 2 1 2 3
M  V30 3 1 3 4
M  V30 4 1 4 5
M  V30 5 1 3 6
M  V30 6 1 6 7
M  V30 7 2 7 8
M  V30 8 1 7 9
M  V30 9 1 9 10
M  V30 10 1 10 11
M  V30 11 1 11 12
M  V30 12 2 12 13
M  V30 13 1 13 14
M  V30 14 1 14 15
M  V30 15 1 15 16
M  V30 16 2 16 17
M  V30 17 1 17 18
M  V30 18 2 18 19
M  V30 19 1 19 20
M  V30 20 2 20 21
M  V30 21 1 21 22
M  V30 22 2 22 23
M  V30 23 1 23 24
M  V30 24 2 24 25
M  V30 25 1 25 26
M  V30 26 1 26 27
M  V30 27 1 27 28
M  V30 28 1 28 29
M  V30 29 1 29 30
M  V30 30 1 30 31
M  V30 31 1 30 32
M  V30 32 1 32 33
M  V30 33 1 26 34
M  V30 34 2 34 35
M  V30 35 2 14 36
M  V30 36 1 36 37
M  V30 37 2 37 38
M  V30 38 1 38 39
M  V30 39 1 39 9
M  V30 40 1 38 12
M  V30 41 1 35 16
M  V30 42 1 34 19
M  V30 43 1 25 20
M  V30 44 1 33 27
M  V30 45 1 1 40
M  V30 46 1 1 41
M  V30 47 1 1 42
M  V30 48 1 2 43
M  V30 49 1 2 44
M  V30 50 1 4 45
M  V30 51 1 4 46
M  V30 52 1 5 47
M  V30 53 1 5 48
M  V30 54 1 5 49
M  V30 55 1 6 50
M  V30 56 1 6 51
M  V30 57 1 10 52
M  V30 58 1 10 53
M  V30 59 1 11 54
M  V30 60 1 11 55
M  V30 61 1 15 56
M  V30 62 1 18 57
M  V30 63 1 21 58
M  V30 64 1 22 59
M  V30 65 1 24 60
M  V30 66 1 27 61 CFG=1
M  V30 67 1 28 62
M  V30 68 1 28 63
M  V30 69 1 29 64
M  V30 70 1 29 65
M  V30 71 1 30 66 CFG=1
M  V30 72 1 31 67
M  V30 73 1 31 68
M  V30 74 1 31 69
M  V30 75 1 32 70
M  V30 76 1 32 71
M  V30 77 1 33 72
M  V30 78 1 33 73
M  V30 79 1 36 74
M  V30 80 1 37 75
M  V30 81 1 39 76
M  V30 82 1 39 77
M  V30 END BOND
M  V30 END CTAB
M  END
>  <Dataset>  (274) 
ChEMBL_Kinases

>  <Ligand_Instance>  (274) 
nan

>  <PDB_ID>  (274) 
nan

>  <Standardized_SMILES>  (274) 
CCN(CC)CC(=O)N1CCc2nc(Nc3ncc4c5ccncc5n([C@H]5CC[C@H](C)CC5)c4n3)ccc2C1

>  <Name>  (274) 
nan

>  <Pocket>  (274) 
nan

>  <ATP_Site>  (274) 
nan

>  <Peripheral>  (274) 
nan

>  <Num_H_Atoms_ProtBoundConf>  (274) 
nan

>  <Num_Resolved_Atoms>  (274) 
nan

>  <Num_Not_Resolved_Atoms>  (274) 
nan

$$$$
CHEMBL3684994
     RDKit          3D

  0  0  0  0  0  0  0  0  0  0999 V3000
M  V30 BEGIN CTAB
M  V30 COUNTS 66 71 0 0 0
M  V30 BEGIN ATOM
M  V30 1 C 2.962243 -2.442020 5.552795 0
M  V30 2 C 4.007251 -1.990160 4.620850 0
M  V30 3 O 5.037755 -2.490678 4.093972 0
M  V30 4 N 3.965550 -0.651677 4.095844 0
M  V30 5 C 4.998548 -0.201968 3.173013 0
M  V30 6 C 4.327174 0.054251 1.859404 0
M  V30 7 C 4.926681 -0.149233 0.626245 0
M  V30 8 C 4.216944 0.118635 -0.529687 0
M  V30 9 C 2.912445 0.587857 -0.412626 0
M  V30 10 N 2.153350 0.872273 -1.583560 0
M  V30 11 C 0.815357 1.354484 -1.535081 0
M  V30 12 N 0.435163 2.662271 -1.509788 0
M  V30 13 C -0.855904 3.021973 -1.463348 0
M  V30 14 C -1.849672 2.064118 -1.439532 0
M  V30 15 C -3.222629 2.066781 -1.393620 0
M  V30 16 C -4.126902 3.122932 -1.353169 0
M  V30 17 C -5.462487 2.751308 -1.312061 0
M  V30 18 N -5.871548 1.461768 -1.310807 0
M  V30 19 C -4.963210 0.451592 -1.350908 0
M  V30 20 C -3.614785 0.744622 -1.393224 0
M  V30 21 N -2.565114 -0.082295 -1.436270 0
M  V30 22 C -2.625497 -1.524897 -1.447759 0 CFG=1
M  V30 23 C -1.229781 -2.067187 -1.776819 0
M  V30 24 C -1.264022 -3.570523 -1.917595 0
M  V30 25 C -2.479382 -4.202245 -1.324538 0 CFG=2
M  V30 26 C -3.636233 -4.337245 -2.284145 0
M  V30 27 C -2.865368 -3.545349 -0.029660 0
M  V30 28 C -2.958386 -2.055993 -0.084647 0
M  V30 29 C -1.469946 0.717166 -1.465194 0
M  V30 30 N -0.155742 0.438658 -1.511635 0
M  V30 31 N 2.387970 0.764585 0.800524 0
M  V30 32 C 3.045125 0.515764 1.946309 0
M  V30 33 C 2.267461 0.783529 3.188151 0 CFG=1
M  V30 34 C 0.856782 0.214091 3.054186 0
M  V30 35 C 2.936849 0.308310 4.431341 0
M  V30 36 H 3.046774 -3.562482 5.654421 0
M  V30 37 H 3.152051 -1.961276 6.535474 0
M  V30 38 H 1.951470 -2.217884 5.154324 0
M  V30 39 H 5.729867 -1.040577 3.017624 0
M  V30 40 H 5.488948 0.735354 3.509940 0
M  V30 41 H 5.944888 -0.516534 0.638880 0
M  V30 42 H 4.690094 -0.042064 -1.487703 0
M  V30 43 H 2.563729 0.732821 -2.530850 0
M  V30 44 H -1.125098 4.068222 -1.444355 0
M  V30 45 H -3.798074 4.134547 -1.354472 0
M  V30 46 H -6.238600 3.522212 -1.278720 0
M  V30 47 H -5.318461 -0.575736 -1.348907 0
M  V30 48 H -3.339947 -1.813469 -2.235985 0
M  V30 49 H -0.889699 -1.621990 -2.721227 0
M  V30 50 H -0.584165 -1.820458 -0.900612 0
M  V30 51 H -0.360466 -4.014950 -1.451822 0
M  V30 52 H -1.203277 -3.866657 -2.994087 0
M  V30 53 H -2.194891 -5.259414 -1.044807 0
M  V30 54 H -3.392494 -3.958931 -3.310073 0
M  V30 55 H -4.556610 -3.847785 -1.861180 0
M  V30 56 H -3.947706 -5.398684 -2.454598 0
M  V30 57 H -3.835390 -3.999735 0.328094 0
M  V30 58 H -2.109746 -3.822024 0.742817 0
M  V30 59 H -2.225213 -1.574984 0.615341 0
M  V30 60 H -3.951008 -1.726749 0.282710 0
M  V30 61 H 2.125820 1.902972 3.189610 0
M  V30 62 H 0.430655 -0.079877 4.032051 0
M  V30 63 H 0.830086 -0.693324 2.403769 0
M  V30 64 H 0.142373 0.966312 2.642462 0
M  V30 65 H 2.146623 -0.189194 5.061422 0
M  V30 66 H 3.348205 1.202538 4.950735 0
M  V30 END ATOM
M  V30 BEGIN BOND
M  V30 1 1 1 2
M  V30 2 2 2 3
M  V30 3 1 2 4
M  V30 4 1 4 5
M  V30 5 1 5 6
M  V30 6 2 6 7
M  V30 7 1 7 8
M  V30 8 2 8 9
M  V30 9 1 9 10
M  V30 10 1 10 11
M  V30 11 2 11 12
M  V30 12 1 12 13
M  V30 13 2 13 14
M  V30 14 1 14 15
M  V30 15 2 15 16
M  V30 16 1 16 17
M  V30 17 2 17 18
M  V30 18 1 18 19
M  V30 19 2 19 20
M  V30 20 1 20 21
M  V30 21 1 21 22
M  V30 22 1 22 23
M  V30 23 1 23 24
M  V30 24 1 24 25
M  V30 25 1 25 26
M  V30 26 1 25 27
M  V30 27 1 27 28
M  V30 28 1 21 29
M  V30 29 2 29 30
M  V30 30 1 9 31
M  V30 31 2 31 32
M  V30 32 1 32 33
M  V30 33 1 33 34
M  V30 34 1 33 35
M  V30 35 1 35 4
M  V30 36 1 32 6
M  V30 37 1 30 11
M  V30 38 1 29 14
M  V30 39 1 20 15
M  V30 40 1 28 22
M  V30 41 1 1 36
M  V30 42 1 1 37
M  V30 43 1 1 38
M  V30 44 1 5 39
M  V30 45 1 5 40
M  V30 46 1 7 41
M  V30 47 1 8 42
M  V30 48 1 10 43
M  V30 49 1 13 44
M  V30 50 1 16 45
M  V30 51 1 17 46
M  V30 52 1 19 47
M  V30 53 1 22 48 CFG=3
M  V30 54 1 23 49
M  V30 55 1 23 50
M  V30 56 1 24 51
M  V30 57 1 24 52
M  V30 58 1 25 53 CFG=1
M  V30 59 1 26 54
M  V30 60 1 26 55
M  V30 61 1 26 56
M  V30 62 1 27 57
M  V30 63 1 27 58
M  V30 64 1 28 59
M  V30 65 1 28 60
M  V30 66 1 33 61 CFG=1
M  V30 67 1 34 62
M  V30 68 1 34 63
M  V30 69 1 34 64
M  V30 70 1 35 65
M  V30 71 1 35 66
M  V30 END BOND
M  V30 END CTAB
M  END
>  <Dataset>  (275) 
ChEMBL_Kinases

>  <Ligand_Instance>  (275) 
nan

>  <PDB_ID>  (275) 
nan

>  <Standardized_SMILES>  (275) 
CC(=O)N1Cc2ccc(Nc3ncc4c5ccncc5n([C@H]5CC[C@H](C)CC5)c4n3)nc2[C@@H](C)C1

>  <Name>  (275) 
nan

>  <Pocket>  (275) 
nan

>  <ATP_Site>  (275) 
nan

>  <Peripheral>  (275) 
nan

>  <Num_H_Atoms_ProtBoundConf>  (275) 
nan

>  <Num_Resolved_Atoms>  (275) 
nan

>  <Num_Not_Resolved_Atoms>  (275) 
nan

$$$$
CHEMBL3685206
     RDKit          3D

  0  0  0  0  0  0  0  0  0  0999 V3000
M  V30 BEGIN CTAB
M  V30 COUNTS 56 59 0 0 0
M  V30 BEGIN ATOM
M  V30 1 N 6.056372 -3.124881 0.075283 0
M  V30 2 C 6.775431 -2.052940 0.673489 0
M  V30 3 O 7.999868 -2.166693 0.994829 0
M  V30 4 C 6.136114 -0.768786 0.946212 0
M  V30 5 C 6.889023 0.230263 1.527817 0
M  V30 6 C 6.276583 1.443318 1.782809 0
M  V30 7 C 4.949775 1.597092 1.445989 0
M  V30 8 C 4.169935 0.643717 0.872874 0
M  V30 9 C 2.845465 0.875701 0.565033 0
M  V30 10 N 2.209653 2.103565 0.815810 0
M  V30 11 C 0.848759 2.405218 0.523515 0
M  V30 12 C -0.195925 1.632096 1.184315 0
M  V30 13 C -0.546161 2.175669 2.430908 0
M  V30 14 C -1.516026 1.624310 3.243116 0
M  V30 15 C -2.179025 0.489036 2.824804 0
M  V30 16 C -1.858317 -0.054564 1.624278 0
M  V30 17 N -2.452583 -1.229582 1.047793 0
M  V30 18 C -3.590088 -1.142148 0.223405 0
M  V30 19 O -4.106669 -0.013329 -0.020768 0
M  V30 20 C -4.054381 -2.485381 -0.278034 0 CFG=2
M  V30 21 C -2.907501 -2.947981 -1.184990 0
M  V30 22 C -3.260539 -2.351458 -2.503556 0
M  V30 23 C -4.701100 -1.995088 -2.404102 0
M  V30 24 N -5.207182 -2.405211 -1.113180 0
M  V30 25 C -6.578793 -2.653819 -0.826818 0
M  V30 26 O -7.448934 -2.527487 -1.702603 0
M  V30 27 C -6.927168 -3.074215 0.576101 0
M  V30 28 F -8.279012 -3.274324 0.695402 0
M  V30 29 F -6.555167 -2.103917 1.499180 0
M  V30 30 F -6.297610 -4.286571 0.847040 0
M  V30 31 C -0.889080 0.500697 0.817695 0
M  V30 32 N 2.159976 -0.131735 0.000537 0
M  V30 33 C 2.770219 -1.303329 -0.240246 0
M  V30 34 N 4.071587 -1.545038 0.057288 0
M  V30 35 C 4.810486 -0.550193 0.633051 0
M  V30 36 H 6.365306 -3.364315 -0.906985 0
M  V30 37 H 5.379492 -3.395674 0.819647 0
M  V30 38 H 7.931838 0.089953 1.785626 0
M  V30 39 H 6.875309 2.226264 2.241188 0
M  V30 40 H 4.564391 2.575464 1.683871 0
M  V30 41 H 2.675299 2.932212 1.249269 0
M  V30 42 H 0.570379 3.476962 0.555513 0
M  V30 43 H 0.717504 2.157395 -0.580468 0
M  V30 44 H -0.095141 3.074673 2.878139 0
M  V30 45 H -1.798903 2.023085 4.198385 0
M  V30 46 H -2.950502 -0.016225 3.385418 0
M  V30 47 H -1.934094 -2.111967 1.322928 0
M  V30 48 H -4.141840 -3.217920 0.521938 0
M  V30 49 H -2.815352 -4.053771 -1.212331 0
M  V30 50 H -1.936668 -2.577161 -0.791258 0
M  V30 51 H -2.608593 -1.492220 -2.778329 0
M  V30 52 H -3.043892 -3.118632 -3.297225 0
M  V30 53 H -5.243867 -2.645928 -3.145735 0
M  V30 54 H -4.917157 -0.926432 -2.614207 0
M  V30 55 H -0.586054 0.127218 -0.150732 0
M  V30 56 H 2.198066 -2.100855 -0.696085 0
M  V30 END ATOM
M  V30 BEGIN BOND
M  V30 1 1 1 2
M  V30 2 2 2 3
M  V30 3 1 2 4
M  V30 4 2 4 5
M  V30 5 1 5 6
M  V30 6 2 6 7
M  V30 7 1 7 8
M  V30 8 2 8 9
M  V30 9 1 9 10
M  V30 10 1 10 11
M  V30 11 1 11 12
M  V30 12 2 12 13
M  V30 13 1 13 14
M  V30 14 2 14 15
M  V30 15 1 15 16
M  V30 16 1 16 17
M  V30 17 1 17 18
M  V30 18 2 18 19
M  V30 19 1 18 20
M  V30 20 1 20 21
M  V30 21 1 21 22
M  V30 22 1 22 23
M  V30 23 1 23 24
M  V30 24 1 24 25
M  V30 25 2 25 26
M  V30 26 1 25 27
M  V30 27 1 27 28
M  V30 28 1 27 29
M  V30 29 1 27 30
M  V30 30 2 16 31
M  V30 31 1 9 32
M  V30 32 2 32 33
M  V30 33 1 33 34
M  V30 34 2 34 35
M  V30 35 1 35 4
M  V30 36 1 35 8
M  V30 37 1 31 12
M  V30 38 1 24 20
M  V30 39 1 1 36
M  V30 40 1 1 37
M  V30 41 1 5 38
M  V30 42 1 6 39
M  V30 43 1 7 40
M  V30 44 1 10 41
M  V30 45 1 11 42
M  V30 46 1 11 43
M  V30 47 1 13 44
M  V30 48 1 14 45
M  V30 49 1 15 46
M  V30 50 1 17 47
M  V30 51 1 20 48 CFG=1
M  V30 52 1 21 49
M  V30 53 1 21 50
M  V30 54 1 22 51
M  V30 55 1 22 52
M  V30 56 1 23 53
M  V30 57 1 23 54
M  V30 58 1 31 55
M  V30 59 1 33 56
M  V30 END BOND
M  V30 END CTAB
M  END
>  <Dataset>  (276) 
ChEMBL_Kinases

>  <Ligand_Instance>  (276) 
nan

>  <PDB_ID>  (276) 
nan

>  <Standardized_SMILES>  (276) 
NC(=O)c1cccc2c(NCc3cccc(NC(=O)[C@@H]4CCCN4C(=O)C(F)(F)F)c3)ncnc12

>  <Name>  (276) 
nan

>  <Pocket>  (276) 
nan

>  <ATP_Site>  (276) 
nan

>  <Peripheral>  (276) 
nan

>  <Num_H_Atoms_ProtBoundConf>  (276) 
nan

>  <Num_Resolved_Atoms>  (276) 
nan

>  <Num_Not_Resolved_Atoms>  (276) 
nan

$$$$
CHEMBL3685208
     RDKit          3D

  0  0  0  0  0  0  0  0  0  0999 V3000
M  V30 BEGIN CTAB
M  V30 COUNTS 48 51 0 0 0
M  V30 BEGIN ATOM
M  V30 1 N 2.945740 -5.911775 -0.901679 0
M  V30 2 C 2.680556 -5.398494 0.406713 0
M  V30 3 O 2.720641 -6.065028 1.451710 0
M  V30 4 C 2.336536 -3.987690 0.530811 0
M  V30 5 C 2.073046 -3.454193 1.779794 0
M  V30 6 C 1.745818 -2.119587 1.902047 0
M  V30 7 C 1.695101 -1.364042 0.753789 0
M  V30 8 C 1.935789 -1.788261 -0.520769 0
M  V30 9 C 1.887141 -1.045101 -1.684358 0
M  V30 10 N 1.556816 0.329766 -1.538578 0
M  V30 11 C 1.235758 1.672952 -1.413001 0
M  V30 12 C 1.026776 2.187389 -0.019706 0
M  V30 13 C 2.065205 2.738648 0.722718 0
M  V30 14 C 1.868892 3.202594 2.004546 0
M  V30 15 C 0.608697 3.105816 2.537628 0
M  V30 16 C -0.503994 2.568713 1.878018 0
M  V30 17 N -1.769472 2.509055 2.472183 0
M  V30 18 C -2.813253 1.552413 2.416445 0
M  V30 19 C -2.731985 0.330771 1.791406 0
M  V30 20 C -3.752715 -0.583145 1.732753 0
M  V30 21 C -4.948023 -0.269218 2.337941 0
M  V30 22 N -6.035322 -1.173900 2.309252 0
M  V30 23 C -4.997428 0.959415 2.955037 0
M  V30 24 N -3.982039 1.856056 3.006692 0
M  V30 25 C -0.205535 2.133502 0.602637 0
M  V30 26 N 2.171038 -1.745344 -2.790550 0
M  V30 27 C 2.480829 -3.032208 -2.858297 0
M  V30 28 N 2.514478 -3.701325 -1.715101 0
M  V30 29 C 2.252941 -3.127669 -0.542872 0
M  V30 30 H 1.999622 -6.272052 -1.070278 0
M  V30 31 H 1.989852 -6.304507 -1.135093 0
M  V30 32 H 2.115984 -4.055659 2.673252 0
M  V30 33 H 1.536716 -1.687527 2.870114 0
M  V30 34 H 1.438818 -0.339120 0.892645 0
M  V30 35 H 1.602308 0.516382 -2.592997 0
M  V30 36 H 0.317732 2.017850 -1.991691 0
M  V30 37 H 2.086413 2.334345 -1.777064 0
M  V30 38 H 3.056946 2.805490 0.280841 0
M  V30 39 H 2.671618 3.635687 2.594629 0
M  V30 40 H 0.450934 3.472951 3.551759 0
M  V30 41 H -1.918760 3.369029 3.060302 0
M  V30 42 H -1.829945 0.024103 1.314438 0
M  V30 43 H -3.646192 -1.549345 1.221741 0
M  V30 44 H -6.688834 -1.500743 3.041944 0
M  V30 45 H -6.269593 -1.632601 1.390167 0
M  V30 46 H -5.923608 1.268125 3.456104 0
M  V30 47 H -0.975829 1.710854 -0.023605 0
M  V30 48 H 2.667813 -3.360583 -3.869691 0
M  V30 END ATOM
M  V30 BEGIN BOND
M  V30 1 1 1 2
M  V30 2 2 2 3
M  V30 3 1 2 4
M  V30 4 2 4 5
M  V30 5 1 5 6
M  V30 6 2 6 7
M  V30 7 1 7 8
M  V30 8 2 8 9
M  V30 9 1 9 10
M  V30 10 1 10 11
M  V30 11 1 11 12
M  V30 12 2 12 13
M  V30 13 1 13 14
M  V30 14 2 14 15
M  V30 15 1 15 16
M  V30 16 1 16 17
M  V30 17 1 17 18
M  V30 18 2 18 19
M  V30 19 1 19 20
M  V30 20 2 20 21
M  V30 21 1 21 22
M  V30 22 1 21 23
M  V30 23 2 23 24
M  V30 24 2 16 25
M  V30 25 1 9 26
M  V30 26 2 26 27
M  V30 27 1 27 28
M  V30 28 2 28 29
M  V30 29 1 29 4
M  V30 30 1 29 8
M  V30 31 1 25 12
M  V30 32 1 24 18
M  V30 33 1 1 30
M  V30 34 1 1 31
M  V30 35 1 5 32
M  V30 36 1 6 33
M  V30 37 1 7 34
M  V30 38 1 10 35
M  V30 39 1 11 36
M  V30 40 1 11 37
M  V30 41 1 13 38
M  V30 42 1 14 39
M  V30 43 1 15 40
M  V30 44 1 17 41
M  V30 45 1 19 42
M  V30 46 1 20 43
M  V30 47 1 22 44
M  V30 48 1 22 45
M  V30 49 1 23 46
M  V30 50 1 25 47
M  V30 51 1 27 48
M  V30 END BOND
M  V30 END CTAB
M  END
>  <Dataset>  (277) 
ChEMBL_Kinases

>  <Ligand_Instance>  (277) 
nan

>  <PDB_ID>  (277) 
nan

>  <Standardized_SMILES>  (277) 
NC(=O)c1cccc2c(NCc3cccc(Nc4ccc(N)cn4)c3)ncnc12

>  <Name>  (277) 
nan

>  <Pocket>  (277) 
nan

>  <ATP_Site>  (277) 
nan

>  <Peripheral>  (277) 
nan

>  <Num_H_Atoms_ProtBoundConf>  (277) 
nan

>  <Num_Resolved_Atoms>  (277) 
nan

>  <Num_Not_Resolved_Atoms>  (277) 
nan

$$$$
CHEMBL3685227
     RDKit          3D

  0  0  0  0  0  0  0  0  0  0999 V3000
M  V30 BEGIN CTAB
M  V30 COUNTS 70 73 0 0 0
M  V30 BEGIN ATOM
M  V30 1 C 4.101905 0.324583 1.604376 0
M  V30 2 C 4.426599 -0.904203 0.781138 0
M  V30 3 N 4.297866 -0.667287 -0.623885 0
M  V30 4 C 4.568297 -1.857096 -1.355722 0
M  V30 5 C 3.519664 -2.925763 -1.167836 0
M  V30 6 C 3.067045 -0.008707 -0.950520 0
M  V30 7 C 2.927344 0.218590 -2.443515 0
M  V30 8 O 1.720203 0.860788 -2.703528 0
M  V30 9 C 1.186344 1.251704 -3.886733 0
M  V30 10 C 1.872843 1.012897 -5.058531 0
M  V30 11 C 1.338113 1.401466 -6.266573 0
M  V30 12 C 0.110501 2.027165 -6.245528 0
M  V30 13 C -0.574473 2.265779 -5.075933 0
M  V30 14 C -0.037270 1.874191 -3.846565 0
M  V30 15 C -0.850049 2.201304 -2.692845 0
M  V30 16 O -1.972164 2.770527 -2.796902 0
M  V30 17 N -0.579613 1.971244 -1.323926 0
M  V30 18 C -1.443962 2.325292 -0.254660 0
M  V30 19 C -1.429255 3.576603 0.372547 0
M  V30 20 C -2.321291 3.801609 1.421645 0
M  V30 21 C -3.197502 2.822556 1.835707 0
M  V30 22 C -3.177988 1.594584 1.184905 0
M  V30 23 C -4.142072 0.577167 1.694710 0
M  V30 24 N -3.694044 -0.252518 2.730928 0
M  V30 25 C -3.244621 -1.079418 3.771466 0
M  V30 26 N -2.798635 -0.770884 5.008757 0
M  V30 27 C -2.382962 -1.652550 5.916634 0
M  V30 28 N -2.428042 -2.926565 5.529341 0
M  V30 29 C -2.843743 -3.362183 4.345667 0
M  V30 30 C -2.847936 -4.706678 4.054709 0
M  V30 31 C -2.376772 -5.611283 5.094700 0
M  V30 32 N -2.271372 -7.023180 5.126404 0
M  V30 33 O -1.969790 -5.145047 6.201907 0
M  V30 34 C -3.271155 -5.206877 2.843530 0
M  V30 35 C -3.702174 -4.262222 1.908625 0
M  V30 36 C -3.690742 -2.920214 2.216584 0
M  V30 37 C -3.269020 -2.443438 3.421776 0
M  V30 38 C -2.307291 1.323879 0.133964 0
M  V30 39 H 2.993602 0.409000 1.611208 0
M  V30 40 H 4.614658 1.221144 1.268884 0
M  V30 41 H 4.396808 0.101894 2.640913 0
M  V30 42 H 5.434393 -1.240503 1.083968 0
M  V30 43 H 3.702594 -1.682028 1.088984 0
M  V30 44 H 4.689588 -1.701429 -2.451688 0
M  V30 45 H 5.545282 -2.307175 -1.033694 0
M  V30 46 H 3.715154 -3.765543 -1.869643 0
M  V30 47 H 2.505814 -2.536719 -1.372877 0
M  V30 48 H 3.508154 -3.351607 -0.132109 0
M  V30 49 H 3.035889 0.963227 -0.421926 0
M  V30 50 H 2.212700 -0.659773 -0.642189 0
M  V30 51 H 2.900013 -0.747180 -2.997221 0
M  V30 52 H 3.761242 0.816311 -2.817973 0
M  V30 53 H 2.836949 0.520653 -5.037114 0
M  V30 54 H 1.853504 1.226440 -7.201068 0
M  V30 55 H -0.291253 2.323528 -7.190819 0
M  V30 56 H -1.536454 2.768405 -5.183984 0
M  V30 57 H 0.316516 1.509798 -1.073486 0
M  V30 58 H -0.702164 4.248645 -0.044596 0
M  V30 59 H -2.247282 4.798836 1.854194 0
M  V30 60 H -3.852129 3.080620 2.651212 0
M  V30 61 H -5.094142 1.103689 1.908430 0
M  V30 62 H -4.432280 -0.068167 0.778354 0
M  V30 63 H -3.566847 0.669160 3.258442 0
M  V30 64 H -2.058875 -1.227442 6.856635 0
M  V30 65 H -1.314875 -7.359085 4.875184 0
M  V30 66 H -1.315974 -7.360585 4.875539 0
M  V30 67 H -3.227988 -6.281490 2.734038 0
M  V30 68 H -4.031217 -4.662769 0.965165 0
M  V30 69 H -4.034194 -2.264612 1.454774 0
M  V30 70 H -2.348199 0.344619 -0.323849 0
M  V30 END ATOM
M  V30 BEGIN BOND
M  V30 1 1 1 2
M  V30 2 1 2 3
M  V30 3 1 3 4
M  V30 4 1 4 5
M  V30 5 1 3 6
M  V30 6 1 6 7
M  V30 7 1 7 8
M  V30 8 1 8 9
M  V30 9 2 9 10
M  V30 10 1 10 11
M  V30 11 2 11 12
M  V30 12 1 12 13
M  V30 13 2 13 14
M  V30 14 1 14 15
M  V30 15 2 15 16
M  V30 16 1 15 17
M  V30 17 1 17 18
M  V30 18 2 18 19
M  V30 19 1 19 20
M  V30 20 2 20 21
M  V30 21 1 21 22
M  V30 22 1 22 23
M  V30 23 1 23 24
M  V30 24 1 24 25
M  V30 25 2 25 26
M  V30 26 1 26 27
M  V30 27 2 27 28
M  V30 28 1 28 29
M  V30 29 2 29 30
M  V30 30 1 30 31
M  V30 31 1 31 32
M  V30 32 2 31 33
M  V30 33 1 30 34
M  V30 34 2 34 35
M  V30 35 1 35 36
M  V30 36 2 36 37
M  V30 37 2 22 38
M  V30 38 1 14 9
M  V30 39 1 38 18
M  V30 40 1 37 25
M  V30 41 1 37 29
M  V30 42 1 1 39
M  V30 43 1 1 40
M  V30 44 1 1 41
M  V30 45 1 2 42
M  V30 46 1 2 43
M  V30 47 1 4 44
M  V30 48 1 4 45
M  V30 49 1 5 46
M  V30 50 1 5 47
M  V30 51 1 5 48
M  V30 52 1 6 49
M  V30 53 1 6 50
M  V30 54 1 7 51
M  V30 55 1 7 52
M  V30 56 1 10 53
M  V30 57 1 11 54
M  V30 58 1 12 55
M  V30 59 1 13 56
M  V30 60 1 17 57
M  V30 61 1 19 58
M  V30 62 1 20 59
M  V30 63 1 21 60
M  V30 64 1 23 61
M  V30 65 1 23 62
M  V30 66 1 24 63
M  V30 67 1 27 64
M  V30 68 1 32 65
M  V30 69 1 32 66
M  V30 70 1 34 67
M  V30 71 1 35 68
M  V30 72 1 36 69
M  V30 73 1 38 70
M  V30 END BOND
M  V30 END CTAB
M  END
>  <Dataset>  (278) 
ChEMBL_Kinases

>  <Ligand_Instance>  (278) 
nan

>  <PDB_ID>  (278) 
nan

>  <Standardized_SMILES>  (278) 
CCN(CC)CCOc1ccccc1C(=O)Nc1cccc(CNc2ncnc3c(C(N)=O)cccc23)c1

>  <Name>  (278) 
nan

>  <Pocket>  (278) 
nan

>  <ATP_Site>  (278) 
nan

>  <Peripheral>  (278) 
nan

>  <Num_H_Atoms_ProtBoundConf>  (278) 
nan

>  <Num_Resolved_Atoms>  (278) 
nan

>  <Num_Not_Resolved_Atoms>  (278) 
nan

$$$$
CHEMBL3685228
     RDKit          3D

  0  0  0  0  0  0  0  0  0  0999 V3000
M  V30 BEGIN CTAB
M  V30 COUNTS 73 75 0 0 0
M  V30 BEGIN ATOM
M  V30 1 C 2.245521 -5.105040 4.351681 0
M  V30 2 C 2.858108 -4.009238 3.882102 0
M  V30 3 C 3.446765 -3.924829 2.524521 0
M  V30 4 C 2.734667 -2.843168 1.758097 0
M  V30 5 C 2.821766 -1.510677 2.352798 0
M  V30 6 C 2.976844 -0.283619 2.002455 0
M  V30 7 N 3.129486 1.078594 1.864064 0
M  V30 8 C 2.006918 1.798640 1.332120 0
M  V30 9 O 1.086344 0.976447 1.101992 0
M  V30 10 C 1.861619 3.233667 1.066008 0
M  V30 11 C 2.728808 4.211217 1.227680 0
M  V30 12 C 2.544107 5.632908 0.948625 0
M  V30 13 C 1.191663 6.071756 0.537469 0
M  V30 14 C 0.248259 4.933460 0.370045 0
M  V30 15 O -1.077296 5.142764 -0.063901 0
M  V30 16 C -1.676181 4.285433 -1.011442 0
M  V30 17 C -2.971622 3.692193 -0.469647 0
M  V30 18 C -3.627576 2.765842 -1.462290 0
M  V30 19 N -4.854877 2.185457 -0.929558 0
M  V30 20 C -5.446932 1.286270 -1.888733 0
M  V30 21 C -5.779711 3.275347 -0.678540 0
M  V30 22 C 0.528681 3.656464 0.599763 0
M  V30 23 C 2.965088 -2.871113 0.278067 0
M  V30 24 N 2.475777 -4.092584 -0.362970 0
M  V30 25 C 1.068414 -4.298827 -0.378371 0
M  V30 26 N 0.225069 -3.450429 0.122663 0
M  V30 27 C -1.095456 -3.489256 0.183717 0
M  V30 28 N -1.631363 -4.620635 -0.380732 0
M  V30 29 C -0.853649 -5.565183 -0.932090 0
M  V30 30 C -1.504900 -6.676136 -1.479892 0
M  V30 31 C -2.944693 -6.852418 -1.479890 0
M  V30 32 N -3.685437 -5.813879 -0.812491 0
M  V30 33 O -3.566749 -7.812532 -2.000597 0
M  V30 34 C -0.658395 -7.594884 -2.021436 0
M  V30 35 C 0.728715 -7.541905 -2.081693 0
M  V30 36 C 1.247364 -6.416325 -1.515711 0
M  V30 37 C 0.501429 -5.390733 -0.923786 0
M  V30 38 H 1.807636 -5.192618 5.338479 0
M  V30 39 H 2.150150 -5.974421 3.753453 0
M  V30 40 H 2.910851 -3.171074 4.565275 0
M  V30 41 H 3.328561 -4.850471 1.969318 0
M  V30 42 H 4.521346 -3.604025 2.564806 0
M  V30 43 H 1.613420 -3.117851 1.907428 0
M  V30 44 H 2.757246 -1.258641 3.421155 0
M  V30 45 H 3.127373 -0.472801 0.892007 0
M  V30 46 H 3.963168 1.664276 2.099278 0
M  V30 47 H 3.673295 3.872748 1.610617 0
M  V30 48 H 2.939933 6.277171 1.779456 0
M  V30 49 H 3.237548 5.893728 0.087274 0
M  V30 50 H 1.215766 6.571147 -0.473423 0
M  V30 51 H 0.792126 6.829962 1.256619 0
M  V30 52 H -0.968061 3.493046 -1.302296 0
M  V30 53 H -2.004291 4.897054 -1.897279 0
M  V30 54 H -2.637850 3.064797 0.402390 0
M  V30 55 H -3.651446 4.451282 -0.077534 0
M  V30 56 H -3.855357 3.379983 -2.377267 0
M  V30 57 H -2.948468 1.950894 -1.777076 0
M  V30 58 H -5.518894 1.769286 -2.874437 0
M  V30 59 H -4.950560 0.295990 -1.946360 0
M  V30 60 H -6.491773 1.059686 -1.567445 0
M  V30 61 H -5.583563 3.776200 0.304550 0
M  V30 62 H -5.716677 4.026181 -1.506772 0
M  V30 63 H -6.795499 2.782985 -0.679830 0
M  V30 64 H -0.236542 2.886120 0.447445 0
M  V30 65 H 2.378124 -1.991065 -0.130482 0
M  V30 66 H 4.029408 -2.740556 0.049677 0
M  V30 67 H 3.179512 -4.723265 -0.757821 0
M  V30 68 H -1.769097 -2.754955 0.606223 0
M  V30 69 H -4.160707 -5.240449 -0.092974 0
M  V30 70 H -3.810217 -5.305678 -1.739661 0
M  V30 71 H -1.178498 -8.460822 -2.450640 0
M  V30 72 H 1.313532 -8.325277 -2.533622 0
M  V30 73 H 2.332662 -6.327241 -1.537495 0
M  V30 END ATOM
M  V30 BEGIN BOND
M  V30 1 2 1 2
M  V30 2 1 2 3
M  V30 3 1 3 4
M  V30 4 1 4 5
M  V30 5 2 5 6
M  V30 6 1 6 7
M  V30 7 1 7 8
M  V30 8 2 8 9
M  V30 9 1 8 10
M  V30 10 2 10 11
M  V30 11 1 11 12
M  V30 12 1 12 13
M  V30 13 1 13 14
M  V30 14 1 14 15
M  V30 15 1 15 16
M  V30 16 1 16 17
M  V30 17 1 17 18
M  V30 18 1 18 19
M  V30 19 1 19 20
M  V30 20 1 19 21
M  V30 21 2 14 22
M  V30 22 1 4 23
M  V30 23 1 23 24
M  V30 24 1 24 25
M  V30 25 2 25 26
M  V30 26 1 26 27
M  V30 27 2 27 28
M  V30 28 1 28 29
M  V30 29 2 29 30
M  V30 30 1 30 31
M  V30 31 1 31 32
M  V30 32 2 31 33
M  V30 33 1 30 34
M  V30 34 2 34 35
M  V30 35 1 35 36
M  V30 36 2 36 37
M  V30 37 1 22 10
M  V30 38 1 37 25
M  V30 39 1 37 29
M  V30 40 1 1 38
M  V30 41 1 1 39
M  V30 42 1 2 40
M  V30 43 1 3 41
M  V30 44 1 3 42
M  V30 45 1 4 43
M  V30 46 1 5 44
M  V30 47 1 6 45
M  V30 48 1 7 46
M  V30 49 1 11 47
M  V30 50 1 12 48
M  V30 51 1 12 49
M  V30 52 1 13 50
M  V30 53 1 13 51
M  V30 54 1 16 52
M  V30 55 1 16 53
M  V30 56 1 17 54
M  V30 57 1 17 55
M  V30 58 1 18 56
M  V30 59 1 18 57
M  V30 60 1 20 58
M  V30 61 1 20 59
M  V30 62 1 20 60
M  V30 63 1 21 61
M  V30 64 1 21 62
M  V30 65 1 21 63
M  V30 66 1 22 64
M  V30 67 1 23 65
M  V30 68 1 23 66
M  V30 69 1 24 67
M  V30 70 1 27 68
M  V30 71 1 32 69
M  V30 72 1 32 70
M  V30 73 1 34 71
M  V30 74 1 35 72
M  V30 75 1 36 73
M  V30 END BOND
M  V30 END CTAB
M  END
>  <Dataset>  (279) 
ChEMBL_Kinases

>  <Ligand_Instance>  (279) 
nan

>  <PDB_ID>  (279) 
nan

>  <Standardized_SMILES>  (279) 
C=CCC(/C=C/NC(=O)C1=CCCC(OCCCN(C)C)=C1)CNc1ncnc2c(C(N)=O)cccc12

>  <Name>  (279) 
nan

>  <Pocket>  (279) 
nan

>  <ATP_Site>  (279) 
nan

>  <Peripheral>  (279) 
nan

>  <Num_H_Atoms_ProtBoundConf>  (279) 
nan

>  <Num_Resolved_Atoms>  (279) 
nan

>  <Num_Not_Resolved_Atoms>  (279) 
nan

$$$$
CHEMBL3685233
     RDKit          3D

  0  0  0  0  0  0  0  0  0  0999 V3000
M  V30 BEGIN CTAB
M  V30 COUNTS 60 64 0 0 0
M  V30 BEGIN ATOM
M  V30 1 C -1.422999 -0.077568 5.182738 0
M  V30 2 C -1.231059 0.683492 3.857768 0 CFG=1
M  V30 3 N 0.107589 0.925672 3.608207 0
M  V30 4 C 1.453793 1.165549 3.357177 0
M  V30 5 N 2.470990 0.304987 3.173540 0
M  V30 6 C 3.724790 0.687949 2.960651 0
M  V30 7 N 3.966001 1.999350 2.931339 0
M  V30 8 C 3.032814 2.933691 3.100538 0
M  V30 9 C 3.429334 4.235021 3.041631 0
M  V30 10 C 4.698787 4.820198 2.837010 0
M  V30 11 N 5.683330 3.756445 2.684157 0
M  V30 12 O 5.862666 5.255446 2.649953 0
M  V30 13 C 2.474988 5.239908 3.211800 0
M  V30 14 C 1.128988 4.918934 3.440079 0
M  V30 15 C 0.880412 3.566041 3.473455 0
M  V30 16 C 1.746967 2.532919 3.318408 0
M  V30 17 C -2.138356 0.109878 2.885009 0
M  V30 18 C -3.428039 0.592584 2.661813 0
M  V30 19 C -4.264321 0.007070 1.728669 0
M  V30 20 C -3.797149 -1.093962 0.996851 0
M  V30 21 C -2.504074 -1.595587 1.204334 0
M  V30 22 N -2.307337 -2.703679 0.340430 0
M  V30 23 C -1.831319 -2.287689 -0.931379 0
M  V30 24 O -1.692662 -1.020625 -1.001588 0
M  V30 25 C -1.525189 -3.174354 -2.054537 0
M  V30 26 C -1.617939 -4.565559 -1.995990 0
M  V30 27 C -1.314282 -5.341171 -3.111982 0
M  V30 28 C -0.925749 -4.648292 -4.247829 0
M  V30 29 N -0.626162 -5.509294 -5.367753 0
M  V30 30 C -0.971765 -5.191617 -6.630167 0
M  V30 31 C -0.524243 -6.239688 -7.406307 0
M  V30 32 C 0.094723 -7.200229 -6.628428 0
M  V30 33 C 0.005202 -6.690517 -5.336900 0
M  V30 34 C -0.817464 -3.280747 -4.360924 0
M  V30 35 C -1.130125 -2.557972 -3.224830 0
M  V30 36 C -1.720163 -0.969790 2.146396 0
M  V30 37 H -2.355839 -0.693459 5.163594 0
M  V30 38 H -0.529532 -0.751566 5.266765 0
M  V30 39 H -1.441503 0.586121 6.045716 0
M  V30 40 H -1.704006 1.695607 4.122723 0
M  V30 41 H 0.126040 -0.148238 3.529617 0
M  V30 42 H 4.500192 -0.032290 2.820518 0
M  V30 43 H 6.114098 2.794463 2.544300 0
M  V30 44 H 6.117653 2.805858 2.545717 0
M  V30 45 H 2.691947 6.313153 3.181805 0
M  V30 46 H 0.348756 5.654908 3.578638 0
M  V30 47 H -0.154861 3.335045 3.647422 0
M  V30 48 H -3.716072 1.450511 3.269539 0
M  V30 49 H -5.223014 0.457417 1.642244 0
M  V30 50 H -4.576222 -1.429951 0.311076 0
M  V30 51 H -2.449684 -3.748960 0.476436 0
M  V30 52 H -1.931906 -4.995552 -1.055869 0
M  V30 53 H -1.385973 -6.415275 -3.067623 0
M  V30 54 H -1.480720 -4.342947 -7.047286 0
M  V30 55 H -0.613785 -6.355546 -8.480295 0
M  V30 56 H 0.564508 -8.146502 -6.859114 0
M  V30 57 H 0.387724 -7.179669 -4.463541 0
M  V30 58 H -0.506003 -2.833442 -5.292611 0
M  V30 59 H -1.049063 -1.484639 -3.305025 0
M  V30 60 H -0.747036 -1.466807 2.196781 0
M  V30 END ATOM
M  V30 BEGIN BOND
M  V30 1 1 1 2
M  V30 2 1 2 3
M  V30 3 1 3 4
M  V30 4 2 4 5
M  V30 5 1 5 6
M  V30 6 2 6 7
M  V30 7 1 7 8
M  V30 8 2 8 9
M  V30 9 1 9 10
M  V30 10 1 10 11
M  V30 11 2 10 12
M  V30 12 1 9 13
M  V30 13 2 13 14
M  V30 14 1 14 15
M  V30 15 2 15 16
M  V30 16 1 2 17
M  V30 17 2 17 18
M  V30 18 1 18 19
M  V30 19 2 19 20
M  V30 20 1 20 21
M  V30 21 1 21 22
M  V30 22 1 22 23
M  V30 23 2 23 24
M  V30 24 1 23 25
M  V30 25 2 25 26
M  V30 26 1 26 27
M  V30 27 2 27 28
M  V30 28 1 28 29
M  V30 29 1 29 30
M  V30 30 2 30 31
M  V30 31 1 31 32
M  V30 32 2 32 33
M  V30 33 1 28 34
M  V30 34 2 34 35
M  V30 35 2 21 36
M  V30 36 1 16 4
M  V30 37 1 36 17
M  V30 38 1 16 8
M  V30 39 1 35 25
M  V30 40 1 33 29
M  V30 41 1 1 37
M  V30 42 1 1 38
M  V30 43 1 1 39
M  V30 44 1 2 40 CFG=1
M  V30 45 1 3 41
M  V30 46 1 6 42
M  V30 47 1 11 43
M  V30 48 1 11 44
M  V30 49 1 13 45
M  V30 50 1 14 46
M  V30 51 1 15 47
M  V30 52 1 18 48
M  V30 53 1 19 49
M  V30 54 1 20 50
M  V30 55 1 22 51
M  V30 56 1 26 52
M  V30 57 1 27 53
M  V30 58 1 30 54
M  V30 59 1 31 55
M  V30 60 1 32 56
M  V30 61 1 33 57
M  V30 62 1 34 58
M  V30 63 1 35 59
M  V30 64 1 36 60
M  V30 END BOND
M  V30 END CTAB
M  END
>  <Dataset>  (280) 
ChEMBL_Kinases

>  <Ligand_Instance>  (280) 
nan

>  <PDB_ID>  (280) 
nan

>  <Standardized_SMILES>  (280) 
C[C@@H](Nc1ncnc2c(C(N)=O)cccc12)c1cccc(NC(=O)c2ccc(-n3cccc3)cc2)c1

>  <Name>  (280) 
nan

>  <Pocket>  (280) 
nan

>  <ATP_Site>  (280) 
nan

>  <Peripheral>  (280) 
nan

>  <Num_H_Atoms_ProtBoundConf>  (280) 
nan

>  <Num_Resolved_Atoms>  (280) 
nan

>  <Num_Not_Resolved_Atoms>  (280) 
nan

$$$$
CHEMBL3684991
     RDKit          3D

  0  0  0  0  0  0  0  0  0  0999 V3000
M  V30 BEGIN CTAB
M  V30 COUNTS 58 63 0 0 0
M  V30 BEGIN ATOM
M  V30 1 C 0.796354 -3.397227 -0.038047 0
M  V30 2 C 1.492493 -2.140097 0.399615 0 CFG=1
M  V30 3 C 1.300791 -2.016599 1.911515 0
M  V30 4 C 2.132442 -0.937172 2.523165 0
M  V30 5 C 2.948295 -0.121149 1.594857 0 CFG=2
M  V30 6 N 2.260511 1.076786 1.090260 0
M  V30 7 C 2.912058 2.062777 0.447485 0
M  V30 8 C 4.208907 2.330299 0.069484 0
M  V30 9 N 4.610177 3.432334 -0.587614 0
M  V30 10 C 3.717842 4.380909 -0.927616 0
M  V30 11 C 2.383764 4.160101 -0.567552 0
M  V30 12 C 1.985137 3.024869 0.106607 0
M  V30 13 C 0.749178 2.610634 0.552913 0
M  V30 14 C -0.521898 3.118951 0.514247 0
M  V30 15 N -1.551556 2.466454 1.047730 0
M  V30 16 C -1.332067 1.268323 1.644255 0
M  V30 17 N -2.293114 0.401430 2.270409 0
M  V30 18 C -2.898199 -0.687868 1.631338 0
M  V30 19 C -2.556352 -0.967367 0.328041 0
M  V30 20 C -3.188269 -2.062332 -0.238401 0
M  V30 21 C -4.097834 -2.797129 0.498150 0
M  V30 22 C -4.408342 -2.478051 1.801315 0
M  V30 23 N -3.787221 -1.399624 2.362939 0
M  V30 24 C -4.783696 -3.963845 -0.070576 0
M  V30 25 N -4.228829 -4.380437 -1.343463 0
M  V30 26 C -3.925529 -3.256916 -2.208793 0
M  V30 27 C -2.827028 -2.381069 -1.649623 0
M  V30 28 N -0.090676 0.757991 1.689606 0
M  V30 29 C 0.954335 1.390564 1.163459 0
M  V30 30 C 3.565748 -0.854193 0.441330 0
M  V30 31 C 3.010040 -2.233699 0.233531 0
M  V30 32 H 0.870159 -3.503273 -1.136925 0
M  V30 33 H 1.291444 -4.260553 0.472805 0
M  V30 34 H -0.258932 -3.308606 0.266663 0
M  V30 35 H 1.168610 -1.249552 -0.140323 0
M  V30 36 H 1.637143 -3.022603 2.302525 0
M  V30 37 H 0.228035 -1.971523 2.199197 0
M  V30 38 H 2.832462 -1.388881 3.287635 0
M  V30 39 H 1.516856 -0.231661 3.132924 0
M  V30 40 H 3.807801 0.309104 2.180124 0
M  V30 41 H 4.975513 1.585220 0.324073 0
M  V30 42 H 4.012777 5.289059 -1.461781 0
M  V30 43 H 1.621622 4.896706 -0.818175 0
M  V30 44 H -0.703458 4.073452 0.040768 0
M  V30 45 H -2.470415 0.699384 3.254429 0
M  V30 46 H -1.840782 -0.371607 -0.219058 0
M  V30 47 H -5.116155 -3.039031 2.393409 0
M  V30 48 H -5.887473 -3.860096 -0.093758 0
M  V30 49 H -4.583518 -4.819720 0.629749 0
M  V30 50 H -3.406495 -5.009733 -1.225239 0
M  V30 51 H -4.850620 -2.634287 -2.285124 0
M  V30 52 H -3.591682 -3.650946 -3.170914 0
M  V30 53 H -2.886462 -1.403080 -2.198195 0
M  V30 54 H -1.839675 -2.863041 -1.740897 0
M  V30 55 H 4.668164 -0.953242 0.515732 0
M  V30 56 H 3.383357 -0.297065 -0.500649 0
M  V30 57 H 3.200638 -2.567194 -0.813251 0
M  V30 58 H 3.428231 -2.892729 1.000955 0
M  V30 END ATOM
M  V30 BEGIN BOND
M  V30 1 1 1 2
M  V30 2 1 2 3
M  V30 3 1 3 4
M  V30 4 1 4 5
M  V30 5 1 5 6
M  V30 6 1 6 7
M  V30 7 2 7 8
M  V30 8 1 8 9
M  V30 9 2 9 10
M  V30 10 1 10 11
M  V30 11 2 11 12
M  V30 12 1 12 13
M  V30 13 2 13 14
M  V30 14 1 14 15
M  V30 15 2 15 16
M  V30 16 1 16 17
M  V30 17 1 17 18
M  V30 18 2 18 19
M  V30 19 1 19 20
M  V30 20 2 20 21
M  V30 21 1 21 22
M  V30 22 2 22 23
M  V30 23 1 21 24
M  V30 24 1 24 25
M  V30 25 1 25 26
M  V30 26 1 26 27
M  V30 27 1 16 28
M  V30 28 2 28 29
M  V30 29 1 5 30
M  V30 30 1 30 31
M  V30 31 1 31 2
M  V30 32 1 29 6
M  V30 33 1 12 7
M  V30 34 1 29 13
M  V30 35 1 23 18
M  V30 36 1 27 20
M  V30 37 1 1 32
M  V30 38 1 1 33
M  V30 39 1 1 34
M  V30 40 1 2 35 CFG=3
M  V30 41 1 3 36
M  V30 42 1 3 37
M  V30 43 1 4 38
M  V30 44 1 4 39
M  V30 45 1 5 40 CFG=1
M  V30 46 1 8 41
M  V30 47 1 10 42
M  V30 48 1 11 43
M  V30 49 1 14 44
M  V30 50 1 17 45
M  V30 51 1 19 46
M  V30 52 1 22 47
M  V30 53 1 24 48
M  V30 54 1 24 49
M  V30 55 1 25 50
M  V30 56 1 26 51
M  V30 57 1 26 52
M  V30 58 1 27 53
M  V30 59 1 27 54
M  V30 60 1 30 55
M  V30 61 1 30 56
M  V30 62 1 31 57
M  V30 63 1 31 58
M  V30 END BOND
M  V30 END CTAB
M  END
>  <Dataset>  (281) 
ChEMBL_Kinases

>  <Ligand_Instance>  (281) 
nan

>  <PDB_ID>  (281) 
nan

>  <Standardized_SMILES>  (281) 
C[C@H]1CC[C@H](n2c3cnccc3c3cnc(Nc4cc5c(cn4)CNCC5)nc32)CC1

>  <Name>  (281) 
nan

>  <Pocket>  (281) 
nan

>  <ATP_Site>  (281) 
nan

>  <Peripheral>  (281) 
nan

>  <Num_H_Atoms_ProtBoundConf>  (281) 
nan

>  <Num_Resolved_Atoms>  (281) 
nan

>  <Num_Not_Resolved_Atoms>  (281) 
nan

$$$$
CHEMBL3680728
     RDKit          3D

  0  0  0  0  0  0  0  0  0  0999 V3000
M  V30 BEGIN CTAB
M  V30 COUNTS 60 64 0 0 0
M  V30 BEGIN ATOM
M  V30 1 C 5.736199 -2.107940 4.497317 0
M  V30 2 N 7.067813 -1.509687 4.411216 0
M  V30 3 C 7.032592 -0.224420 5.063242 0
M  V30 4 C 7.014482 0.929693 4.099490 0
M  V30 5 C 6.029866 0.692859 2.982064 0
M  V30 6 N 5.097218 1.520815 2.580971 0
M  V30 7 C 4.345589 1.033751 1.534788 0
M  V30 8 N 3.245769 1.634838 0.826879 0
M  V30 9 C 1.909147 1.452792 1.242580 0
M  V30 10 O 1.733279 0.735515 2.268404 0
M  V30 11 C 0.788937 2.060657 0.525006 0
M  V30 12 C 0.936313 2.853367 -0.594070 0
M  V30 13 C -0.162849 3.410907 -1.248949 0
M  V30 14 C -1.410474 3.137026 -0.730511 0
M  V30 15 C -1.621456 2.352854 0.383658 0
M  V30 16 C -2.942388 2.023055 0.979049 0
M  V30 17 N -3.409268 0.787002 0.382185 0
M  V30 18 C -3.974671 0.569388 -0.899649 0
M  V30 19 O -4.104883 1.573263 -1.651828 0
M  V30 20 C -4.394593 -0.731806 -1.357487 0
M  V30 21 C -4.302391 -1.892477 -0.653225 0
M  V30 22 C -4.698319 -3.145174 -1.072342 0
M  V30 23 C -5.252631 -3.244232 -2.350320 0
M  V30 24 C -5.676372 -4.561326 -2.811542 0
M  V30 25 C -6.740113 -4.717262 -3.683725 0
M  V30 26 C -7.050652 -6.021750 -4.053533 0
M  V30 27 N -6.400607 -7.136778 -3.631257 0
M  V30 28 C -5.357292 -6.967817 -2.774310 0
M  V30 29 C -4.998498 -5.698766 -2.368829 0
M  V30 30 C -5.367104 -2.094941 -3.102735 0
M  V30 31 C -4.948865 -0.873587 -2.617287 0
M  V30 32 C -0.496358 1.836673 0.978003 0
M  V30 33 S 5.053487 -0.647063 1.179960 0
M  V30 34 C 6.262712 -0.569935 2.420793 0
M  V30 35 C 7.361259 -1.391456 2.992478 0
M  V30 36 H 5.150510 -1.669732 5.346803 0
M  V30 37 H 5.763842 -3.201208 4.650408 0
M  V30 38 H 5.130517 -1.895488 3.577537 0
M  V30 39 H 6.171110 -0.215288 5.757155 0
M  V30 40 H 7.964046 -0.140647 5.661447 0
M  V30 41 H 6.783344 1.831401 4.690742 0
M  V30 42 H 7.999482 1.081021 3.614379 0
M  V30 43 H 3.494235 2.213228 -0.011779 0
M  V30 44 H 1.906946 3.051323 -0.975885 0
M  V30 45 H -0.042147 4.030643 -2.124568 0
M  V30 46 H -2.276413 3.556788 -1.215278 0
M  V30 47 H -2.927097 1.989656 2.067665 0
M  V30 48 H -3.659282 2.805531 0.602683 0
M  V30 49 H -3.306089 -0.049062 0.998280 0
M  V30 50 H -3.881363 -1.875930 0.342241 0
M  V30 51 H -4.588105 -4.031749 -0.439323 0
M  V30 52 H -7.294797 -3.887386 -4.054508 0
M  V30 53 H -7.890993 -6.152604 -4.743951 0
M  V30 54 H -4.779310 -7.811156 -2.384948 0
M  V30 55 H -4.155589 -5.593519 -1.678701 0
M  V30 56 H -5.804766 -2.182825 -4.108754 0
M  V30 57 H -5.088030 -0.042359 -3.294860 0
M  V30 58 H -0.609270 1.210293 1.862318 0
M  V30 59 H 8.360178 -1.011239 2.792744 0
M  V30 60 H 7.230836 -2.422693 2.586539 0
M  V30 END ATOM
M  V30 BEGIN BOND
M  V30 1 1 1 2
M  V30 2 1 2 3
M  V30 3 1 3 4
M  V30 4 1 4 5
M  V30 5 1 5 6
M  V30 6 2 6 7
M  V30 7 1 7 8
M  V30 8 1 8 9
M  V30 9 2 9 10
M  V30 10 1 9 11
M  V30 11 2 11 12
M  V30 12 1 12 13
M  V30 13 2 13 14
M  V30 14 1 14 15
M  V30 15 1 15 16
M  V30 16 1 16 17
M  V30 17 1 17 18
M  V30 18 2 18 19
M  V30 19 1 18 20
M  V30 20 2 20 21
M  V30 21 1 21 22
M  V30 22 2 22 23
M  V30 23 1 23 24
M  V30 24 2 24 25
M  V30 25 1 25 26
M  V30 26 2 26 27
M  V30 27 1 27 28
M  V30 28 2 28 29
M  V30 29 1 23 30
M  V30 30 2 30 31
M  V30 31 2 15 32
M  V30 32 1 7 33
M  V30 33 1 33 34
M  V30 34 1 34 35
M  V30 35 1 35 2
M  V30 36 2 34 5
M  V30 37 1 32 11
M  V30 38 1 31 20
M  V30 39 1 29 24
M  V30 40 1 1 36
M  V30 41 1 1 37
M  V30 42 1 1 38
M  V30 43 1 3 39
M  V30 44 1 3 40
M  V30 45 1 4 41
M  V30 46 1 4 42
M  V30 47 1 8 43
M  V30 48 1 12 44
M  V30 49 1 13 45
M  V30 50 1 14 46
M  V30 51 1 16 47
M  V30 52 1 16 48
M  V30 53 1 17 49
M  V30 54 1 21 50
M  V30 55 1 22 51
M  V30 56 1 25 52
M  V30 57 1 26 53
M  V30 58 1 28 54
M  V30 59 1 29 55
M  V30 60 1 30 56
M  V30 61 1 31 57
M  V30 62 1 32 58
M  V30 63 1 35 59
M  V30 64 1 35 60
M  V30 END BOND
M  V30 END CTAB
M  END
>  <Dataset>  (282) 
ChEMBL_Kinases

>  <Ligand_Instance>  (282) 
nan

>  <PDB_ID>  (282) 
nan

>  <Standardized_SMILES>  (282) 
CN1CCc2nc(NC(=O)c3cccc(CNC(=O)c4ccc(-c5ccncc5)cc4)c3)sc2C1

>  <Name>  (282) 
nan

>  <Pocket>  (282) 
nan

>  <ATP_Site>  (282) 
nan

>  <Peripheral>  (282) 
nan

>  <Num_H_Atoms_ProtBoundConf>  (282) 
nan

>  <Num_Resolved_Atoms>  (282) 
nan

>  <Num_Not_Resolved_Atoms>  (282) 
nan

$$$$
CHEMBL3680727
     RDKit          3D

  0  0  0  0  0  0  0  0  0  0999 V3000
M  V30 BEGIN CTAB
M  V30 COUNTS 63 67 0 0 0
M  V30 BEGIN ATOM
M  V30 1 C 4.680190 0.149680 1.150133 0
M  V30 2 N 5.387630 1.351021 1.560906 0
M  V30 3 C 6.179701 1.906392 0.496404 0
M  V30 4 C 5.849446 3.339392 0.149141 0
M  V30 5 C 4.392838 3.576393 0.118037 0
M  V30 6 C 3.740114 4.258620 -0.859718 0
M  V30 7 C 2.359017 4.422798 -0.809778 0
M  V30 8 C 1.674112 3.881536 0.246320 0
M  V30 9 N 0.244940 3.940803 0.470907 0
M  V30 10 C -0.237976 2.788115 -0.212599 0
M  V30 11 O 0.705569 2.132578 -0.760853 0
M  V30 12 C -1.663618 2.391698 -0.283183 0
M  V30 13 C -2.660568 3.075995 0.375755 0
M  V30 14 C -3.957066 2.593740 0.206047 0
M  V30 15 C -4.201069 1.491251 -0.582861 0
M  V30 16 C -3.215601 0.795867 -1.248406 0
M  V30 17 C -3.376613 -0.372069 -2.118302 0
M  V30 18 N -3.338495 -1.639683 -1.424799 0
M  V30 19 C -4.388010 -2.218261 -0.662090 0
M  V30 20 O -5.482643 -1.628978 -0.534670 0
M  V30 21 C -4.166086 -3.523265 -0.025563 0
M  V30 22 C -5.056273 -4.280301 0.688433 0
M  V30 23 C -4.465110 -5.461582 1.138146 0
M  V30 24 C -4.824938 -6.578496 1.869885 0
M  V30 25 C -3.873148 -7.569743 2.093282 0
M  V30 26 C -2.579571 -7.503776 1.624436 0
M  V30 27 C -1.596442 -8.575599 1.884262 0
M  V30 28 N -0.284480 -8.308287 1.400431 0
M  V30 29 O -2.038531 -9.592676 2.501347 0
M  V30 30 C -2.261720 -6.370502 0.897671 0
M  V30 31 C -3.176817 -5.369900 0.656141 0
M  V30 32 N -3.030870 -4.219949 -0.023642 0
M  V30 33 C -1.908395 1.271558 -1.084729 0
M  V30 34 C 2.306597 3.172558 1.274895 0
M  V30 35 C 3.672264 3.031379 1.190143 0
M  V30 36 C 4.513837 2.318762 2.183121 0
M  V30 37 H 5.347875 -0.445718 0.506483 0
M  V30 38 H 3.765842 0.396879 0.586849 0
M  V30 39 H 4.465211 -0.486630 2.045790 0
M  V30 40 H 6.104024 1.208513 -0.363144 0
M  V30 41 H 7.237808 1.890900 0.822133 0
M  V30 42 H 6.355000 3.977496 0.877044 0
M  V30 43 H 6.275371 3.521723 -0.877830 0
M  V30 44 H 4.275280 4.676664 -1.675604 0
M  V30 45 H 1.764608 4.947877 -1.539995 0
M  V30 46 H -0.449601 4.554905 0.957045 0
M  V30 47 H -2.389502 3.917628 0.966366 0
M  V30 48 H -4.754297 3.117110 0.715330 0
M  V30 49 H -5.224814 1.105796 -0.719008 0
M  V30 50 H -2.607601 -0.348137 -2.918901 0
M  V30 51 H -4.400841 -0.308465 -2.563287 0
M  V30 52 H -2.432912 -2.188420 -1.495966 0
M  V30 53 H -6.091651 -4.038223 0.902939 0
M  V30 54 H -5.835429 -6.613483 2.227549 0
M  V30 55 H -4.166596 -8.458870 2.676219 0
M  V30 56 H 0.345355 -9.136596 1.613803 0
M  V30 57 H 0.447807 -9.072550 1.557084 0
M  V30 58 H -1.258908 -6.298817 0.522408 0
M  V30 59 H -2.150319 -3.918932 -0.482738 0
M  V30 60 H -1.080004 0.756903 -1.592596 0
M  V30 61 H 1.811408 2.728440 2.128364 0
M  V30 62 H 3.894747 1.828230 2.945056 0
M  V30 63 H 5.174459 3.076143 2.654249 0
M  V30 END ATOM
M  V30 BEGIN BOND
M  V30 1 1 1 2
M  V30 2 1 2 3
M  V30 3 1 3 4
M  V30 4 1 4 5
M  V30 5 2 5 6
M  V30 6 1 6 7
M  V30 7 2 7 8
M  V30 8 1 8 9
M  V30 9 1 9 10
M  V30 10 2 10 11
M  V30 11 1 10 12
M  V30 12 2 12 13
M  V30 13 1 13 14
M  V30 14 2 14 15
M  V30 15 1 15 16
M  V30 16 1 16 17
M  V30 17 1 17 18
M  V30 18 1 18 19
M  V30 19 2 19 20
M  V30 20 1 19 21
M  V30 21 2 21 22
M  V30 22 1 22 23
M  V30 23 2 23 24
M  V30 24 1 24 25
M  V30 25 2 25 26
M  V30 26 1 26 27
M  V30 27 1 27 28
M  V30 28 2 27 29
M  V30 29 1 26 30
M  V30 30 2 30 31
M  V30 31 1 31 32
M  V30 32 2 16 33
M  V30 33 1 8 34
M  V30 34 2 34 35
M  V30 35 1 35 36
M  V30 36 1 36 2
M  V30 37 1 35 5
M  V30 38 1 33 12
M  V30 39 1 32 21
M  V30 40 1 31 23
M  V30 41 1 1 37
M  V30 42 1 1 38
M  V30 43 1 1 39
M  V30 44 1 3 40
M  V30 45 1 3 41
M  V30 46 1 4 42
M  V30 47 1 4 43
M  V30 48 1 6 44
M  V30 49 1 7 45
M  V30 50 1 9 46
M  V30 51 1 13 47
M  V30 52 1 14 48
M  V30 53 1 15 49
M  V30 54 1 17 50
M  V30 55 1 17 51
M  V30 56 1 18 52
M  V30 57 1 22 53
M  V30 58 1 24 54
M  V30 59 1 25 55
M  V30 60 1 28 56
M  V30 61 1 28 57
M  V30 62 1 30 58
M  V30 63 1 32 59
M  V30 64 1 33 60
M  V30 65 1 34 61
M  V30 66 1 36 62
M  V30 67 1 36 63
M  V30 END BOND
M  V30 END CTAB
M  END
>  <Dataset>  (283) 
ChEMBL_Kinases

>  <Ligand_Instance>  (283) 
nan

>  <PDB_ID>  (283) 
nan

>  <Standardized_SMILES>  (283) 
CN1CCc2ccc(NC(=O)c3cccc(CNC(=O)c4cc5ccc(C(N)=O)cc5[nH]4)c3)cc2C1

>  <Name>  (283) 
nan

>  <Pocket>  (283) 
nan

>  <ATP_Site>  (283) 
nan

>  <Peripheral>  (283) 
nan

>  <Num_H_Atoms_ProtBoundConf>  (283) 
nan

>  <Num_Resolved_Atoms>  (283) 
nan

>  <Num_Not_Resolved_Atoms>  (283) 
nan

$$$$
CHEMBL3680726
     RDKit          3D

  0  0  0  0  0  0  0  0  0  0999 V3000
M  V30 BEGIN CTAB
M  V30 COUNTS 64 68 0 0 0
M  V30 BEGIN ATOM
M  V30 1 C 3.611865 0.856337 5.103167 0
M  V30 2 N 4.739091 1.727282 4.872717 0
M  V30 3 C 5.813238 0.957054 4.311502 0
M  V30 4 C 5.928765 1.064627 2.808350 0
M  V30 5 C 4.593457 1.231985 2.168760 0
M  V30 6 C 4.127482 0.587353 1.063067 0
M  V30 7 C 2.863752 0.838209 0.575396 0
M  V30 8 C 2.055609 1.771962 1.234817 0
M  V30 9 N 0.768500 1.970460 0.668646 0
M  V30 10 C 0.242883 2.847831 -0.315380 0
M  V30 11 O 0.964181 3.693615 -0.902204 0
M  V30 12 C -1.167300 2.775798 -0.662992 0
M  V30 13 C -1.601398 3.655158 -1.633489 0
M  V30 14 C -2.953933 3.612358 -1.993310 0
M  V30 15 C -3.846373 2.718119 -1.401588 0
M  V30 16 C -3.379116 1.839201 -0.421566 0
M  V30 17 C -4.396472 0.926622 0.154621 0
M  V30 18 N -4.519172 -0.318995 -0.556368 0
M  V30 19 C -3.631554 -1.420699 -0.488060 0
M  V30 20 O -2.623158 -1.339919 0.258580 0
M  V30 21 C -3.861836 -2.645476 -1.263944 0
M  V30 22 C -4.919223 -2.866792 -2.121662 0
M  V30 23 C -5.085627 -4.022103 -2.815870 0
M  V30 24 C -4.165359 -5.064708 -2.685824 0
M  V30 25 C -3.080256 -4.882440 -1.828063 0
M  V30 26 C -2.096803 -5.947712 -1.664229 0
M  V30 27 C -1.704800 -6.865732 -2.615744 0
M  V30 28 C -0.759448 -7.808564 -2.287471 0
M  V30 29 C -0.191681 -7.863500 -1.035429 0
M  V30 30 N -0.560222 -6.976577 -0.091791 0
M  V30 31 C -1.493950 -6.040119 -0.405077 0
M  V30 32 C -2.972333 -3.695866 -1.159617 0
M  V30 33 C -2.060506 1.902825 -0.091757 0
M  V30 34 C 2.496904 2.442244 2.356916 0
M  V30 35 C 3.758229 2.146091 2.786155 0
M  V30 36 C 4.322629 2.830473 4.003989 0
M  V30 37 H 3.567107 0.151857 4.232891 0
M  V30 38 H 2.643394 1.370927 5.126105 0
M  V30 39 H 3.684146 0.270925 6.045322 0
M  V30 40 H 6.784171 1.261133 4.757814 0
M  V30 41 H 5.633051 -0.136967 4.517891 0
M  V30 42 H 6.539649 1.966353 2.570291 0
M  V30 43 H 6.441030 0.163676 2.404392 0
M  V30 44 H 4.820264 -0.129925 0.601750 0
M  V30 45 H 2.529963 0.297951 -0.315384 0
M  V30 46 H 0.231246 1.253397 1.188142 0
M  V30 47 H -0.971033 4.381819 -2.141917 0
M  V30 48 H -3.351953 4.280247 -2.750179 0
M  V30 49 H -4.891202 2.742492 -1.734822 0
M  V30 50 H -4.051731 0.635801 1.192194 0
M  V30 51 H -5.353370 1.432099 0.317454 0
M  V30 52 H -5.353997 -0.372678 -1.168364 0
M  V30 53 H -5.639083 -2.077668 -2.236956 0
M  V30 54 H -5.930267 -4.119955 -3.461989 0
M  V30 55 H -4.315971 -5.962769 -3.240703 0
M  V30 56 H -2.185433 -6.771604 -3.578871 0
M  V30 57 H -0.467162 -8.517317 -3.046786 0
M  V30 58 H 0.558681 -8.601749 -0.753667 0
M  V30 59 H -1.714882 -5.373681 0.439307 0
M  V30 60 H -2.109591 -3.572148 -0.488387 0
M  V30 61 H -1.723367 1.215106 0.668418 0
M  V30 62 H 1.849133 3.162449 2.850056 0
M  V30 63 H 5.199450 3.412259 3.669646 0
M  V30 64 H 3.572158 3.416190 4.544819 0
M  V30 END ATOM
M  V30 BEGIN BOND
M  V30 1 1 1 2
M  V30 2 1 2 3
M  V30 3 1 3 4
M  V30 4 1 4 5
M  V30 5 2 5 6
M  V30 6 1 6 7
M  V30 7 2 7 8
M  V30 8 1 8 9
M  V30 9 1 9 10
M  V30 10 2 10 11
M  V30 11 1 10 12
M  V30 12 2 12 13
M  V30 13 1 13 14
M  V30 14 2 14 15
M  V30 15 1 15 16
M  V30 16 1 16 17
M  V30 17 1 17 18
M  V30 18 1 18 19
M  V30 19 2 19 20
M  V30 20 1 19 21
M  V30 21 2 21 22
M  V30 22 1 22 23
M  V30 23 2 23 24
M  V30 24 1 24 25
M  V30 25 1 25 26
M  V30 26 2 26 27
M  V30 27 1 27 28
M  V30 28 2 28 29
M  V30 29 1 29 30
M  V30 30 2 30 31
M  V30 31 2 25 32
M  V30 32 2 16 33
M  V30 33 1 8 34
M  V30 34 2 34 35
M  V30 35 1 35 36
M  V30 36 1 36 2
M  V30 37 1 35 5
M  V30 38 1 33 12
M  V30 39 1 32 21
M  V30 40 1 31 26
M  V30 41 1 1 37
M  V30 42 1 1 38
M  V30 43 1 1 39
M  V30 44 1 3 40
M  V30 45 1 3 41
M  V30 46 1 4 42
M  V30 47 1 4 43
M  V30 48 1 6 44
M  V30 49 1 7 45
M  V30 50 1 9 46
M  V30 51 1 13 47
M  V30 52 1 14 48
M  V30 53 1 15 49
M  V30 54 1 17 50
M  V30 55 1 17 51
M  V30 56 1 18 52
M  V30 57 1 22 53
M  V30 58 1 23 54
M  V30 59 1 24 55
M  V30 60 1 27 56
M  V30 61 1 28 57
M  V30 62 1 29 58
M  V30 63 1 31 59
M  V30 64 1 32 60
M  V30 65 1 33 61
M  V30 66 1 34 62
M  V30 67 1 36 63
M  V30 68 1 36 64
M  V30 END BOND
M  V30 END CTAB
M  END
>  <Dataset>  (284) 
ChEMBL_Kinases

>  <Ligand_Instance>  (284) 
nan

>  <PDB_ID>  (284) 
nan

>  <Standardized_SMILES>  (284) 
CN1CCc2ccc(NC(=O)c3cccc(CNC(=O)c4cccc(-c5cccnc5)c4)c3)cc2C1

>  <Name>  (284) 
nan

>  <Pocket>  (284) 
nan

>  <ATP_Site>  (284) 
nan

>  <Peripheral>  (284) 
nan

>  <Num_H_Atoms_ProtBoundConf>  (284) 
nan

>  <Num_Resolved_Atoms>  (284) 
nan

>  <Num_Not_Resolved_Atoms>  (284) 
nan

$$$$
CHEMBL3680725
     RDKit          3D

  0  0  0  0  0  0  0  0  0  0999 V3000
M  V30 BEGIN CTAB
M  V30 COUNTS 60 64 0 0 0
M  V30 BEGIN ATOM
M  V30 1 C 5.417508 2.008662 6.430836 0
M  V30 2 N 5.675413 2.189341 4.996045 0
M  V30 3 C 6.088219 0.912848 4.472735 0
M  V30 4 C 6.385796 1.032551 2.988500 0
M  V30 5 C 5.111703 1.298877 2.239586 0
M  V30 6 C 4.758206 0.892703 0.972912 0
M  V30 7 C 3.524292 1.250383 0.473754 0
M  V30 8 C 2.642405 2.008223 1.226313 0
M  V30 9 N 1.402559 2.295298 0.570262 0
M  V30 10 C 0.411880 1.306925 0.835056 0
M  V30 11 O 0.832224 0.388366 1.590328 0
M  V30 12 C -0.942550 1.383677 0.271372 0
M  V30 13 C -1.394595 2.377063 -0.581022 0
M  V30 14 C -2.700359 2.332956 -1.037520 0
M  V30 15 C -3.537736 1.309094 -0.644591 0
M  V30 16 C -3.130190 0.298712 0.203090 0
M  V30 17 C -3.977972 -0.827470 0.667087 0
M  V30 18 N -3.940363 -1.987092 -0.163412 0
M  V30 19 C -4.598654 -2.135419 -1.405922 0
M  V30 20 O -5.298733 -1.211702 -1.894236 0
M  V30 21 C -4.510201 -3.361913 -2.198343 0
M  V30 22 C -5.135175 -3.559359 -3.410944 0
M  V30 23 C -4.804083 -4.843280 -3.832662 0
M  V30 24 C -5.066735 -5.667458 -4.909798 0
M  V30 25 C -4.545645 -6.943809 -5.002588 0
M  V30 26 C -3.731295 -7.439190 -3.999257 0
M  V30 27 C -3.156733 -8.755372 -4.031213 0
M  V30 28 N -2.677724 -9.808616 -4.063284 0
M  V30 29 C -3.433967 -6.659833 -2.897833 0
M  V30 30 C -3.976698 -5.389423 -2.846266 0
M  V30 31 N -3.822304 -4.470197 -1.879783 0
M  V30 32 C -1.811592 0.368832 0.646150 0
M  V30 33 C 3.008006 2.410391 2.496810 0
M  V30 34 C 4.240944 2.060121 3.011413 0
M  V30 35 C 4.449034 2.582866 4.385161 0
M  V30 36 H 5.462060 2.995411 6.931759 0
M  V30 37 H 4.378596 1.595367 6.568000 0
M  V30 38 H 6.100976 1.276193 6.875938 0
M  V30 39 H 7.030395 0.610151 4.979662 0
M  V30 40 H 5.349828 0.087684 4.669772 0
M  V30 41 H 7.017452 1.919922 2.853838 0
M  V30 42 H 6.848399 0.104272 2.656579 0
M  V30 43 H 5.524293 0.308821 0.484067 0
M  V30 44 H 3.362087 0.869274 -0.537741 0
M  V30 45 H 1.186003 3.110241 -0.039969 0
M  V30 46 H -0.685877 3.149721 -0.848323 0
M  V30 47 H -3.041077 3.111018 -1.700423 0
M  V30 48 H -4.560346 1.276596 -1.002715 0
M  V30 49 H -3.652801 -1.139463 1.697436 0
M  V30 50 H -5.040380 -0.529201 0.782325 0
M  V30 51 H -3.385548 -2.847822 0.122775 0
M  V30 52 H -5.779795 -2.898525 -3.998567 0
M  V30 53 H -5.712378 -5.253414 -5.689395 0
M  V30 54 H -4.768432 -7.559876 -5.851772 0
M  V30 55 H -2.798514 -7.022739 -2.097892 0
M  V30 56 H -3.268026 -4.549052 -0.999447 0
M  V30 57 H -1.470419 -0.426477 1.320246 0
M  V30 58 H 2.243603 2.996949 2.993767 0
M  V30 59 H 3.601981 2.144303 4.988334 0
M  V30 60 H 4.259707 3.677930 4.427879 0
M  V30 END ATOM
M  V30 BEGIN BOND
M  V30 1 1 1 2
M  V30 2 1 2 3
M  V30 3 1 3 4
M  V30 4 1 4 5
M  V30 5 2 5 6
M  V30 6 1 6 7
M  V30 7 2 7 8
M  V30 8 1 8 9
M  V30 9 1 9 10
M  V30 10 2 10 11
M  V30 11 1 10 12
M  V30 12 2 12 13
M  V30 13 1 13 14
M  V30 14 2 14 15
M  V30 15 1 15 16
M  V30 16 1 16 17
M  V30 17 1 17 18
M  V30 18 1 18 19
M  V30 19 2 19 20
M  V30 20 1 19 21
M  V30 21 2 21 22
M  V30 22 1 22 23
M  V30 23 2 23 24
M  V30 24 1 24 25
M  V30 25 2 25 26
M  V30 26 1 26 27
M  V30 27 3 27 28
M  V30 28 1 26 29
M  V30 29 2 29 30
M  V30 30 1 30 31
M  V30 31 2 16 32
M  V30 32 1 8 33
M  V30 33 2 33 34
M  V30 34 1 34 35
M  V30 35 1 35 2
M  V30 36 1 34 5
M  V30 37 1 32 12
M  V30 38 1 31 21
M  V30 39 1 30 23
M  V30 40 1 1 36
M  V30 41 1 1 37
M  V30 42 1 1 38
M  V30 43 1 3 39
M  V30 44 1 3 40
M  V30 45 1 4 41
M  V30 46 1 4 42
M  V30 47 1 6 43
M  V30 48 1 7 44
M  V30 49 1 9 45
M  V30 50 1 13 46
M  V30 51 1 14 47
M  V30 52 1 15 48
M  V30 53 1 17 49
M  V30 54 1 17 50
M  V30 55 1 18 51
M  V30 56 1 22 52
M  V30 57 1 24 53
M  V30 58 1 25 54
M  V30 59 1 29 55
M  V30 60 1 31 56
M  V30 61 1 32 57
M  V30 62 1 33 58
M  V30 63 1 35 59
M  V30 64 1 35 60
M  V30 END BOND
M  V30 END CTAB
M  END
>  <Dataset>  (285) 
ChEMBL_Kinases

>  <Ligand_Instance>  (285) 
nan

>  <PDB_ID>  (285) 
nan

>  <Standardized_SMILES>  (285) 
CN1CCc2ccc(NC(=O)c3cccc(CNC(=O)c4cc5ccc(C#N)cc5[nH]4)c3)cc2C1

>  <Name>  (285) 
nan

>  <Pocket>  (285) 
nan

>  <ATP_Site>  (285) 
nan

>  <Peripheral>  (285) 
nan

>  <Num_H_Atoms_ProtBoundConf>  (285) 
nan

>  <Num_Resolved_Atoms>  (285) 
nan

>  <Num_Not_Resolved_Atoms>  (285) 
nan

$$$$
CHEMBL3680724
     RDKit          3D

  0  0  0  0  0  0  0  0  0  0999 V3000
M  V30 BEGIN CTAB
M  V30 COUNTS 62 66 0 0 0
M  V30 BEGIN ATOM
M  V30 1 C 4.835229 -1.518468 3.713106 0
M  V30 2 N 5.329923 -0.300914 4.336966 0
M  V30 3 C 6.572247 0.049435 3.717546 0
M  V30 4 C 6.615859 1.413302 3.098260 0
M  V30 5 C 5.486980 1.558885 2.118164 0
M  V30 6 C 5.528356 1.989921 0.806924 0
M  V30 7 C 4.344077 2.035039 0.097835 0
M  V30 8 C 3.137327 1.656810 0.684971 0
M  V30 9 N 1.952587 1.717826 -0.077819 0
M  V30 10 C 1.007442 2.755362 -0.253380 0
M  V30 11 O 1.148036 3.862066 0.326107 0
M  V30 12 C -0.160710 2.572276 -1.113247 0
M  V30 13 C -1.046680 3.635973 -1.219690 0
M  V30 14 C -2.147807 3.461662 -2.032993 0
M  V30 15 C -2.444555 2.321183 -2.749827 0
M  V30 16 C -1.542949 1.258061 -2.632598 0
M  V30 17 C -1.729724 -0.013785 -3.336542 0
M  V30 18 N -2.481545 -1.005825 -2.604616 0
M  V30 19 C -3.889011 -1.036715 -2.413417 0
M  V30 20 O -4.624518 -0.141578 -2.902327 0
M  V30 21 C -4.518610 -2.105609 -1.646279 0
M  V30 22 C -5.863878 -2.259304 -1.389418 0
M  V30 23 N -6.031700 -3.385759 -0.639131 0
M  V30 24 C -7.136616 -3.979942 -0.125147 0
M  V30 25 C -7.019232 -5.156334 0.623916 0
M  V30 26 C -5.770156 -5.732019 0.851749 0
M  V30 27 C -5.700148 -6.957826 1.638647 0
M  V30 28 N -4.452589 -7.578991 1.897694 0
M  V30 29 O -6.770946 -7.423763 2.064600 0
M  V30 30 C -4.676500 -5.089654 0.307763 0
M  V30 31 C -4.796376 -3.928154 -0.431497 0
M  V30 32 N -3.869741 -3.140522 -1.050647 0
M  V30 33 C -0.420103 1.413202 -1.813584 0
M  V30 34 C 3.100511 1.223047 2.008017 0
M  V30 35 C 4.290703 1.175475 2.727984 0
M  V30 36 C 4.372639 0.732857 4.144697 0
M  V30 37 H 5.586413 -2.011344 3.063588 0
M  V30 38 H 3.937425 -1.346434 3.086173 0
M  V30 39 H 4.547667 -2.270478 4.493013 0
M  V30 40 H 6.919429 -0.738861 3.007709 0
M  V30 41 H 7.339599 0.034022 4.543146 0
M  V30 42 H 6.589715 2.218436 3.844653 0
M  V30 43 H 7.617067 1.475958 2.583796 0
M  V30 44 H 6.518776 2.253724 0.469497 0
M  V30 45 H 4.429266 2.378075 -0.920488 0
M  V30 46 H 1.877125 0.784081 -0.536664 0
M  V30 47 H -0.901156 4.574428 -0.696164 0
M  V30 48 H -2.872948 4.282422 -2.142533 0
M  V30 49 H -3.321124 2.230106 -3.376332 0
M  V30 50 H -2.237536 0.160477 -4.331738 0
M  V30 51 H -0.739805 -0.413698 -3.573609 0
M  V30 52 H -1.955791 -1.810806 -2.147853 0
M  V30 53 H -6.678323 -1.644442 -1.692940 0
M  V30 54 H -8.107561 -3.563312 -0.282086 0
M  V30 55 H -7.915704 -5.599691 1.015658 0
M  V30 56 H -4.063104 -8.548487 1.728214 0
M  V30 57 H -3.568501 -7.208005 2.343431 0
M  V30 58 H -3.709885 -5.545343 0.490689 0
M  V30 59 H 0.259236 0.583941 -1.738428 0
M  V30 60 H 2.165491 0.919892 2.495786 0
M  V30 61 H 4.499906 1.597321 4.831160 0
M  V30 62 H 3.355319 0.308561 4.393244 0
M  V30 END ATOM
M  V30 BEGIN BOND
M  V30 1 1 1 2
M  V30 2 1 2 3
M  V30 3 1 3 4
M  V30 4 1 4 5
M  V30 5 2 5 6
M  V30 6 1 6 7
M  V30 7 2 7 8
M  V30 8 1 8 9
M  V30 9 1 9 10
M  V30 10 2 10 11
M  V30 11 1 10 12
M  V30 12 2 12 13
M  V30 13 1 13 14
M  V30 14 2 14 15
M  V30 15 1 15 16
M  V30 16 1 16 17
M  V30 17 1 17 18
M  V30 18 1 18 19
M  V30 19 2 19 20
M  V30 20 1 19 21
M  V30 21 2 21 22
M  V30 22 1 22 23
M  V30 23 1 23 24
M  V30 24 2 24 25
M  V30 25 1 25 26
M  V30 26 1 26 27
M  V30 27 1 27 28
M  V30 28 2 27 29
M  V30 29 2 26 30
M  V30 30 1 30 31
M  V30 31 2 31 32
M  V30 32 2 16 33
M  V30 33 1 8 34
M  V30 34 2 34 35
M  V30 35 1 35 36
M  V30 36 1 36 2
M  V30 37 1 35 5
M  V30 38 1 33 12
M  V30 39 1 32 21
M  V30 40 1 31 23
M  V30 41 1 1 37
M  V30 42 1 1 38
M  V30 43 1 1 39
M  V30 44 1 3 40
M  V30 45 1 3 41
M  V30 46 1 4 42
M  V30 47 1 4 43
M  V30 48 1 6 44
M  V30 49 1 7 45
M  V30 50 1 9 46
M  V30 51 1 13 47
M  V30 52 1 14 48
M  V30 53 1 15 49
M  V30 54 1 17 50
M  V30 55 1 17 51
M  V30 56 1 18 52
M  V30 57 1 22 53
M  V30 58 1 24 54
M  V30 59 1 25 55
M  V30 60 1 28 56
M  V30 61 1 28 57
M  V30 62 1 30 58
M  V30 63 1 33 59
M  V30 64 1 34 60
M  V30 65 1 36 61
M  V30 66 1 36 62
M  V30 END BOND
M  V30 END CTAB
M  END
>  <Dataset>  (286) 
ChEMBL_Kinases

>  <Ligand_Instance>  (286) 
nan

>  <PDB_ID>  (286) 
nan

>  <Standardized_SMILES>  (286) 
CN1CCc2ccc(NC(=O)c3cccc(CNC(=O)c4cn5ccc(C(N)=O)cc5n4)c3)cc2C1

>  <Name>  (286) 
nan

>  <Pocket>  (286) 
nan

>  <ATP_Site>  (286) 
nan

>  <Peripheral>  (286) 
nan

>  <Num_H_Atoms_ProtBoundConf>  (286) 
nan

>  <Num_Resolved_Atoms>  (286) 
nan

>  <Num_Not_Resolved_Atoms>  (286) 
nan

$$$$
CHEMBL3680723
     RDKit          3D

  0  0  0  0  0  0  0  0  0  0999 V3000
M  V30 BEGIN CTAB
M  V30 COUNTS 61 65 0 0 0
M  V30 BEGIN ATOM
M  V30 1 C 4.817788 -2.319533 2.562633 0
M  V30 2 N 6.016480 -1.576840 2.219715 0
M  V30 3 C 6.226470 -0.591577 3.247969 0
M  V30 4 C 6.735741 0.714144 2.729843 0
M  V30 5 C 5.622366 1.301077 1.913778 0
M  V30 6 C 5.068428 2.553523 1.999309 0
M  V30 7 C 4.043394 2.912055 1.162650 0
M  V30 8 C 3.592253 1.972591 0.237136 0
M  V30 9 N 2.512140 2.319437 -0.658188 0
M  V30 10 C 1.309930 1.962142 0.008129 0
M  V30 11 O 1.529176 1.457969 1.163240 0
M  V30 12 C -0.054059 2.137246 -0.537655 0
M  V30 13 C -0.304977 2.659043 -1.793941 0
M  V30 14 C -1.620982 2.785204 -2.219366 0
M  V30 15 C -2.649571 2.391220 -1.388787 0
M  V30 16 C -2.407519 1.869891 -0.134287 0
M  V30 17 C -3.449648 1.415961 0.833721 0
M  V30 18 N -3.772169 0.015805 0.691796 0
M  V30 19 C -4.557533 -0.593823 -0.296847 0
M  V30 20 O -5.056979 0.167582 -1.189445 0
M  V30 21 C -4.822792 -2.019676 -0.350219 0
M  V30 22 C -4.348750 -2.946735 0.554467 0
M  V30 23 C -4.651178 -4.307181 0.431960 0
M  V30 24 C -5.438845 -4.751961 -0.608737 0
M  V30 25 C -5.720495 -6.180381 -0.683485 0
M  V30 26 C -6.459565 -6.906623 -1.590070 0
M  V30 27 N -6.426767 -8.208755 -1.236097 0
M  V30 28 C -5.671828 -8.265847 -0.122118 0
M  V30 29 O -5.254942 -7.050050 0.199626 0
M  V30 30 C -5.937552 -3.865129 -1.539946 0
M  V30 31 C -5.605337 -2.539298 -1.366100 0
M  V30 32 C -1.085072 1.744094 0.290747 0
M  V30 33 C 4.130268 0.706856 0.128707 0
M  V30 34 C 5.164277 0.361825 0.980989 0
M  V30 35 C 5.821355 -0.969393 0.951105 0
M  V30 36 H 4.319037 -1.909525 3.463994 0
M  V30 37 H 5.021626 -3.397861 2.700743 0
M  V30 38 H 4.037969 -2.251159 1.753518 0
M  V30 39 H 5.265248 -0.396073 3.794634 0
M  V30 40 H 6.977007 -1.029653 3.959597 0
M  V30 41 H 7.600349 0.580644 2.083489 0
M  V30 42 H 6.982216 1.363133 3.591218 0
M  V30 43 H 5.513659 3.178139 2.758760 0
M  V30 44 H 3.624075 3.896084 1.246055 0
M  V30 45 H 2.406617 2.746314 -1.624428 0
M  V30 46 H 0.525037 2.950174 -2.400909 0
M  V30 47 H -1.855114 3.181766 -3.177925 0
M  V30 48 H -3.667616 2.479478 -1.692586 0
M  V30 49 H -3.102741 1.636513 1.863802 0
M  V30 50 H -4.362554 2.053316 0.701034 0
M  V30 51 H -3.379826 -0.630756 1.402858 0
M  V30 52 H -3.742088 -2.621711 1.360761 0
M  V30 53 H -4.226317 -4.967260 1.203349 0
M  V30 54 H -6.957165 -6.421560 -2.428939 0
M  V30 55 H -5.497399 -9.226733 0.358244 0
M  V30 56 H -6.551473 -4.191950 -2.356594 0
M  V30 57 H -6.017327 -1.864576 -2.121467 0
M  V30 58 H -0.870036 1.332256 1.283265 0
M  V30 59 H 3.760138 -0.005032 -0.600626 0
M  V30 60 H 6.755437 -0.868598 0.358904 0
M  V30 61 H 5.119922 -1.630853 0.362449 0
M  V30 END ATOM
M  V30 BEGIN BOND
M  V30 1 1 1 2
M  V30 2 1 2 3
M  V30 3 1 3 4
M  V30 4 1 4 5
M  V30 5 2 5 6
M  V30 6 1 6 7
M  V30 7 2 7 8
M  V30 8 1 8 9
M  V30 9 1 9 10
M  V30 10 2 10 11
M  V30 11 1 10 12
M  V30 12 2 12 13
M  V30 13 1 13 14
M  V30 14 2 14 15
M  V30 15 1 15 16
M  V30 16 1 16 17
M  V30 17 1 17 18
M  V30 18 1 18 19
M  V30 19 2 19 20
M  V30 20 1 19 21
M  V30 21 2 21 22
M  V30 22 1 22 23
M  V30 23 2 23 24
M  V30 24 1 24 25
M  V30 25 2 25 26
M  V30 26 1 26 27
M  V30 27 2 27 28
M  V30 28 1 28 29
M  V30 29 1 24 30
M  V30 30 2 30 31
M  V30 31 2 16 32
M  V30 32 1 8 33
M  V30 33 2 33 34
M  V30 34 1 34 35
M  V30 35 1 35 2
M  V30 36 1 34 5
M  V30 37 1 32 12
M  V30 38 1 31 21
M  V30 39 1 29 25
M  V30 40 1 1 36
M  V30 41 1 1 37
M  V30 42 1 1 38
M  V30 43 1 3 39
M  V30 44 1 3 40
M  V30 45 1 4 41
M  V30 46 1 4 42
M  V30 47 1 6 43
M  V30 48 1 7 44
M  V30 49 1 9 45
M  V30 50 1 13 46
M  V30 51 1 14 47
M  V30 52 1 15 48
M  V30 53 1 17 49
M  V30 54 1 17 50
M  V30 55 1 18 51
M  V30 56 1 22 52
M  V30 57 1 23 53
M  V30 58 1 26 54
M  V30 59 1 28 55
M  V30 60 1 30 56
M  V30 61 1 31 57
M  V30 62 1 32 58
M  V30 63 1 33 59
M  V30 64 1 35 60
M  V30 65 1 35 61
M  V30 END BOND
M  V30 END CTAB
M  END
>  <Dataset>  (287) 
ChEMBL_Kinases

>  <Ligand_Instance>  (287) 
nan

>  <PDB_ID>  (287) 
nan

>  <Standardized_SMILES>  (287) 
CN1CCc2ccc(NC(=O)c3cccc(CNC(=O)c4ccc(-c5cnco5)cc4)c3)cc2C1

>  <Name>  (287) 
nan

>  <Pocket>  (287) 
nan

>  <ATP_Site>  (287) 
nan

>  <Peripheral>  (287) 
nan

>  <Num_H_Atoms_ProtBoundConf>  (287) 
nan

>  <Num_Resolved_Atoms>  (287) 
nan

>  <Num_Not_Resolved_Atoms>  (287) 
nan

$$$$
CHEMBL3680722
     RDKit          3D

  0  0  0  0  0  0  0  0  0  0999 V3000
M  V30 BEGIN CTAB
M  V30 COUNTS 59 63 0 0 0
M  V30 BEGIN ATOM
M  V30 1 C 6.094437 0.290095 4.506125 0
M  V30 2 N 6.360932 0.033110 3.102326 0
M  V30 3 C 7.158128 1.084042 2.560729 0
M  V30 4 C 6.861320 1.449915 1.138021 0
M  V30 5 C 5.421219 1.724040 0.991088 0
M  V30 6 C 4.914882 2.768681 0.246940 0
M  V30 7 C 3.543621 2.968319 0.152125 0
M  V30 8 C 2.680100 2.099543 0.818680 0
M  V30 9 N 1.252139 2.231963 0.774613 0
M  V30 10 C 0.550889 1.562501 -0.235819 0
M  V30 11 O 1.258970 0.889742 -1.027960 0
M  V30 12 C -0.900019 1.640292 -0.360363 0
M  V30 13 C -1.676871 2.398096 0.490747 0
M  V30 14 C -3.041995 2.416047 0.304555 0
M  V30 15 C -3.632321 1.695010 -0.708853 0
M  V30 16 C -2.916167 0.926585 -1.582428 0
M  V30 17 C -3.417611 0.102508 -2.704673 0
M  V30 18 N -3.674381 -1.231080 -2.210827 0
M  V30 19 C -4.780389 -1.654924 -1.434211 0
M  V30 20 O -5.659564 -0.833239 -1.113101 0
M  V30 21 C -4.879991 -3.056858 -1.014942 0
M  V30 22 C -4.060121 -4.143316 -1.236666 0
M  V30 23 N -4.566497 -5.240199 -0.644988 0
M  V30 24 C -4.176822 -6.525899 -0.551437 0
M  V30 25 C -4.962522 -7.421443 0.160221 0
M  V30 26 C -4.576276 -8.815452 0.284753 0
M  V30 27 N -4.254524 -9.924994 0.398914 0
M  V30 28 C -6.133634 -7.032014 0.775732 0
M  V30 29 C -6.552900 -5.707050 0.689993 0
M  V30 30 C -5.713202 -4.877824 -0.037287 0
M  V30 31 N -5.893803 -3.563345 -0.265025 0
M  V30 32 C -1.538113 0.927547 -1.370374 0
M  V30 33 C 3.200295 1.059100 1.559058 0
M  V30 34 C 4.563160 0.857762 1.655445 0
M  V30 35 C 5.133607 -0.244719 2.436789 0
M  V30 36 H 7.009977 0.660927 4.995746 0
M  V30 37 H 5.812106 -0.683275 5.004847 0
M  V30 38 H 5.228490 0.962529 4.656756 0
M  V30 39 H 8.222943 0.707636 2.562211 0
M  V30 40 H 7.193807 2.006973 3.185174 0
M  V30 41 H 7.182017 0.631298 0.473302 0
M  V30 42 H 7.435384 2.374281 0.913357 0
M  V30 43 H 5.591872 3.438599 -0.267472 0
M  V30 44 H 3.105081 3.777231 -0.421922 0
M  V30 45 H 0.780442 2.820887 1.493555 0
M  V30 46 H -1.234277 2.970210 1.291511 0
M  V30 47 H -3.671513 3.000152 0.955743 0
M  V30 48 H -4.701421 1.710110 -0.858768 0
M  V30 49 H -4.334316 0.564368 -3.145489 0
M  V30 50 H -2.658531 0.109268 -3.509836 0
M  V30 51 H -2.949935 -1.968043 -2.462164 0
M  V30 52 H -3.139160 -4.074739 -1.817802 0
M  V30 53 H -3.260947 -6.836565 -1.031463 0
M  V30 54 H -6.782410 -7.697075 1.343966 0
M  V30 55 H -7.455700 -5.342075 1.148460 0
M  V30 56 H -0.892719 0.337171 -2.027260 0
M  V30 57 H 2.565162 0.350332 2.100517 0
M  V30 58 H 5.295016 -1.101118 1.731351 0
M  V30 59 H 4.341524 -0.586559 3.147327 0
M  V30 END ATOM
M  V30 BEGIN BOND
M  V30 1 1 1 2
M  V30 2 1 2 3
M  V30 3 1 3 4
M  V30 4 1 4 5
M  V30 5 2 5 6
M  V30 6 1 6 7
M  V30 7 2 7 8
M  V30 8 1 8 9
M  V30 9 1 9 10
M  V30 10 2 10 11
M  V30 11 1 10 12
M  V30 12 2 12 13
M  V30 13 1 13 14
M  V30 14 2 14 15
M  V30 15 1 15 16
M  V30 16 1 16 17
M  V30 17 1 17 18
M  V30 18 1 18 19
M  V30 19 2 19 20
M  V30 20 1 19 21
M  V30 21 2 21 22
M  V30 22 1 22 23
M  V30 23 1 23 24
M  V30 24 2 24 25
M  V30 25 1 25 26
M  V30 26 3 26 27
M  V30 27 1 25 28
M  V30 28 2 28 29
M  V30 29 1 29 30
M  V30 30 2 30 31
M  V30 31 2 16 32
M  V30 32 1 8 33
M  V30 33 2 33 34
M  V30 34 1 34 35
M  V30 35 1 35 2
M  V30 36 1 34 5
M  V30 37 1 32 12
M  V30 38 1 31 21
M  V30 39 1 30 23
M  V30 40 1 1 36
M  V30 41 1 1 37
M  V30 42 1 1 38
M  V30 43 1 3 39
M  V30 44 1 3 40
M  V30 45 1 4 41
M  V30 46 1 4 42
M  V30 47 1 6 43
M  V30 48 1 7 44
M  V30 49 1 9 45
M  V30 50 1 13 46
M  V30 51 1 14 47
M  V30 52 1 15 48
M  V30 53 1 17 49
M  V30 54 1 17 50
M  V30 55 1 18 51
M  V30 56 1 22 52
M  V30 57 1 24 53
M  V30 58 1 28 54
M  V30 59 1 29 55
M  V30 60 1 32 56
M  V30 61 1 33 57
M  V30 62 1 35 58
M  V30 63 1 35 59
M  V30 END BOND
M  V30 END CTAB
M  END
>  <Dataset>  (288) 
ChEMBL_Kinases

>  <Ligand_Instance>  (288) 
nan

>  <PDB_ID>  (288) 
nan

>  <Standardized_SMILES>  (288) 
CN1CCc2ccc(NC(=O)c3cccc(CNC(=O)c4cn5cc(C#N)ccc5n4)c3)cc2C1

>  <Name>  (288) 
nan

>  <Pocket>  (288) 
nan

>  <ATP_Site>  (288) 
nan

>  <Peripheral>  (288) 
nan

>  <Num_H_Atoms_ProtBoundConf>  (288) 
nan

>  <Num_Resolved_Atoms>  (288) 
nan

>  <Num_Not_Resolved_Atoms>  (288) 
nan

$$$$
CHEMBL3680721
     RDKit          3D

  0  0  0  0  0  0  0  0  0  0999 V3000
M  V30 BEGIN CTAB
M  V30 COUNTS 64 69 0 0 0
M  V30 BEGIN ATOM
M  V30 1 C 7.093895 -1.856751 4.556721 0
M  V30 2 N 6.179863 -1.180437 3.679681 0
M  V30 3 C 4.800363 -1.442889 4.055562 0
M  V30 4 C 4.173811 -0.203363 4.656028 0
M  V30 5 C 4.072746 0.808483 3.565537 0
M  V30 6 N 3.094976 1.505875 3.014266 0
M  V30 7 C 3.164367 2.276329 2.154014 0
M  V30 8 N 2.017419 3.034538 1.569637 0
M  V30 9 C 1.423744 2.359372 0.477899 0
M  V30 10 O 1.982122 1.257273 0.221223 0
M  V30 11 C 0.285457 2.970578 -0.207284 0
M  V30 12 C -0.289025 4.177424 0.134336 0
M  V30 13 C -1.357066 4.620348 -0.616097 0
M  V30 14 C -1.790343 3.834420 -1.663016 0
M  V30 15 C -1.230615 2.606308 -2.035889 0
M  V30 16 C -1.864697 1.953434 -3.197141 0
M  V30 17 N -2.979164 1.099022 -2.850979 0
M  V30 18 C -2.893794 -0.197236 -2.293921 0
M  V30 19 O -1.703812 -0.561870 -2.116989 0
M  V30 20 C -4.095386 -0.952987 -1.991566 0
M  V30 21 N -5.347646 -0.477588 -2.188370 0
M  V30 22 N -6.209556 -1.389217 -1.819339 0
M  V30 23 N -5.640349 -2.491356 -1.370690 0
M  V30 24 C -6.389898 -3.600784 -0.933277 0
M  V30 25 N -7.727521 -3.581665 -0.884501 0
M  V30 26 O -8.202510 -4.684124 -0.427033 0
M  V30 27 N -7.218664 -5.509788 -0.141607 0
M  V30 28 C -6.083990 -4.840405 -0.455869 0
M  V30 29 N -4.864955 -5.469691 -0.292755 0
M  V30 30 C -4.344561 -2.207597 -1.480192 0
M  V30 31 C -3.160103 -2.971234 -1.161223 0
M  V30 32 C -2.248151 -3.249145 -2.188976 0
M  V30 33 C -1.042024 -3.886647 -2.091648 0
M  V30 34 C -0.657583 -4.315948 -0.842303 0
M  V30 35 C -1.484248 -4.091390 0.236081 0
M  V30 36 C -2.679495 -3.442542 0.048112 0
M  V30 37 C -0.171763 2.212351 -1.257316 0
M  V30 38 S 5.034126 2.274417 1.746613 0
M  V30 39 C 5.368254 1.014299 3.055871 0
M  V30 40 C 6.445251 0.248945 3.651547 0
M  V30 41 H 7.259630 -2.899487 4.193889 0
M  V30 42 H 8.094502 -1.374709 4.536216 0
M  V30 43 H 6.659664 -1.872863 5.583682 0
M  V30 44 H 4.801157 -2.269638 4.768049 0
M  V30 45 H 4.246008 -1.752822 3.154311 0
M  V30 46 H 3.183119 -0.494088 5.060225 0
M  V30 47 H 4.794254 0.145491 5.499508 0
M  V30 48 H 1.721233 3.936758 1.941324 0
M  V30 49 H 0.119988 4.715922 0.967330 0
M  V30 50 H -1.811225 5.551530 -0.363379 0
M  V30 51 H -2.641497 4.258030 -2.206001 0
M  V30 52 H -1.074088 1.323427 -3.668608 0
M  V30 53 H -2.194654 2.742249 -3.921511 0
M  V30 54 H -3.948103 1.493931 -3.036931 0
M  V30 55 H -4.156670 -5.806275 -0.990285 0
M  V30 56 H -4.290406 -5.732137 -1.143406 0
M  V30 57 H -2.514866 -2.929129 -3.201580 0
M  V30 58 H -0.416037 -4.048410 -2.953840 0
M  V30 59 H 0.282827 -4.824902 -0.706840 0
M  V30 60 H -1.253771 -4.398546 1.249043 0
M  V30 61 H -3.378359 -3.236865 0.875493 0
M  V30 62 H 0.255746 1.247897 -1.568247 0
M  V30 63 H 7.367979 0.402209 3.065700 0
M  V30 64 H 6.644562 0.588284 4.684423 0
M  V30 END ATOM
M  V30 BEGIN BOND
M  V30 1 1 1 2
M  V30 2 1 2 3
M  V30 3 1 3 4
M  V30 4 1 4 5
M  V30 5 1 5 6
M  V30 6 2 6 7
M  V30 7 1 7 8
M  V30 8 1 8 9
M  V30 9 2 9 10
M  V30 10 1 9 11
M  V30 11 2 11 12
M  V30 12 1 12 13
M  V30 13 2 13 14
M  V30 14 1 14 15
M  V30 15 1 15 16
M  V30 16 1 16 17
M  V30 17 1 17 18
M  V30 18 2 18 19
M  V30 19 1 18 20
M  V30 20 1 20 21
M  V30 21 2 21 22
M  V30 22 1 22 23
M  V30 23 1 23 24
M  V30 24 2 24 25
M  V30 25 1 25 26
M  V30 26 1 26 27
M  V30 27 2 27 28
M  V30 28 1 28 29
M  V30 29 1 23 30
M  V30 30 1 30 31
M  V30 31 2 31 32
M  V30 32 1 32 33
M  V30 33 2 33 34
M  V30 34 1 34 35
M  V30 35 2 35 36
M  V30 36 2 15 37
M  V30 37 1 7 38
M  V30 38 1 38 39
M  V30 39 1 39 40
M  V30 40 1 40 2
M  V30 41 2 39 5
M  V30 42 1 37 11
M  V30 43 2 30 20
M  V30 44 1 36 31
M  V30 45 1 28 24
M  V30 46 1 1 41
M  V30 47 1 1 42
M  V30 48 1 1 43
M  V30 49 1 3 44
M  V30 50 1 3 45
M  V30 51 1 4 46
M  V30 52 1 4 47
M  V30 53 1 8 48
M  V30 54 1 12 49
M  V30 55 1 13 50
M  V30 56 1 14 51
M  V30 57 1 16 52
M  V30 58 1 16 53
M  V30 59 1 17 54
M  V30 60 1 29 55
M  V30 61 1 29 56
M  V30 62 1 32 57
M  V30 63 1 33 58
M  V30 64 1 34 59
M  V30 65 1 35 60
M  V30 66 1 36 61
M  V30 67 1 37 62
M  V30 68 1 40 63
M  V30 69 1 40 64
M  V30 END BOND
M  V30 END CTAB
M  END
>  <Dataset>  (289) 
ChEMBL_Kinases

>  <Ligand_Instance>  (289) 
nan

>  <PDB_ID>  (289) 
nan

>  <Standardized_SMILES>  (289) 
CN1CCc2nc(NC(=O)c3cccc(CNC(=O)c4nnn(-c5nonc5N)c4-c4ccccc4)c3)sc2C1

>  <Name>  (289) 
nan

>  <Pocket>  (289) 
nan

>  <ATP_Site>  (289) 
nan

>  <Peripheral>  (289) 
nan

>  <Num_H_Atoms_ProtBoundConf>  (289) 
nan

>  <Num_Resolved_Atoms>  (289) 
nan

>  <Num_Not_Resolved_Atoms>  (289) 
nan

$$$$
CHEMBL3680720
     RDKit          3D

  0  0  0  0  0  0  0  0  0  0999 V3000
M  V30 BEGIN CTAB
M  V30 COUNTS 57 61 0 0 0
M  V30 BEGIN ATOM
M  V30 1 C 3.245073 -3.283345 1.230915 0
M  V30 2 C 4.416103 -2.937548 0.438315 0
M  V30 3 C 4.930534 -1.661606 0.401606 0
M  V30 4 C 4.595923 -0.389815 1.008118 0
M  V30 5 O 5.281362 0.668195 0.784696 0
M  V30 6 N 3.538803 -0.118879 1.882009 0
M  V30 7 C 3.160341 1.127015 2.512797 0
M  V30 8 C 2.467566 1.958558 1.496376 0
M  V30 9 C 2.963433 2.911340 0.633205 0
M  V30 10 C 2.140292 3.571496 -0.246097 0
M  V30 11 C 0.780461 3.298517 -0.292121 0
M  V30 12 C 0.245276 2.336341 0.571470 0
M  V30 13 C -1.182331 2.106932 0.465834 0
M  V30 14 O -1.849992 2.768334 -0.349242 0
M  V30 15 N -1.875086 1.166203 1.240363 0
M  V30 16 C -3.300375 0.938649 1.133452 0
M  V30 17 N -3.732133 0.120302 0.354863 0
M  V30 18 C -5.039404 -0.128485 0.216750 0
M  V30 19 C -5.956211 0.566989 0.985818 0
M  V30 20 S -4.814325 1.640727 1.959123 0
M  V30 21 C -7.377383 0.532873 1.072204 0
M  V30 22 N -7.914568 -0.642873 0.483959 0
M  V30 23 C -8.799329 -0.382543 -0.632528 0
M  V30 24 C -6.919113 -1.643681 0.168783 0
M  V30 25 C -5.797618 -1.076627 -0.663869 0
M  V30 26 C 1.093755 1.693749 1.438697 0
M  V30 27 N 6.004338 -1.767305 -0.441660 0
M  V30 28 N 6.098412 -3.016280 -0.859006 0
M  V30 29 N 5.142742 -3.757312 -0.339687 0
M  V30 30 C 4.986135 -5.143652 -0.603506 0
M  V30 31 N 4.103035 -6.063165 -0.187986 0
M  V30 32 O 4.386342 -7.233381 -0.725020 0
M  V30 33 N 5.418539 -7.149134 -1.483570 0
M  V30 34 C 5.831186 -5.848044 -1.437673 0
M  V30 35 N 6.964283 -5.395730 -2.171617 0
M  V30 36 H 2.333458 -2.796065 0.836400 0
M  V30 37 H 3.027615 -4.384734 1.080977 0
M  V30 38 H 3.379247 -3.212855 2.326785 0
M  V30 39 H 2.904511 -0.904977 2.141783 0
M  V30 40 H 2.548255 0.998041 3.409650 0
M  V30 41 H 4.076667 1.683846 2.834529 0
M  V30 42 H 4.012006 3.069871 0.728910 0
M  V30 43 H 2.592420 4.306492 -0.895536 0
M  V30 44 H 0.181220 3.845272 -1.000393 0
M  V30 45 H -1.404767 0.580973 1.932624 0
M  V30 46 H -7.704125 0.561318 2.141325 0
M  V30 47 H -7.832976 1.427042 0.589162 0
M  V30 48 H -9.820798 -0.704247 -0.338881 0
M  V30 49 H -8.473331 -0.991137 -1.502320 0
M  V30 50 H -8.771247 0.695774 -0.895129 0
M  V30 51 H -6.603292 -2.171957 1.068428 0
M  V30 52 H -7.447596 -2.388363 -0.480421 0
M  V30 53 H -6.291226 -0.500397 -1.481780 0
M  V30 54 H -5.200461 -1.902313 -1.045463 0
M  V30 55 H 0.585930 0.970922 2.062334 0
M  V30 56 H 6.937484 -4.445996 -2.579005 0
M  V30 57 H 7.796954 -6.017078 -2.288658 0
M  V30 END ATOM
M  V30 BEGIN BOND
M  V30 1 1 1 2
M  V30 2 2 2 3
M  V30 3 1 3 4
M  V30 4 2 4 5
M  V30 5 1 4 6
M  V30 6 1 6 7
M  V30 7 1 7 8
M  V30 8 2 8 9
M  V30 9 1 9 10
M  V30 10 2 10 11
M  V30 11 1 11 12
M  V30 12 1 12 13
M  V30 13 2 13 14
M  V30 14 1 13 15
M  V30 15 1 15 16
M  V30 16 2 16 17
M  V30 17 1 17 18
M  V30 18 2 18 19
M  V30 19 1 19 20
M  V30 20 1 19 21
M  V30 21 1 21 22
M  V30 22 1 22 23
M  V30 23 1 22 24
M  V30 24 1 24 25
M  V30 25 2 12 26
M  V30 26 1 3 27
M  V30 27 2 27 28
M  V30 28 1 28 29
M  V30 29 1 29 30
M  V30 30 2 30 31
M  V30 31 1 31 32
M  V30 32 1 32 33
M  V30 33 2 33 34
M  V30 34 1 34 35
M  V30 35 1 29 2
M  V30 36 1 34 30
M  V30 37 1 26 8
M  V30 38 1 20 16
M  V30 39 1 25 18
M  V30 40 1 1 36
M  V30 41 1 1 37
M  V30 42 1 1 38
M  V30 43 1 6 39
M  V30 44 1 7 40
M  V30 45 1 7 41
M  V30 46 1 9 42
M  V30 47 1 10 43
M  V30 48 1 11 44
M  V30 49 1 15 45
M  V30 50 1 21 46
M  V30 51 1 21 47
M  V30 52 1 23 48
M  V30 53 1 23 49
M  V30 54 1 23 50
M  V30 55 1 24 51
M  V30 56 1 24 52
M  V30 57 1 25 53
M  V30 58 1 25 54
M  V30 59 1 26 55
M  V30 60 1 35 56
M  V30 61 1 35 57
M  V30 END BOND
M  V30 END CTAB
M  END
>  <Dataset>  (290) 
ChEMBL_Kinases

>  <Ligand_Instance>  (290) 
nan

>  <PDB_ID>  (290) 
nan

>  <Standardized_SMILES>  (290) 
Cc1c(C(=O)NCc2cccc(C(=O)Nc3nc4c(s3)CN(C)CC4)c2)nnn1-c1nonc1N

>  <Name>  (290) 
nan

>  <Pocket>  (290) 
nan

>  <ATP_Site>  (290) 
nan

>  <Peripheral>  (290) 
nan

>  <Num_H_Atoms_ProtBoundConf>  (290) 
nan

>  <Num_Resolved_Atoms>  (290) 
nan

>  <Num_Not_Resolved_Atoms>  (290) 
nan

$$$$
CHEMBL3680719
     RDKit          3D

  0  0  0  0  0  0  0  0  0  0999 V3000
M  V30 BEGIN CTAB
M  V30 COUNTS 60 64 0 0 0
M  V30 BEGIN ATOM
M  V30 1 N 4.648785 -5.045830 6.240845 0
M  V30 2 C 3.898578 -3.931658 5.663834 0 CFG=1
M  V30 3 C 3.823327 -2.741732 6.558564 0
M  V30 4 C 4.218079 -1.456552 5.904652 0
M  V30 5 C 3.603367 -1.283410 4.550334 0
M  V30 6 N 2.969234 -0.246827 4.042400 0
M  V30 7 C 2.520492 -0.219293 2.948702 0
M  V30 8 N 1.801942 0.705155 2.113891 0
M  V30 9 C 2.370728 1.658426 1.241500 0
M  V30 10 O 3.606184 1.713834 1.180852 0
M  V30 11 C 1.551379 2.552669 0.434346 0
M  V30 12 C 2.260967 3.444954 -0.358052 0
M  V30 13 C 1.536295 4.331989 -1.158998 0
M  V30 14 C 0.162013 4.258782 -1.106433 0
M  V30 15 C -0.565407 3.365002 -0.313124 0
M  V30 16 C -2.047554 3.431094 -0.383078 0
M  V30 17 N -2.573704 2.579973 -1.428481 0
M  V30 18 C -2.711505 1.175812 -1.406709 0
M  V30 19 O -2.334302 0.589753 -0.356748 0
M  V30 20 C -3.252269 0.394055 -2.506107 0
M  V30 21 C -3.700477 0.906681 -3.695148 0
M  V30 22 C -4.214040 0.173258 -4.742957 0
M  V30 23 C -4.294356 -1.195618 -4.608220 0
M  V30 24 C -3.850717 -1.754364 -3.419079 0
M  V30 25 C -3.963775 -3.205755 -3.344038 0
M  V30 26 C -4.977656 -3.873778 -3.987935 0
M  V30 27 C -5.002094 -5.264594 -3.857250 0
M  V30 28 C -4.071273 -5.973215 -3.125445 0
M  V30 29 N -3.072867 -5.303235 -2.492625 0
M  V30 30 C -3.056690 -3.959776 -2.624146 0
M  V30 31 C -3.345012 -0.974060 -2.401025 0
M  V30 32 C 0.173901 2.511308 0.458456 0
M  V30 33 S 2.953145 -1.941862 2.239557 0
M  V30 34 C 3.768050 -2.465885 3.732997 0
M  V30 35 C 4.463632 -3.604100 4.291303 0
M  V30 36 H 5.418318 -5.379737 5.614552 0
M  V30 37 H 4.011557 -5.821271 6.554747 0
M  V30 38 H 2.853422 -4.289247 5.499378 0
M  V30 39 H 2.823527 -2.627588 7.030345 0
M  V30 40 H 4.566433 -2.915567 7.385496 0
M  V30 41 H 3.971803 -0.647522 6.594669 0
M  V30 42 H 5.328781 -1.443532 5.699309 0
M  V30 43 H 0.776161 0.592365 2.225637 0
M  V30 44 H 3.341691 3.498813 -0.396095 0
M  V30 45 H 2.015080 5.060175 -1.806222 0
M  V30 46 H -0.398434 4.960846 -1.740127 0
M  V30 47 H -2.443863 3.150490 0.618324 0
M  V30 48 H -2.322349 4.481336 -0.583397 0
M  V30 49 H -2.897146 3.039687 -2.318985 0
M  V30 50 H -3.662437 1.973681 -3.858226 0
M  V30 51 H -4.551810 0.639325 -5.658609 0
M  V30 52 H -4.696289 -1.762467 -5.429522 0
M  V30 53 H -5.723356 -3.357546 -4.569042 0
M  V30 54 H -5.783096 -5.841202 -4.346797 0
M  V30 55 H -4.119220 -7.055728 -3.044090 0
M  V30 56 H -2.269741 -3.409208 -2.127395 0
M  V30 57 H -3.030674 -1.531554 -1.519135 0
M  V30 58 H -0.353250 1.823494 1.072092 0
M  V30 59 H 5.534540 -3.361130 4.439678 0
M  V30 60 H 4.270624 -4.473078 3.641649 0
M  V30 END ATOM
M  V30 BEGIN BOND
M  V30 1 1 1 2
M  V30 2 1 2 3
M  V30 3 1 3 4
M  V30 4 1 4 5
M  V30 5 1 5 6
M  V30 6 2 6 7
M  V30 7 1 7 8
M  V30 8 1 8 9
M  V30 9 2 9 10
M  V30 10 1 9 11
M  V30 11 2 11 12
M  V30 12 1 12 13
M  V30 13 2 13 14
M  V30 14 1 14 15
M  V30 15 1 15 16
M  V30 16 1 16 17
M  V30 17 1 17 18
M  V30 18 2 18 19
M  V30 19 1 18 20
M  V30 20 2 20 21
M  V30 21 1 21 22
M  V30 22 2 22 23
M  V30 23 1 23 24
M  V30 24 1 24 25
M  V30 25 2 25 26
M  V30 26 1 26 27
M  V30 27 2 27 28
M  V30 28 1 28 29
M  V30 29 2 29 30
M  V30 30 2 24 31
M  V30 31 2 15 32
M  V30 32 1 7 33
M  V30 33 1 33 34
M  V30 34 1 34 35
M  V30 35 1 35 2
M  V30 36 2 34 5
M  V30 37 1 32 11
M  V30 38 1 31 20
M  V30 39 1 30 25
M  V30 40 1 1 36
M  V30 41 1 1 37
M  V30 42 1 2 38 CFG=3
M  V30 43 1 3 39
M  V30 44 1 3 40
M  V30 45 1 4 41
M  V30 46 1 4 42
M  V30 47 1 8 43
M  V30 48 1 12 44
M  V30 49 1 13 45
M  V30 50 1 14 46
M  V30 51 1 16 47
M  V30 52 1 16 48
M  V30 53 1 17 49
M  V30 54 1 21 50
M  V30 55 1 22 51
M  V30 56 1 23 52
M  V30 57 1 26 53
M  V30 58 1 27 54
M  V30 59 1 28 55
M  V30 60 1 30 56
M  V30 61 1 31 57
M  V30 62 1 32 58
M  V30 63 1 35 59
M  V30 64 1 35 60
M  V30 END BOND
M  V30 END CTAB
M  END
>  <Dataset>  (291) 
ChEMBL_Kinases

>  <Ligand_Instance>  (291) 
nan

>  <PDB_ID>  (291) 
nan

>  <Standardized_SMILES>  (291) 
N[C@H]1CCc2nc(NC(=O)c3cccc(CNC(=O)c4cccc(-c5cccnc5)c4)c3)sc2C1

>  <Name>  (291) 
nan

>  <Pocket>  (291) 
nan

>  <ATP_Site>  (291) 
nan

>  <Peripheral>  (291) 
nan

>  <Num_H_Atoms_ProtBoundConf>  (291) 
nan

>  <Num_Resolved_Atoms>  (291) 
nan

>  <Num_Not_Resolved_Atoms>  (291) 
nan

$$$$
CHEMBL3680718
     RDKit          3D

  0  0  0  0  0  0  0  0  0  0999 V3000
M  V30 BEGIN CTAB
M  V30 COUNTS 60 64 0 0 0
M  V30 BEGIN ATOM
M  V30 1 N 7.300566 -3.664911 4.569752 0
M  V30 2 C 6.747867 -2.653256 3.677258 0 CFG=2
M  V30 3 C 6.563164 -1.357452 4.416056 0
M  V30 4 C 5.163356 -1.346522 4.988479 0
M  V30 5 C 4.229806 -1.147232 3.843734 0
M  V30 6 N 3.338898 -0.191679 3.706366 0
M  V30 7 C 2.628143 -0.224191 2.607014 0
M  V30 8 N 1.571183 0.601521 2.065389 0
M  V30 9 C 1.811879 1.720078 1.239081 0
M  V30 10 O 3.016032 2.030331 0.948200 0
M  V30 11 C 0.767045 2.567167 0.679693 0
M  V30 12 C 1.147760 3.636540 -0.103556 0
M  V30 13 C 0.154344 4.452815 -0.646212 0
M  V30 14 C -1.182749 4.151491 -0.372590 0
M  V30 15 C -1.560121 3.063901 0.423489 0
M  V30 16 C -3.029042 2.921041 0.590223 0
M  V30 17 N -3.565843 2.093385 -0.460171 0
M  V30 18 C -3.513718 0.701608 -0.605881 0
M  V30 19 O -2.907882 0.068032 0.317508 0
M  V30 20 C -4.101823 -0.019288 -1.727103 0
M  V30 21 C -4.774071 0.521961 -2.802164 0
M  V30 22 C -5.289395 -0.269783 -3.806757 0
M  V30 23 C -5.166162 -1.632333 -3.798423 0
M  V30 24 C -4.503441 -2.208335 -2.744619 0
M  V30 25 C -4.376723 -3.657901 -2.741113 0
M  V30 26 C -5.358354 -4.467201 -3.297566 0
M  V30 27 C -5.141762 -5.836426 -3.242359 0
M  V30 28 C -4.038880 -6.438446 -2.683223 0
M  V30 29 N -3.108344 -5.622328 -2.153632 0
M  V30 30 C -3.261283 -4.277432 -2.176045 0
M  V30 31 C -3.995819 -1.413176 -1.752873 0
M  V30 32 C -0.559062 2.291821 0.934259 0
M  V30 33 S 3.264520 -1.759891 1.642307 0
M  V30 34 C 4.431066 -2.173312 2.865656 0
M  V30 35 C 5.453246 -3.182857 3.129710 0
M  V30 36 H 7.595173 -4.508677 4.039707 0
M  V30 37 H 6.699091 -3.858199 5.385048 0
M  V30 38 H 7.496293 -2.508497 2.884609 0
M  V30 39 H 7.350022 -1.199615 5.178673 0
M  V30 40 H 6.646927 -0.532380 3.683498 0
M  V30 41 H 4.984552 -2.403430 5.346180 0
M  V30 42 H 5.035284 -0.643605 5.807812 0
M  V30 43 H 0.607216 0.338219 2.309862 0
M  V30 44 H 2.178168 3.896677 -0.334676 0
M  V30 45 H 0.400318 5.305740 -1.268345 0
M  V30 46 H -1.913339 4.834926 -0.831596 0
M  V30 47 H -3.175686 2.357956 1.558383 0
M  V30 48 H -3.519185 3.898463 0.611103 0
M  V30 49 H -4.077777 2.594653 -1.245511 0
M  V30 50 H -4.873937 1.584966 -2.815394 0
M  V30 51 H -5.799874 0.237518 -4.608689 0
M  V30 52 H -5.604222 -2.156793 -4.630463 0
M  V30 53 H -6.236373 -4.040385 -3.745285 0
M  V30 54 H -5.889311 -6.493650 -3.668081 0
M  V30 55 H -3.953581 -7.534013 -2.685676 0
M  V30 56 H -2.472473 -3.704397 -1.732009 0
M  V30 57 H -3.481909 -1.938562 -0.947662 0
M  V30 58 H -0.895468 1.468569 1.541066 0
M  V30 59 H 5.024622 -3.969596 3.777850 0
M  V30 60 H 5.677745 -3.648594 2.124580 0
M  V30 END ATOM
M  V30 BEGIN BOND
M  V30 1 1 1 2
M  V30 2 1 2 3
M  V30 3 1 3 4
M  V30 4 1 4 5
M  V30 5 1 5 6
M  V30 6 2 6 7
M  V30 7 1 7 8
M  V30 8 1 8 9
M  V30 9 2 9 10
M  V30 10 1 9 11
M  V30 11 2 11 12
M  V30 12 1 12 13
M  V30 13 2 13 14
M  V30 14 1 14 15
M  V30 15 1 15 16
M  V30 16 1 16 17
M  V30 17 1 17 18
M  V30 18 2 18 19
M  V30 19 1 18 20
M  V30 20 2 20 21
M  V30 21 1 21 22
M  V30 22 2 22 23
M  V30 23 1 23 24
M  V30 24 1 24 25
M  V30 25 2 25 26
M  V30 26 1 26 27
M  V30 27 2 27 28
M  V30 28 1 28 29
M  V30 29 2 29 30
M  V30 30 2 24 31
M  V30 31 2 15 32
M  V30 32 1 7 33
M  V30 33 1 33 34
M  V30 34 1 34 35
M  V30 35 1 35 2
M  V30 36 2 34 5
M  V30 37 1 32 11
M  V30 38 1 31 20
M  V30 39 1 30 25
M  V30 40 1 1 36
M  V30 41 1 1 37
M  V30 42 1 2 38 CFG=3
M  V30 43 1 3 39
M  V30 44 1 3 40
M  V30 45 1 4 41
M  V30 46 1 4 42
M  V30 47 1 8 43
M  V30 48 1 12 44
M  V30 49 1 13 45
M  V30 50 1 14 46
M  V30 51 1 16 47
M  V30 52 1 16 48
M  V30 53 1 17 49
M  V30 54 1 21 50
M  V30 55 1 22 51
M  V30 56 1 23 52
M  V30 57 1 26 53
M  V30 58 1 27 54
M  V30 59 1 28 55
M  V30 60 1 30 56
M  V30 61 1 31 57
M  V30 62 1 32 58
M  V30 63 1 35 59
M  V30 64 1 35 60
M  V30 END BOND
M  V30 END CTAB
M  END
>  <Dataset>  (292) 
ChEMBL_Kinases

>  <Ligand_Instance>  (292) 
nan

>  <PDB_ID>  (292) 
nan

>  <Standardized_SMILES>  (292) 
N[C@@H]1CCc2nc(NC(=O)c3cccc(CNC(=O)c4cccc(-c5cccnc5)c4)c3)sc2C1

>  <Name>  (292) 
nan

>  <Pocket>  (292) 
nan

>  <ATP_Site>  (292) 
nan

>  <Peripheral>  (292) 
nan

>  <Num_H_Atoms_ProtBoundConf>  (292) 
nan

>  <Num_Resolved_Atoms>  (292) 
nan

>  <Num_Not_Resolved_Atoms>  (292) 
nan

$$$$
CHEMBL3680717
     RDKit          3D

  0  0  0  0  0  0  0  0  0  0999 V3000
M  V30 BEGIN CTAB
M  V30 COUNTS 62 66 0 0 0
M  V30 BEGIN ATOM
M  V30 1 C 3.482863 1.436501 6.375028 0
M  V30 2 N 4.615437 2.093133 5.750227 0
M  V30 3 C 5.387350 1.107503 5.065625 0
M  V30 4 C 5.950256 1.603309 3.752425 0
M  V30 5 C 4.767486 1.898673 2.874164 0
M  V30 6 C 4.588248 1.436048 1.587054 0
M  V30 7 C 3.423627 1.807084 0.914010 0
M  V30 8 C 2.532536 2.613590 1.589093 0
M  V30 9 N 1.363245 2.935567 0.804258 0
M  V30 10 C 0.407155 1.935080 1.064006 0
M  V30 11 O 0.820777 1.053246 1.890426 0
M  V30 12 C -0.940437 1.867024 0.471621 0
M  V30 13 C -1.453940 2.786729 -0.434886 0
M  V30 14 C -2.738463 2.621557 -0.928429 0
M  V30 15 C -3.494502 1.537110 -0.508512 0
M  V30 16 C -3.005375 0.610979 0.390995 0
M  V30 17 C -3.796322 -0.572853 0.860976 0
M  V30 18 N -3.603784 -1.744920 0.067575 0
M  V30 19 C -4.122587 -2.050008 -1.196329 0
M  V30 20 O -4.875588 -1.160267 -1.720528 0
M  V30 21 C -3.881069 -3.271161 -1.949048 0
M  V30 22 C -3.094570 -4.314581 -1.509940 0
M  V30 23 C -2.852194 -5.479351 -2.205933 0
M  V30 24 C -3.447977 -5.627521 -3.463596 0
M  V30 25 N -3.251033 -6.797100 -4.248901 0
M  V30 26 C -2.192684 -7.044574 -5.037920 0
M  V30 27 C -2.407420 -8.300346 -5.620269 0
M  V30 28 N -3.583599 -8.750020 -5.155390 0
M  V30 29 C -4.116844 -7.848060 -4.316029 0
M  V30 30 C -4.240423 -4.600115 -3.929896 0
M  V30 31 C -4.449632 -3.454518 -3.191221 0
M  V30 32 C -1.743168 0.813897 0.846618 0
M  V30 33 C 2.688424 3.088691 2.874250 0
M  V30 34 C 3.844249 2.714815 3.529233 0
M  V30 35 C 4.122142 3.163966 4.916337 0
M  V30 36 H 3.074496 1.995958 7.244924 0
M  V30 37 H 2.709873 1.332946 5.558482 0
M  V30 38 H 3.767795 0.391863 6.620109 0
M  V30 39 H 6.263463 0.859992 5.714367 0
M  V30 40 H 4.763754 0.217191 4.873977 0
M  V30 41 H 6.571652 0.769565 3.338375 0
M  V30 42 H 6.597592 2.471638 3.869597 0
M  V30 43 H 5.369865 0.811869 1.185952 0
M  V30 44 H 3.285364 1.447201 -0.083884 0
M  V30 45 H 1.084320 3.701085 0.125781 0
M  V30 46 H -0.809668 3.603510 -0.715667 0
M  V30 47 H -3.129726 3.343960 -1.634955 0
M  V30 48 H -4.494478 1.425552 -0.902322 0
M  V30 49 H -3.440727 -0.776087 1.890770 0
M  V30 50 H -4.875963 -0.299661 0.974948 0
M  V30 51 H -2.987559 -2.531249 0.438663 0
M  V30 52 H -2.617947 -4.251521 -0.557172 0
M  V30 53 H -2.239935 -6.277290 -1.850388 0
M  V30 54 H -1.341447 -6.391660 -5.188315 0
M  V30 55 H -1.761678 -8.814264 -6.308202 0
M  V30 56 H -5.077319 -7.973732 -3.800323 0
M  V30 57 H -4.691717 -4.735343 -4.904468 0
M  V30 58 H -5.082993 -2.647099 -3.577525 0
M  V30 59 H -1.356626 0.087309 1.554109 0
M  V30 60 H 1.941384 3.718850 3.335010 0
M  V30 61 H 4.817944 4.051010 4.936032 0
M  V30 62 H 3.156918 3.537058 5.338738 0
M  V30 END ATOM
M  V30 BEGIN BOND
M  V30 1 1 1 2
M  V30 2 1 2 3
M  V30 3 1 3 4
M  V30 4 1 4 5
M  V30 5 2 5 6
M  V30 6 1 6 7
M  V30 7 2 7 8
M  V30 8 1 8 9
M  V30 9 1 9 10
M  V30 10 2 10 11
M  V30 11 1 10 12
M  V30 12 2 12 13
M  V30 13 1 13 14
M  V30 14 2 14 15
M  V30 15 1 15 16
M  V30 16 1 16 17
M  V30 17 1 17 18
M  V30 18 1 18 19
M  V30 19 2 19 20
M  V30 20 1 19 21
M  V30 21 2 21 22
M  V30 22 1 22 23
M  V30 23 2 23 24
M  V30 24 1 24 25
M  V30 25 1 25 26
M  V30 26 2 26 27
M  V30 27 1 27 28
M  V30 28 2 28 29
M  V30 29 1 24 30
M  V30 30 2 30 31
M  V30 31 2 16 32
M  V30 32 1 8 33
M  V30 33 2 33 34
M  V30 34 1 34 35
M  V30 35 1 35 2
M  V30 36 1 34 5
M  V30 37 1 32 12
M  V30 38 1 31 21
M  V30 39 1 29 25
M  V30 40 1 1 36
M  V30 41 1 1 37
M  V30 42 1 1 38
M  V30 43 1 3 39
M  V30 44 1 3 40
M  V30 45 1 4 41
M  V30 46 1 4 42
M  V30 47 1 6 43
M  V30 48 1 7 44
M  V30 49 1 9 45
M  V30 50 1 13 46
M  V30 51 1 14 47
M  V30 52 1 15 48
M  V30 53 1 17 49
M  V30 54 1 17 50
M  V30 55 1 18 51
M  V30 56 1 22 52
M  V30 57 1 23 53
M  V30 58 1 26 54
M  V30 59 1 27 55
M  V30 60 1 29 56
M  V30 61 1 30 57
M  V30 62 1 31 58
M  V30 63 1 32 59
M  V30 64 1 33 60
M  V30 65 1 35 61
M  V30 66 1 35 62
M  V30 END BOND
M  V30 END CTAB
M  END
>  <Dataset>  (293) 
ChEMBL_Kinases

>  <Ligand_Instance>  (293) 
nan

>  <PDB_ID>  (293) 
nan

>  <Standardized_SMILES>  (293) 
CN1CCc2ccc(NC(=O)c3cccc(CNC(=O)c4ccc(-n5ccnc5)cc4)c3)cc2C1

>  <Name>  (293) 
nan

>  <Pocket>  (293) 
nan

>  <ATP_Site>  (293) 
nan

>  <Peripheral>  (293) 
nan

>  <Num_H_Atoms_ProtBoundConf>  (293) 
nan

>  <Num_Resolved_Atoms>  (293) 
nan

>  <Num_Not_Resolved_Atoms>  (293) 
nan

$$$$
CHEMBL3680716
     RDKit          3D

  0  0  0  0  0  0  0  0  0  0999 V3000
M  V30 BEGIN CTAB
M  V30 COUNTS 59 63 0 0 0
M  V30 BEGIN ATOM
M  V30 1 C 6.504748 -1.665626 2.749769 0
M  V30 2 C 7.240316 -0.518973 3.343519 0
M  V30 3 N 8.575983 -0.553194 3.508006 0
M  V30 4 N 8.967110 0.583110 4.052621 0
M  V30 5 N 7.889599 1.340326 4.236425 0
M  V30 6 N 6.826708 0.694586 3.813878 0
M  V30 7 C 5.452872 1.058029 3.785000 0
M  V30 8 C 5.034529 2.318894 3.413898 0
M  V30 9 C 3.697693 2.718421 3.371186 0
M  V30 10 C 2.718121 1.811310 3.717394 0
M  V30 11 C 1.328048 2.241470 3.669396 0
M  V30 12 O 1.122122 3.451033 3.361548 0
M  V30 13 N 0.215120 1.431745 3.931841 0
M  V30 14 C -1.191199 1.772808 3.904970 0
M  V30 15 C -1.719061 1.890301 2.514462 0
M  V30 16 C -1.726982 3.127903 1.901323 0
M  V30 17 C -2.198962 3.344337 0.601938 0
M  V30 18 C -2.683196 2.230893 -0.091434 0
M  V30 19 C -2.677645 0.996981 0.512181 0
M  V30 20 C -3.201394 -0.103581 -0.288257 0
M  V30 21 O -3.699810 0.162486 -1.436175 0
M  V30 22 N -3.228725 -1.485931 0.060919 0
M  V30 23 C -3.845376 -2.458506 -0.953384 0
M  V30 24 N -4.200174 -3.143294 -1.689532 0
M  V30 25 C -4.059415 -3.930450 -2.666930 0
M  V30 26 C -2.712529 -3.902402 -2.955145 0
M  V30 27 S -2.109558 -2.762464 -1.731263 0
M  V30 28 C -2.285416 -4.792725 -4.134393 0
M  V30 29 C -3.193338 -4.524248 -5.311603 0 CFG=1
M  V30 30 N -3.053206 -5.588977 -6.259607 0
M  V30 31 C -4.628211 -4.371187 -4.941553 0
M  V30 32 C -4.923937 -4.797428 -3.501689 0
M  V30 33 C -2.209723 0.800090 1.792138 0
M  V30 34 C 3.116519 0.544706 4.091625 0
M  V30 35 C 4.445980 0.177835 4.124891 0
M  V30 36 H 6.219090 -2.434678 3.506250 0
M  V30 37 H 7.132050 -2.144218 1.977363 0
M  V30 38 H 5.548406 -1.357209 2.257631 0
M  V30 39 H 5.830755 3.013354 3.144696 0
M  V30 40 H 3.508435 3.733863 3.062116 0
M  V30 41 H 0.489485 0.437263 4.180495 0
M  V30 42 H -1.389105 2.747629 4.406906 0
M  V30 43 H -1.727188 1.019560 4.515777 0
M  V30 44 H -1.369127 4.044447 2.369610 0
M  V30 45 H -2.199063 4.322142 0.138794 0
M  V30 46 H -3.046212 2.433872 -1.106932 0
M  V30 47 H -2.835531 -1.736566 0.968135 0
M  V30 48 H -1.279888 -4.438800 -4.442291 0
M  V30 49 H -2.239105 -5.832755 -3.819470 0
M  V30 50 H -2.874613 -3.572486 -5.827595 0
M  V30 51 H -3.962694 -6.059774 -6.428790 0
M  V30 52 H -2.717674 -5.252703 -7.176165 0
M  V30 53 H -4.949224 -3.308774 -4.987540 0
M  V30 54 H -5.292634 -4.951390 -5.617367 0
M  V30 55 H -5.992105 -4.710084 -3.333670 0
M  V30 56 H -4.652514 -5.859819 -3.333306 0
M  V30 57 H -2.211811 -0.177323 2.257497 0
M  V30 58 H 2.388631 -0.199032 4.372506 0
M  V30 59 H 4.702894 -0.829734 4.426934 0
M  V30 END ATOM
M  V30 BEGIN BOND
M  V30 1 1 1 2
M  V30 2 2 2 3
M  V30 3 1 3 4
M  V30 4 2 4 5
M  V30 5 1 5 6
M  V30 6 1 6 7
M  V30 7 2 7 8
M  V30 8 1 8 9
M  V30 9 2 9 10
M  V30 10 1 10 11
M  V30 11 2 11 12
M  V30 12 1 11 13
M  V30 13 1 13 14
M  V30 14 1 14 15
M  V30 15 2 15 16
M  V30 16 1 16 17
M  V30 17 2 17 18
M  V30 18 1 18 19
M  V30 19 1 19 20
M  V30 20 2 20 21
M  V30 21 1 20 22
M  V30 22 1 22 23
M  V30 23 2 23 24
M  V30 24 1 24 25
M  V30 25 2 25 26
M  V30 26 1 26 27
M  V30 27 1 26 28
M  V30 28 1 28 29
M  V30 29 1 29 30
M  V30 30 1 29 31
M  V30 31 1 31 32
M  V30 32 2 19 33
M  V30 33 1 10 34
M  V30 34 2 34 35
M  V30 35 1 6 2
M  V30 36 1 35 7
M  V30 37 1 33 15
M  V30 38 1 27 23
M  V30 39 1 32 25
M  V30 40 1 1 36
M  V30 41 1 1 37
M  V30 42 1 1 38
M  V30 43 1 8 39
M  V30 44 1 9 40
M  V30 45 1 13 41
M  V30 46 1 14 42
M  V30 47 1 14 43
M  V30 48 1 16 44
M  V30 49 1 17 45
M  V30 50 1 18 46
M  V30 51 1 22 47
M  V30 52 1 28 48
M  V30 53 1 28 49
M  V30 54 1 29 50 CFG=3
M  V30 55 1 30 51
M  V30 56 1 30 52
M  V30 57 1 31 53
M  V30 58 1 31 54
M  V30 59 1 32 55
M  V30 60 1 32 56
M  V30 61 1 33 57
M  V30 62 1 34 58
M  V30 63 1 35 59
M  V30 END BOND
M  V30 END CTAB
M  END
>  <Dataset>  (294) 
ChEMBL_Kinases

>  <Ligand_Instance>  (294) 
nan

>  <PDB_ID>  (294) 
nan

>  <Standardized_SMILES>  (294) 
Cc1nnnn1-c1ccc(C(=O)NCc2cccc(C(=O)Nc3nc4c(s3)C[C@@H](N)CC4)c2)cc1

>  <Name>  (294) 
nan

>  <Pocket>  (294) 
nan

>  <ATP_Site>  (294) 
nan

>  <Peripheral>  (294) 
nan

>  <Num_H_Atoms_ProtBoundConf>  (294) 
nan

>  <Num_Resolved_Atoms>  (294) 
nan

>  <Num_Not_Resolved_Atoms>  (294) 
nan

$$$$
CHEMBL3680715
     RDKit          3D

  0  0  0  0  0  0  0  0  0  0999 V3000
M  V30 BEGIN CTAB
M  V30 COUNTS 63 67 0 0 0
M  V30 BEGIN ATOM
M  V30 1 C 1.803597 -2.027288 3.280158 0
M  V30 2 C 2.822436 -2.684848 2.375708 0
M  V30 3 N 3.120343 -3.986391 2.662849 0
M  V30 4 N 4.009333 -4.372576 1.774147 0
M  V30 5 N 4.256586 -3.368781 0.971958 0
M  V30 6 N 3.568245 -2.289134 1.266345 0
M  V30 7 C 3.151301 -0.917224 1.074597 0
M  V30 8 C 3.726214 0.040349 1.916552 0
M  V30 9 C 3.229435 1.370238 1.847746 0
M  V30 10 C 2.208573 1.540990 0.924764 0
M  V30 11 C 1.732623 2.920861 1.281774 0
M  V30 12 O 2.254070 4.003692 1.541087 0
M  V30 13 N 0.280924 3.085919 1.396633 0
M  V30 14 C -1.192139 3.281203 1.522864 0
M  V30 15 C -1.587221 2.356423 2.685468 0
M  V30 16 C -1.808789 2.378844 4.022100 0
M  V30 17 C -2.070082 1.230334 4.708633 0
M  V30 18 C -2.141277 -0.016295 4.175430 0
M  V30 19 C -1.928953 -0.111071 2.815321 0
M  V30 20 C -1.960303 -1.271904 1.898543 0
M  V30 21 O -1.306336 -1.242714 0.806416 0
M  V30 22 N -2.518559 -2.565435 1.744067 0
M  V30 23 C -1.926256 -2.830843 0.443180 0
M  V30 24 C -0.693811 -3.429115 0.272704 0
M  V30 25 C -0.202449 -3.511255 -1.001872 0
M  V30 26 C -0.992403 -2.979285 -2.027199 0
M  V30 27 C -2.228204 -2.383023 -1.864332 0
M  V30 28 C -2.706515 -2.310808 -0.582512 0
M  V30 29 C -2.842448 -1.812661 -3.119712 0
M  V30 30 N -1.897215 -0.911745 -3.723572 0
M  V30 31 C -2.295247 -0.143361 -4.824358 0
M  V30 32 C -0.566909 -1.382199 -3.759864 0
M  V30 33 C -0.534860 -2.914135 -3.476455 0
M  V30 34 C -1.656828 1.082446 2.089972 0
M  V30 35 C 1.630110 0.635814 0.083133 0
M  V30 36 C 2.139656 -0.655219 0.174909 0
M  V30 37 H 1.019431 -2.762583 3.544336 0
M  V30 38 H 1.274673 -1.195804 2.739717 0
M  V30 39 H 2.275858 -1.695287 4.227101 0
M  V30 40 H 4.519857 -0.314047 2.568007 0
M  V30 41 H 3.765077 1.984025 2.547097 0
M  V30 42 H 0.020413 2.087374 1.080738 0
M  V30 43 H -1.303669 4.317245 1.941471 0
M  V30 44 H -1.682099 3.098689 0.610146 0
M  V30 45 H -1.726839 3.387757 4.324226 0
M  V30 46 H -2.221433 1.353286 5.768635 0
M  V30 47 H -2.329910 -0.960216 4.634819 0
M  V30 48 H -3.080956 -2.727851 2.594090 0
M  V30 49 H -0.163805 -3.821747 1.131662 0
M  V30 50 H 0.748159 -3.967032 -1.239715 0
M  V30 51 H -3.664236 -1.843371 -0.443063 0
M  V30 52 H -3.143542 -2.600963 -3.830919 0
M  V30 53 H -3.727777 -1.219860 -2.878662 0
M  V30 54 H -1.564829 -0.119399 -5.664165 0
M  V30 55 H -2.493157 0.919074 -4.459244 0
M  V30 56 H -3.259084 -0.543526 -5.222968 0
M  V30 57 H 0.020625 -0.960414 -2.884340 0
M  V30 58 H -0.023041 -1.109293 -4.654647 0
M  V30 59 H 0.466395 -3.314261 -3.621871 0
M  V30 60 H -1.279991 -3.349469 -4.146803 0
M  V30 61 H -1.525634 0.958389 0.996196 0
M  V30 62 H 0.857543 1.033158 -0.538056 0
M  V30 63 H 1.689867 -1.376245 -0.480674 0
M  V30 END ATOM
M  V30 BEGIN BOND
M  V30 1 1 1 2
M  V30 2 2 2 3
M  V30 3 1 3 4
M  V30 4 2 4 5
M  V30 5 1 5 6
M  V30 6 1 6 7
M  V30 7 2 7 8
M  V30 8 1 8 9
M  V30 9 2 9 10
M  V30 10 1 10 11
M  V30 11 2 11 12
M  V30 12 1 11 13
M  V30 13 1 13 14
M  V30 14 1 14 15
M  V30 15 2 15 16
M  V30 16 1 16 17
M  V30 17 2 17 18
M  V30 18 1 18 19
M  V30 19 1 19 20
M  V30 20 2 20 21
M  V30 21 1 20 22
M  V30 22 1 22 23
M  V30 23 2 23 24
M  V30 24 1 24 25
M  V30 25 2 25 26
M  V30 26 1 26 27
M  V30 27 2 27 28
M  V30 28 1 27 29
M  V30 29 1 29 30
M  V30 30 1 30 31
M  V30 31 1 30 32
M  V30 32 1 32 33
M  V30 33 2 19 34
M  V30 34 1 10 35
M  V30 35 2 35 36
M  V30 36 1 6 2
M  V30 37 1 36 7
M  V30 38 1 34 15
M  V30 39 1 28 23
M  V30 40 1 33 26
M  V30 41 1 1 37
M  V30 42 1 1 38
M  V30 43 1 1 39
M  V30 44 1 8 40
M  V30 45 1 9 41
M  V30 46 1 13 42
M  V30 47 1 14 43
M  V30 48 1 14 44
M  V30 49 1 16 45
M  V30 50 1 17 46
M  V30 51 1 18 47
M  V30 52 1 22 48
M  V30 53 1 24 49
M  V30 54 1 25 50
M  V30 55 1 28 51
M  V30 56 1 29 52
M  V30 57 1 29 53
M  V30 58 1 31 54
M  V30 59 1 31 55
M  V30 60 1 31 56
M  V30 61 1 32 57
M  V30 62 1 32 58
M  V30 63 1 33 59
M  V30 64 1 33 60
M  V30 65 1 34 61
M  V30 66 1 35 62
M  V30 67 1 36 63
M  V30 END BOND
M  V30 END CTAB
M  END
>  <Dataset>  (295) 
ChEMBL_Kinases

>  <Ligand_Instance>  (295) 
nan

>  <PDB_ID>  (295) 
nan

>  <Standardized_SMILES>  (295) 
Cc1nnnn1-c1ccc(C(=O)NCc2cccc(C(=O)Nc3ccc4c(c3)CN(C)CC4)c2)cc1

>  <Name>  (295) 
nan

>  <Pocket>  (295) 
nan

>  <ATP_Site>  (295) 
nan

>  <Peripheral>  (295) 
nan

>  <Num_H_Atoms_ProtBoundConf>  (295) 
nan

>  <Num_Resolved_Atoms>  (295) 
nan

>  <Num_Not_Resolved_Atoms>  (295) 
nan

$$$$
CHEMBL3680714
     RDKit          3D

  0  0  0  0  0  0  0  0  0  0999 V3000
M  V30 BEGIN CTAB
M  V30 COUNTS 59 63 0 0 0
M  V30 BEGIN ATOM
M  V30 1 C 4.898959 -1.444838 5.199467 0
M  V30 2 C 6.054220 -0.501021 5.204880 0
M  V30 3 N 7.186540 -0.880968 5.826400 0
M  V30 4 N 8.047563 0.108387 5.695064 0
M  V30 5 N 7.457294 1.071184 5.009968 0
M  V30 6 N 6.223901 0.715111 4.696778 0
M  V30 7 C 5.138645 1.307458 3.993478 0
M  V30 8 C 4.835767 0.879819 2.705196 0
M  V30 9 C 3.795493 1.458258 2.050592 0
M  V30 10 C 2.991323 2.451486 2.550052 0
M  V30 11 C 1.875263 3.080776 1.861392 0
M  V30 12 O 1.218407 3.987845 2.463148 0
M  V30 13 N 1.463117 2.758140 0.565180 0
M  V30 14 C 0.376978 3.308236 -0.219799 0
M  V30 15 C -0.888970 2.716708 0.296910 0
M  V30 16 C -1.709989 3.225027 1.281562 0
M  V30 17 C -2.853703 2.553063 1.652177 0
M  V30 18 C -3.242656 1.349865 1.071073 0
M  V30 19 C -2.445779 0.813437 0.084051 0
M  V30 20 C -2.740662 -0.439323 -0.603484 0
M  V30 21 O -2.044370 -0.977893 -1.505994 0
M  V30 22 N -3.902272 -1.180483 -0.282336 0
M  V30 23 C -3.950239 -2.388480 -1.117904 0
M  V30 24 N -4.372397 -2.718831 -2.151393 0
M  V30 25 C -4.273856 -3.918098 -2.693217 0
M  V30 26 C -3.596454 -4.894807 -1.959307 0
M  V30 27 S -3.119231 -3.993869 -0.467383 0
M  V30 28 C -3.474835 -6.269135 -2.564757 0
M  V30 29 C -2.923994 -6.121064 -3.988416 0 CFG=2
M  V30 30 N -1.598539 -5.550933 -3.819000 0
M  V30 31 C -3.739803 -5.171045 -4.791826 0
M  V30 32 C -4.778901 -4.423552 -3.997587 0
M  V30 33 C -1.287961 1.513468 -0.276747 0
M  V30 34 C 3.327236 2.846243 3.832454 0
M  V30 35 C 4.369820 2.303516 4.556685 0
M  V30 36 H 4.694589 -1.771314 6.238300 0
M  V30 37 H 3.982331 -0.968347 4.808548 0
M  V30 38 H 5.148197 -2.351447 4.612653 0
M  V30 39 H 5.442041 0.097527 2.267395 0
M  V30 40 H 3.598268 1.095954 1.056579 0
M  V30 41 H 2.050581 1.994283 0.115951 0
M  V30 42 H 0.513237 3.033834 -1.286330 0
M  V30 43 H 0.332271 4.410084 -0.078406 0
M  V30 44 H -1.405128 4.143710 1.715830 0
M  V30 45 H -3.470965 2.988017 2.430791 0
M  V30 46 H -4.130963 0.843256 1.370024 0
M  V30 47 H -4.586117 -0.900599 0.422975 0
M  V30 48 H -4.440542 -6.770663 -2.560356 0
M  V30 49 H -2.713090 -6.830573 -1.985135 0
M  V30 50 H -2.847405 -7.128128 -4.411073 0
M  V30 51 H -1.513085 -4.608076 -4.255273 0
M  V30 52 H -0.828862 -6.211319 -4.069500 0
M  V30 53 H -3.085458 -4.509844 -5.376878 0
M  V30 54 H -4.308659 -5.773692 -5.559675 0
M  V30 55 H -5.147353 -3.615667 -4.670784 0
M  V30 56 H -5.659875 -5.065818 -3.780268 0
M  V30 57 H -0.668585 1.062442 -1.068738 0
M  V30 58 H 2.783647 3.619571 4.357479 0
M  V30 59 H 4.613880 2.628186 5.558079 0
M  V30 END ATOM
M  V30 BEGIN BOND
M  V30 1 1 1 2
M  V30 2 2 2 3
M  V30 3 1 3 4
M  V30 4 2 4 5
M  V30 5 1 5 6
M  V30 6 1 6 7
M  V30 7 2 7 8
M  V30 8 1 8 9
M  V30 9 2 9 10
M  V30 10 1 10 11
M  V30 11 2 11 12
M  V30 12 1 11 13
M  V30 13 1 13 14
M  V30 14 1 14 15
M  V30 15 2 15 16
M  V30 16 1 16 17
M  V30 17 2 17 18
M  V30 18 1 18 19
M  V30 19 1 19 20
M  V30 20 2 20 21
M  V30 21 1 20 22
M  V30 22 1 22 23
M  V30 23 2 23 24
M  V30 24 1 24 25
M  V30 25 2 25 26
M  V30 26 1 26 27
M  V30 27 1 26 28
M  V30 28 1 28 29
M  V30 29 1 29 30
M  V30 30 1 29 31
M  V30 31 1 31 32
M  V30 32 2 19 33
M  V30 33 1 10 34
M  V30 34 2 34 35
M  V30 35 1 6 2
M  V30 36 1 35 7
M  V30 37 1 33 15
M  V30 38 1 27 23
M  V30 39 1 32 25
M  V30 40 1 1 36
M  V30 41 1 1 37
M  V30 42 1 1 38
M  V30 43 1 8 39
M  V30 44 1 9 40
M  V30 45 1 13 41
M  V30 46 1 14 42
M  V30 47 1 14 43
M  V30 48 1 16 44
M  V30 49 1 17 45
M  V30 50 1 18 46
M  V30 51 1 22 47
M  V30 52 1 28 48
M  V30 53 1 28 49
M  V30 54 1 29 50 CFG=3
M  V30 55 1 30 51
M  V30 56 1 30 52
M  V30 57 1 31 53
M  V30 58 1 31 54
M  V30 59 1 32 55
M  V30 60 1 32 56
M  V30 61 1 33 57
M  V30 62 1 34 58
M  V30 63 1 35 59
M  V30 END BOND
M  V30 END CTAB
M  END
>  <Dataset>  (296) 
ChEMBL_Kinases

>  <Ligand_Instance>  (296) 
nan

>  <PDB_ID>  (296) 
nan

>  <Standardized_SMILES>  (296) 
Cc1nnnn1-c1ccc(C(=O)NCc2cccc(C(=O)Nc3nc4c(s3)C[C@H](N)CC4)c2)cc1

>  <Name>  (296) 
nan

>  <Pocket>  (296) 
nan

>  <ATP_Site>  (296) 
nan

>  <Peripheral>  (296) 
nan

>  <Num_H_Atoms_ProtBoundConf>  (296) 
nan

>  <Num_Resolved_Atoms>  (296) 
nan

>  <Num_Not_Resolved_Atoms>  (296) 
nan

$$$$
CHEMBL3684374
     RDKit          3D

  0  0  0  0  0  0  0  0  0  0999 V3000
M  V30 BEGIN CTAB
M  V30 COUNTS 47 51 0 0 0
M  V30 BEGIN ATOM
M  V30 1 C 0.827481 -0.642496 5.007109 0
M  V30 2 S 2.333008 -0.570452 5.945021 0
M  V30 3 O 3.109438 -1.822585 5.643050 0
M  V30 4 O 1.964249 -0.681243 7.413435 0
M  V30 5 O 3.123073 0.830843 5.620142 0
M  V30 6 C 3.885108 0.896384 4.494677 0
M  V30 7 C 3.084654 0.687786 3.266202 0
M  V30 8 C 2.854783 -0.484909 2.581777 0
M  V30 9 C 2.077797 -0.536913 1.446208 0
M  V30 10 C 1.471633 0.622811 0.921279 0
M  V30 11 C 0.703464 0.469724 -0.291725 0
M  V30 12 N 1.214882 1.162404 -1.343501 0
M  V30 13 N 0.477873 0.928983 -2.441324 0
M  V30 14 C -0.493270 0.097065 -2.096788 0
M  V30 15 N -0.348856 -0.172103 -0.790425 0
M  V30 16 C -1.129746 -0.996343 0.044551 0
M  V30 17 C -1.026256 -0.583022 1.344080 0
M  V30 18 C -1.693887 -1.327200 2.294921 0
M  V30 19 C -2.422712 -2.439283 1.856173 0
M  V30 20 N -2.534880 -2.857188 0.559588 0
M  V30 21 C -1.861979 -2.096464 -0.347439 0
M  V30 22 N -2.115482 -2.586064 -1.687793 0
M  V30 23 C -2.148264 -1.664536 -2.809184 0
M  V30 24 C -3.043069 -2.144255 -3.774851 0
M  V30 25 C -3.212496 -1.379733 -4.905707 0
M  V30 26 C -2.530700 -0.185384 -5.088693 0
M  V30 27 C -1.645295 0.307931 -4.155361 0
M  V30 28 C -1.474034 -0.453635 -3.026028 0
M  V30 29 C 1.694393 1.834009 1.606442 0
M  V30 30 C 2.480276 1.836735 2.740242 0
M  V30 31 H 0.689376 0.248048 4.355656 0
M  V30 32 H 0.809797 -1.529375 4.331762 0
M  V30 33 H -0.051475 -0.788619 5.677754 0
M  V30 34 H 4.362931 1.916464 4.409393 0
M  V30 35 H 4.751592 0.187698 4.526694 0
M  V30 36 H 3.321654 -1.357728 2.982553 0
M  V30 37 H 1.959178 -1.517536 0.980307 0
M  V30 38 H -0.554038 0.252558 1.787899 0
M  V30 39 H -1.714048 -1.137695 3.368137 0
M  V30 40 H -2.964708 -3.062109 2.553802 0
M  V30 41 H -2.286738 -3.577542 -1.839660 0
M  V30 42 H -3.537468 -3.077456 -3.573402 0
M  V30 43 H -3.898066 -1.728388 -5.666381 0
M  V30 44 H -2.659885 0.428074 -5.983697 0
M  V30 45 H -1.066591 1.214287 -4.192562 0
M  V30 46 H 1.223250 2.707843 1.189820 0
M  V30 47 H 2.584137 2.826336 3.187441 0
M  V30 END ATOM
M  V30 BEGIN BOND
M  V30 1 1 1 2
M  V30 2 2 2 3
M  V30 3 2 2 4
M  V30 4 1 2 5
M  V30 5 1 5 6
M  V30 6 1 6 7
M  V30 7 2 7 8
M  V30 8 1 8 9
M  V30 9 2 9 10
M  V30 10 1 10 11
M  V30 11 2 11 12
M  V30 12 1 12 13
M  V30 13 2 13 14
M  V30 14 1 14 15
M  V30 15 1 15 16
M  V30 16 2 16 17
M  V30 17 1 17 18
M  V30 18 2 18 19
M  V30 19 1 19 20
M  V30 20 2 20 21
M  V30 21 1 21 22
M  V30 22 1 22 23
M  V30 23 2 23 24
M  V30 24 1 24 25
M  V30 25 2 25 26
M  V30 26 1 26 27
M  V30 27 2 27 28
M  V30 28 1 10 29
M  V30 29 2 29 30
M  V30 30 1 30 7
M  V30 31 1 15 11
M  V30 32 1 21 16
M  V30 33 1 28 23
M  V30 34 1 28 14
M  V30 35 1 1 31
M  V30 36 1 1 32
M  V30 37 1 1 33
M  V30 38 1 6 34
M  V30 39 1 6 35
M  V30 40 1 8 36
M  V30 41 1 9 37
M  V30 42 1 17 38
M  V30 43 1 18 39
M  V30 44 1 19 40
M  V30 45 1 22 41
M  V30 46 1 24 42
M  V30 47 1 25 43
M  V30 48 1 26 44
M  V30 49 1 27 45
M  V30 50 1 29 46
M  V30 51 1 30 47
M  V30 END BOND
M  V30 END CTAB
M  END
>  <Dataset>  (297) 
ChEMBL_Kinases

>  <Ligand_Instance>  (297) 
nan

>  <PDB_ID>  (297) 
nan

>  <Standardized_SMILES>  (297) 
CS(=O)(=O)OCc1ccc(-c2nnc3n2-c2cccnc2Nc2ccccc2-3)cc1

>  <Name>  (297) 
nan

>  <Pocket>  (297) 
nan

>  <ATP_Site>  (297) 
nan

>  <Peripheral>  (297) 
nan

>  <Num_H_Atoms_ProtBoundConf>  (297) 
nan

>  <Num_Resolved_Atoms>  (297) 
nan

>  <Num_Not_Resolved_Atoms>  (297) 
nan

$$$$
CHEMBL3680697
     RDKit          3D

  0  0  0  0  0  0  0  0  0  0999 V3000
M  V30 BEGIN CTAB
M  V30 COUNTS 59 63 0 0 0
M  V30 BEGIN ATOM
M  V30 1 C 5.359745 -1.340278 5.705908 0
M  V30 2 C 6.620647 -0.742366 5.204839 0
M  V30 3 N 7.897807 -1.045113 5.485890 0
M  V30 4 N 8.706221 -0.253960 4.810202 0
M  V30 5 N 7.963625 0.548790 4.102415 0
M  V30 6 N 6.695339 0.255841 4.338833 0
M  V30 7 C 5.612168 0.943009 3.726396 0
M  V30 8 C 5.255788 0.493640 2.466617 0
M  V30 9 C 4.222677 1.068093 1.756224 0
M  V30 10 C 3.488592 2.120915 2.261617 0
M  V30 11 C 2.380712 2.807379 1.611325 0
M  V30 12 O 1.778427 3.769627 2.186296 0
M  V30 13 N 1.892641 2.472955 0.321370 0
M  V30 14 C 0.800036 3.098026 -0.397755 0
M  V30 15 C -0.526449 2.676448 0.115689 0
M  V30 16 C -1.270934 3.288661 1.099393 0
M  V30 17 C -2.497512 2.815340 1.513031 0
M  V30 18 C -2.998713 1.678737 0.913441 0
M  V30 19 C -2.323590 0.999967 -0.079575 0
M  V30 20 C -2.808063 -0.206135 -0.743787 0
M  V30 21 O -2.156366 -0.785819 -1.654051 0
M  V30 22 N -4.038656 -0.788835 -0.398445 0
M  V30 23 C -4.366559 -2.015646 -1.183790 0
M  V30 24 N -4.872775 -2.412156 -2.118342 0
M  V30 25 C -4.972898 -3.664715 -2.523268 0
M  V30 26 C -4.381208 -4.636519 -1.699675 0
M  V30 27 S -3.717539 -3.642349 -0.385248 0
M  V30 28 C -4.518683 -6.062827 -2.203484 0
M  V30 29 N -4.025041 -6.139328 -3.577558 0
M  V30 30 C -2.622321 -5.726446 -3.499245 0
M  V30 31 C -4.701005 -5.227762 -4.451994 0
M  V30 32 C -5.613669 -4.265389 -3.724321 0
M  V30 33 C -1.100435 1.529452 -0.444987 0
M  V30 34 C 3.865237 2.552105 3.524476 0
M  V30 35 C 4.893718 1.995596 4.255642 0
M  V30 36 H 5.628043 -1.899751 6.646581 0
M  V30 37 H 4.599422 -0.599303 5.988276 0
M  V30 38 H 4.977840 -2.127973 5.006576 0
M  V30 39 H 5.774120 -0.329307 1.984876 0
M  V30 40 H 3.954543 0.715413 0.785862 0
M  V30 41 H 2.421066 1.666980 -0.124430 0
M  V30 42 H 0.923182 4.211150 -0.338032 0
M  V30 43 H 0.869948 2.776393 -1.457877 0
M  V30 44 H -0.847601 4.166999 1.536090 0
M  V30 45 H -3.042741 3.334023 2.291209 0
M  V30 46 H -3.961322 1.284697 1.219716 0
M  V30 47 H -4.658204 -0.411805 0.324019 0
M  V30 48 H -3.768655 -6.652219 -1.605195 0
M  V30 49 H -5.546039 -6.398917 -2.078447 0
M  V30 50 H -2.060614 -6.011563 -4.409970 0
M  V30 51 H -2.094531 -6.162721 -2.639523 0
M  V30 52 H -2.578641 -4.605376 -3.382393 0
M  V30 53 H -3.973405 -4.646148 -5.060386 0
M  V30 54 H -5.334141 -5.758154 -5.194433 0
M  V30 55 H -6.029697 -3.549570 -4.426769 0
M  V30 56 H -6.466941 -4.885843 -3.350340 0
M  V30 57 H -0.552824 1.006668 -1.228215 0
M  V30 58 H 3.326298 3.381294 3.983690 0
M  V30 59 H 5.188803 2.321160 5.224584 0
M  V30 END ATOM
M  V30 BEGIN BOND
M  V30 1 1 1 2
M  V30 2 2 2 3
M  V30 3 1 3 4
M  V30 4 2 4 5
M  V30 5 1 5 6
M  V30 6 1 6 7
M  V30 7 2 7 8
M  V30 8 1 8 9
M  V30 9 2 9 10
M  V30 10 1 10 11
M  V30 11 2 11 12
M  V30 12 1 11 13
M  V30 13 1 13 14
M  V30 14 1 14 15
M  V30 15 2 15 16
M  V30 16 1 16 17
M  V30 17 2 17 18
M  V30 18 1 18 19
M  V30 19 1 19 20
M  V30 20 2 20 21
M  V30 21 1 20 22
M  V30 22 1 22 23
M  V30 23 2 23 24
M  V30 24 1 24 25
M  V30 25 2 25 26
M  V30 26 1 26 27
M  V30 27 1 26 28
M  V30 28 1 28 29
M  V30 29 1 29 30
M  V30 30 1 29 31
M  V30 31 1 31 32
M  V30 32 2 19 33
M  V30 33 1 10 34
M  V30 34 2 34 35
M  V30 35 1 6 2
M  V30 36 1 35 7
M  V30 37 1 33 15
M  V30 38 1 27 23
M  V30 39 1 32 25
M  V30 40 1 1 36
M  V30 41 1 1 37
M  V30 42 1 1 38
M  V30 43 1 8 39
M  V30 44 1 9 40
M  V30 45 1 13 41
M  V30 46 1 14 42
M  V30 47 1 14 43
M  V30 48 1 16 44
M  V30 49 1 17 45
M  V30 50 1 18 46
M  V30 51 1 22 47
M  V30 52 1 28 48
M  V30 53 1 28 49
M  V30 54 1 30 50
M  V30 55 1 30 51
M  V30 56 1 30 52
M  V30 57 1 31 53
M  V30 58 1 31 54
M  V30 59 1 32 55
M  V30 60 1 32 56
M  V30 61 1 33 57
M  V30 62 1 34 58
M  V30 63 1 35 59
M  V30 END BOND
M  V30 END CTAB
M  END
>  <Dataset>  (298) 
ChEMBL_Kinases

>  <Ligand_Instance>  (298) 
nan

>  <PDB_ID>  (298) 
nan

>  <Standardized_SMILES>  (298) 
Cc1nnnn1-c1ccc(C(=O)NCc2cccc(C(=O)Nc3nc4c(s3)CN(C)CC4)c2)cc1

>  <Name>  (298) 
nan

>  <Pocket>  (298) 
nan

>  <ATP_Site>  (298) 
nan

>  <Peripheral>  (298) 
nan

>  <Num_H_Atoms_ProtBoundConf>  (298) 
nan

>  <Num_Resolved_Atoms>  (298) 
nan

>  <Num_Not_Resolved_Atoms>  (298) 
nan

$$$$
CHEMBL3680698
     RDKit          3D

  0  0  0  0  0  0  0  0  0  0999 V3000
M  V30 BEGIN CTAB
M  V30 COUNTS 57 61 0 0 0
M  V30 BEGIN ATOM
M  V30 1 C 3.676846 -4.505654 3.096269 0
M  V30 2 N 3.205618 -3.233875 2.673431 0
M  V30 3 C 2.686812 -2.398400 3.722536 0
M  V30 4 C 3.576905 -1.154850 3.884460 0
M  V30 5 C 3.352468 -0.328282 2.671256 0
M  V30 6 N 2.954914 0.905426 2.504918 0
M  V30 7 C 2.794329 1.434992 1.468673 0
M  V30 8 N 2.468772 2.534563 0.510523 0
M  V30 9 C 1.096208 2.511652 0.384688 0
M  V30 10 O 0.731665 1.556098 1.184448 0
M  V30 11 C 0.106401 3.251436 -0.373556 0
M  V30 12 C 0.360834 4.160265 -1.379598 0
M  V30 13 C -0.647371 4.758928 -2.076304 0
M  V30 14 C -1.972706 4.494866 -1.821327 0
M  V30 15 C -2.268411 3.611112 -0.842404 0
M  V30 16 C -3.557982 2.949274 -0.365986 0
M  V30 17 N -3.399729 1.502903 -0.646795 0
M  V30 18 C -4.063212 0.288463 -0.248861 0
M  V30 19 O -5.011512 0.622996 0.495825 0
M  V30 20 C -3.522640 -0.966157 -0.751414 0
M  V30 21 C -2.586694 -1.196786 -1.726287 0
M  V30 22 C -2.173413 -2.515856 -1.952394 0
M  V30 23 C -2.700249 -3.580665 -1.203575 0
M  V30 24 C -2.049975 -4.787990 -1.672370 0
M  V30 25 C -2.487057 -5.885407 -0.903446 0
M  V30 26 N -1.906044 -7.058770 -1.295755 0
M  V30 27 C -1.097108 -6.637264 -2.333249 0
M  V30 28 O -1.270961 -5.377490 -2.434483 0
M  V30 29 C -3.636662 -3.326128 -0.237576 0
M  V30 30 C -4.027097 -2.018544 -0.033081 0
M  V30 31 C -1.233020 2.991997 -0.118510 0
M  V30 32 S 3.229750 0.124923 0.254398 0
M  V30 33 C 3.623040 -1.129610 1.571687 0
M  V30 34 C 4.065304 -2.520718 1.759850 0
M  V30 35 H 4.247374 -4.444160 4.041890 0
M  V30 36 H 4.242536 -5.002853 2.279876 0
M  V30 37 H 2.815039 -5.191879 3.338462 0
M  V30 38 H 2.760676 -2.947597 4.670075 0
M  V30 39 H 1.651528 -2.071786 3.504650 0
M  V30 40 H 3.304163 -0.603751 4.811393 0
M  V30 41 H 4.621849 -1.493933 3.881348 0
M  V30 42 H 2.918686 3.247680 -0.044527 0
M  V30 43 H 1.385616 4.372430 -1.593953 0
M  V30 44 H -0.494341 5.481518 -2.878744 0
M  V30 45 H -2.878092 4.859399 -2.256593 0
M  V30 46 H -3.605965 3.142893 0.718020 0
M  V30 47 H -4.433187 3.379947 -0.849604 0
M  V30 48 H -2.581054 1.352450 -1.322440 0
M  V30 49 H -2.242543 -0.336703 -2.243705 0
M  V30 50 H -1.436460 -2.520092 -2.749110 0
M  V30 51 H -3.153110 -6.152241 -0.062245 0
M  V30 52 H -0.405569 -7.120676 -3.018159 0
M  V30 53 H -3.959234 -4.222179 0.252699 0
M  V30 54 H -4.780573 -1.991709 0.770905 0
M  V30 55 H -1.418588 2.269210 0.698960 0
M  V30 56 H 5.092483 -2.506001 2.165891 0
M  V30 57 H 4.092755 -3.091171 0.810011 0
M  V30 END ATOM
M  V30 BEGIN BOND
M  V30 1 1 1 2
M  V30 2 1 2 3
M  V30 3 1 3 4
M  V30 4 1 4 5
M  V30 5 1 5 6
M  V30 6 2 6 7
M  V30 7 1 7 8
M  V30 8 1 8 9
M  V30 9 2 9 10
M  V30 10 1 9 11
M  V30 11 2 11 12
M  V30 12 1 12 13
M  V30 13 2 13 14
M  V30 14 1 14 15
M  V30 15 1 15 16
M  V30 16 1 16 17
M  V30 17 1 17 18
M  V30 18 2 18 19
M  V30 19 1 18 20
M  V30 20 2 20 21
M  V30 21 1 21 22
M  V30 22 2 22 23
M  V30 23 1 23 24
M  V30 24 2 24 25
M  V30 25 1 25 26
M  V30 26 2 26 27
M  V30 27 1 27 28
M  V30 28 1 23 29
M  V30 29 2 29 30
M  V30 30 2 15 31
M  V30 31 1 7 32
M  V30 32 1 32 33
M  V30 33 1 33 34
M  V30 34 1 34 2
M  V30 35 2 33 5
M  V30 36 1 31 11
M  V30 37 1 30 20
M  V30 38 1 28 24
M  V30 39 1 1 35
M  V30 40 1 1 36
M  V30 41 1 1 37
M  V30 42 1 3 38
M  V30 43 1 3 39
M  V30 44 1 4 40
M  V30 45 1 4 41
M  V30 46 1 8 42
M  V30 47 1 12 43
M  V30 48 1 13 44
M  V30 49 1 14 45
M  V30 50 1 16 46
M  V30 51 1 16 47
M  V30 52 1 17 48
M  V30 53 1 21 49
M  V30 54 1 22 50
M  V30 55 1 25 51
M  V30 56 1 27 52
M  V30 57 1 29 53
M  V30 58 1 30 54
M  V30 59 1 31 55
M  V30 60 1 34 56
M  V30 61 1 34 57
M  V30 END BOND
M  V30 END CTAB
M  END
>  <Dataset>  (299) 
ChEMBL_Kinases

>  <Ligand_Instance>  (299) 
nan

>  <PDB_ID>  (299) 
nan

>  <Standardized_SMILES>  (299) 
CN1CCc2nc(NC(=O)c3cccc(CNC(=O)c4ccc(-c5cnco5)cc4)c3)sc2C1

>  <Name>  (299) 
nan

>  <Pocket>  (299) 
nan

>  <ATP_Site>  (299) 
nan

>  <Peripheral>  (299) 
nan

>  <Num_H_Atoms_ProtBoundConf>  (299) 
nan

>  <Num_Resolved_Atoms>  (299) 
nan

>  <Num_Not_Resolved_Atoms>  (299) 
nan

$$$$
CHEMBL3680699
     RDKit          3D

  0  0  0  0  0  0  0  0  0  0999 V3000
M  V30 BEGIN CTAB
M  V30 COUNTS 56 60 0 0 0
M  V30 BEGIN ATOM
M  V30 1 C 7.387968 -2.496773 3.665382 0
M  V30 2 N 6.341179 -1.814274 2.977676 0
M  V30 3 C 6.111303 -0.462672 3.391494 0
M  V30 4 C 6.313686 0.556777 2.277386 0
M  V30 5 C 5.282349 0.187170 1.237043 0
M  V30 6 N 4.380295 0.907469 0.619953 0
M  V30 7 C 3.607263 0.559127 -0.179724 0
M  V30 8 N 2.569578 1.244598 -0.929611 0
M  V30 9 C 1.340791 1.227944 -0.260223 0
M  V30 10 O 1.276646 0.642739 0.874193 0
M  V30 11 C 0.152072 1.857812 -0.828316 0
M  V30 12 C 0.157205 2.492426 -2.026443 0
M  V30 13 C -1.003828 3.065540 -2.502552 0
M  V30 14 C -2.181204 3.010524 -1.786834 0
M  V30 15 C -2.251774 2.384010 -0.570372 0
M  V30 16 C -3.422727 2.221850 0.330182 0
M  V30 17 N -4.053513 0.959022 -0.003752 0
M  V30 18 C -4.885688 0.710095 -1.118950 0
M  V30 19 O -5.125019 1.647251 -1.917001 0
M  V30 20 C -5.432663 -0.623371 -1.298476 0
M  V30 21 C -6.339491 -0.886822 -2.507058 0
M  V30 22 S -6.771408 -2.616113 -2.332645 0
M  V30 23 C -5.741122 -2.772807 -0.746248 0
M  V30 24 C -5.678362 -4.075527 -0.044283 0
M  V30 25 C -4.918883 -4.153108 1.103085 0
M  V30 26 C -4.882543 -5.393625 1.738157 0
M  V30 27 C -5.583675 -6.446485 1.206404 0
M  V30 28 N -6.326044 -6.360460 0.080050 0
M  V30 29 C -6.362742 -5.166712 -0.533588 0
M  V30 30 N -5.310292 -1.726482 -0.602889 0
M  V30 31 C -1.043011 1.821157 -0.138154 0
M  V30 32 S 4.045479 -1.235598 -0.285189 0
M  V30 33 C 5.338992 -1.121573 0.921395 0
M  V30 34 C 6.325584 -2.036167 1.561068 0
M  V30 35 H 8.181626 -1.824546 4.076914 0
M  V30 36 H 7.796653 -3.326450 3.057106 0
M  V30 37 H 6.938624 -2.982607 4.567604 0
M  V30 38 H 6.817137 -0.225496 4.211114 0
M  V30 39 H 5.074120 -0.325720 3.752089 0
M  V30 40 H 6.122522 1.536931 2.735895 0
M  V30 41 H 7.282610 0.467946 1.785105 0
M  V30 42 H 2.715026 1.685922 -1.835039 0
M  V30 43 H 1.052271 2.562592 -2.623990 0
M  V30 44 H -1.075467 3.591496 -3.455881 0
M  V30 45 H -3.102686 3.452904 -2.131622 0
M  V30 46 H -3.057452 2.148083 1.376304 0
M  V30 47 H -4.143553 3.064972 0.215758 0
M  V30 48 H -3.883282 0.129109 0.641921 0
M  V30 49 H -6.623805 -0.021613 -3.329255 0
M  V30 50 H -4.415065 -3.254833 1.418731 0
M  V30 51 H -4.286497 -5.454067 2.638141 0
M  V30 52 H -5.476606 -7.360570 1.792017 0
M  V30 53 H -6.969758 -5.105103 -1.450555 0
M  V30 54 H -1.021011 1.300372 0.831454 0
M  V30 55 H 6.066337 -3.102355 1.389890 0
M  V30 56 H 7.315357 -1.869775 1.087982 0
M  V30 END ATOM
M  V30 BEGIN BOND
M  V30 1 1 1 2
M  V30 2 1 2 3
M  V30 3 1 3 4
M  V30 4 1 4 5
M  V30 5 1 5 6
M  V30 6 2 6 7
M  V30 7 1 7 8
M  V30 8 1 8 9
M  V30 9 2 9 10
M  V30 10 1 9 11
M  V30 11 2 11 12
M  V30 12 1 12 13
M  V30 13 2 13 14
M  V30 14 1 14 15
M  V30 15 1 15 16
M  V30 16 1 16 17
M  V30 17 1 17 18
M  V30 18 2 18 19
M  V30 19 1 18 20
M  V30 20 2 20 21
M  V30 21 1 21 22
M  V30 22 1 22 23
M  V30 23 1 23 24
M  V30 24 2 24 25
M  V30 25 1 25 26
M  V30 26 2 26 27
M  V30 27 1 27 28
M  V30 28 2 28 29
M  V30 29 2 23 30
M  V30 30 2 15 31
M  V30 31 1 7 32
M  V30 32 1 32 33
M  V30 33 1 33 34
M  V30 34 1 34 2
M  V30 35 2 33 5
M  V30 36 1 31 11
M  V30 37 1 30 20
M  V30 38 1 29 24
M  V30 39 1 1 35
M  V30 40 1 1 36
M  V30 41 1 1 37
M  V30 42 1 3 38
M  V30 43 1 3 39
M  V30 44 1 4 40
M  V30 45 1 4 41
M  V30 46 1 8 42
M  V30 47 1 12 43
M  V30 48 1 13 44
M  V30 49 1 14 45
M  V30 50 1 16 46
M  V30 51 1 16 47
M  V30 52 1 17 48
M  V30 53 1 21 49
M  V30 54 1 25 50
M  V30 55 1 26 51
M  V30 56 1 27 52
M  V30 57 1 29 53
M  V30 58 1 31 54
M  V30 59 1 34 55
M  V30 60 1 34 56
M  V30 END BOND
M  V30 END CTAB
M  END
>  <Dataset>  (300) 
ChEMBL_Kinases

>  <Ligand_Instance>  (300) 
nan

>  <PDB_ID>  (300) 
nan

>  <Standardized_SMILES>  (300) 
CN1CCc2nc(NC(=O)c3cccc(CNC(=O)c4csc(-c5cccnc5)n4)c3)sc2C1

>  <Name>  (300) 
nan

>  <Pocket>  (300) 
nan

>  <ATP_Site>  (300) 
nan

>  <Peripheral>  (300) 
nan

>  <Num_H_Atoms_ProtBoundConf>  (300) 
nan

>  <Num_Resolved_Atoms>  (300) 
nan

>  <Num_Not_Resolved_Atoms>  (300) 
nan

$$$$
CHEMBL3680700
     RDKit          3D

  0  0  0  0  0  0  0  0  0  0999 V3000
M  V30 BEGIN CTAB
M  V30 COUNTS 59 63 0 0 0
M  V30 BEGIN ATOM
M  V30 1 C 6.958420 -2.321710 2.172581 0
M  V30 2 N 6.164719 -1.108430 2.119343 0
M  V30 3 C 6.939108 0.014295 2.591745 0
M  V30 4 C 6.731048 1.284609 1.847013 0
M  V30 5 C 5.343896 1.498941 1.405554 0
M  V30 6 C 4.598727 2.650638 1.518823 0
M  V30 7 C 3.293089 2.585694 1.012276 0
M  V30 8 C 2.781553 1.436396 0.433013 0
M  V30 9 N 1.447391 1.625539 0.002953 0
M  V30 10 C 0.717366 2.075051 -1.128494 0
M  V30 11 O 1.341406 2.456175 -2.145626 0
M  V30 12 C -0.739197 2.086487 -1.086129 0
M  V30 13 C -1.326846 2.652908 -2.196056 0
M  V30 14 C -2.723194 2.724106 -2.252179 0
M  V30 15 C -3.512161 2.234719 -1.212065 0
M  V30 16 C -2.897747 1.661821 -0.092774 0
M  V30 17 C -3.712638 1.129719 1.055292 0
M  V30 18 N -4.143089 -0.209468 0.826699 0
M  V30 19 C -3.434434 -1.425805 0.893500 0
M  V30 20 O -2.199981 -1.390942 1.206959 0
M  V30 21 C -4.115858 -2.681715 0.606938 0
M  V30 22 C -5.434901 -2.814154 0.267267 0
M  V30 23 N -5.780718 -4.092087 0.054137 0
M  V30 24 C -6.946309 -4.710312 -0.297595 0
M  V30 25 C -6.973169 -6.077087 -0.442815 0
M  V30 26 C -5.790031 -6.774731 -0.219953 0
M  V30 27 C -5.914623 -8.200673 -0.393199 0
M  V30 28 N -5.999842 -9.352731 -0.520418 0
M  V30 29 C -4.592537 -6.194384 0.136503 0
M  V30 30 C -4.667538 -4.813818 0.257709 0
M  V30 31 N -3.691483 -3.950890 0.585658 0
M  V30 32 C -1.544044 1.613182 -0.079142 0
M  V30 33 C 3.547902 0.296970 0.331167 0
M  V30 34 C 4.832767 0.356878 0.828774 0
M  V30 35 C 5.733707 -0.820535 0.768211 0
M  V30 36 H 6.792778 -2.791511 3.146486 0
M  V30 37 H 6.595740 -3.010037 1.384803 0
M  V30 38 H 8.037702 -2.142568 1.979772 0
M  V30 39 H 8.024181 -0.298945 2.522072 0
M  V30 40 H 6.694837 0.167049 3.686399 0
M  V30 41 H 7.407427 1.275966 0.951807 0
M  V30 42 H 7.088104 2.109742 2.524992 0
M  V30 43 H 5.079415 3.489741 1.980768 0
M  V30 44 H 2.759775 3.540319 1.137236 0
M  V30 45 H 0.969214 1.288056 0.890511 0
M  V30 46 H -0.779065 3.051392 -3.037597 0
M  V30 47 H -3.208186 3.161211 -3.107594 0
M  V30 48 H -4.597619 2.274798 -1.224258 0
M  V30 49 H -3.008193 1.122782 1.943351 0
M  V30 50 H -4.527230 1.780909 1.352904 0
M  V30 51 H -5.172182 -0.283103 0.560913 0
M  V30 52 H -6.190574 -2.025631 0.158529 0
M  V30 53 H -7.832250 -4.116601 -0.457187 0
M  V30 54 H -7.903981 -6.527791 -0.720758 0
M  V30 55 H -3.700989 -6.782127 0.295647 0
M  V30 56 H -1.048228 1.176246 0.773136 0
M  V30 57 H 3.099417 -0.567668 -0.128056 0
M  V30 58 H 6.622135 -0.623200 0.141108 0
M  V30 59 H 5.175881 -1.728624 0.398895 0
M  V30 END ATOM
M  V30 BEGIN BOND
M  V30 1 1 1 2
M  V30 2 1 2 3
M  V30 3 1 3 4
M  V30 4 1 4 5
M  V30 5 2 5 6
M  V30 6 1 6 7
M  V30 7 2 7 8
M  V30 8 1 8 9
M  V30 9 1 9 10
M  V30 10 2 10 11
M  V30 11 1 10 12
M  V30 12 2 12 13
M  V30 13 1 13 14
M  V30 14 2 14 15
M  V30 15 1 15 16
M  V30 16 1 16 17
M  V30 17 1 17 18
M  V30 18 1 18 19
M  V30 19 2 19 20
M  V30 20 1 19 21
M  V30 21 2 21 22
M  V30 22 1 22 23
M  V30 23 1 23 24
M  V30 24 2 24 25
M  V30 25 1 25 26
M  V30 26 1 26 27
M  V30 27 3 27 28
M  V30 28 2 26 29
M  V30 29 1 29 30
M  V30 30 2 30 31
M  V30 31 2 16 32
M  V30 32 1 8 33
M  V30 33 2 33 34
M  V30 34 1 34 35
M  V30 35 1 35 2
M  V30 36 1 34 5
M  V30 37 1 32 12
M  V30 38 1 31 21
M  V30 39 1 30 23
M  V30 40 1 1 36
M  V30 41 1 1 37
M  V30 42 1 1 38
M  V30 43 1 3 39
M  V30 44 1 3 40
M  V30 45 1 4 41
M  V30 46 1 4 42
M  V30 47 1 6 43
M  V30 48 1 7 44
M  V30 49 1 9 45
M  V30 50 1 13 46
M  V30 51 1 14 47
M  V30 52 1 15 48
M  V30 53 1 17 49
M  V30 54 1 17 50
M  V30 55 1 18 51
M  V30 56 1 22 52
M  V30 57 1 24 53
M  V30 58 1 25 54
M  V30 59 1 29 55
M  V30 60 1 32 56
M  V30 61 1 33 57
M  V30 62 1 35 58
M  V30 63 1 35 59
M  V30 END BOND
M  V30 END CTAB
M  END
>  <Dataset>  (301) 
ChEMBL_Kinases

>  <Ligand_Instance>  (301) 
nan

>  <PDB_ID>  (301) 
nan

>  <Standardized_SMILES>  (301) 
CN1CCc2ccc(NC(=O)c3cccc(CNC(=O)c4cn5ccc(C#N)cc5n4)c3)cc2C1

>  <Name>  (301) 
nan

>  <Pocket>  (301) 
nan

>  <ATP_Site>  (301) 
nan

>  <Peripheral>  (301) 
nan

>  <Num_H_Atoms_ProtBoundConf>  (301) 
nan

>  <Num_Resolved_Atoms>  (301) 
nan

>  <Num_Not_Resolved_Atoms>  (301) 
nan

$$$$
CHEMBL3680701
     RDKit          3D

  0  0  0  0  0  0  0  0  0  0999 V3000
M  V30 BEGIN CTAB
M  V30 COUNTS 58 62 0 0 0
M  V30 BEGIN ATOM
M  V30 1 C 8.153769 -2.425610 2.793267 0
M  V30 2 N 7.001720 -1.916774 2.084732 0
M  V30 3 C 7.281598 -1.624292 0.695872 0
M  V30 4 C 6.985625 -0.169512 0.339812 0
M  V30 5 C 5.497203 -0.029967 0.575338 0
M  V30 6 N 4.501221 0.362899 -0.180837 0
M  V30 7 C 3.359998 0.419362 0.149982 0
M  V30 8 N 2.097723 0.800396 -0.449397 0
M  V30 9 C 1.536451 2.093816 -0.426216 0
M  V30 10 O 2.137623 3.038758 0.149400 0
M  V30 11 C 0.253394 2.388092 -1.059044 0
M  V30 12 C -0.210659 3.707800 -0.958472 0
M  V30 13 C -1.439596 4.004040 -1.560324 0
M  V30 14 C -2.175597 3.048145 -2.228222 0
M  V30 15 C -1.697818 1.753717 -2.314280 0
M  V30 16 C -2.563394 0.801144 -3.059141 0
M  V30 17 N -3.537860 0.168045 -2.177006 0
M  V30 18 C -3.299036 -0.875475 -1.260742 0
M  V30 19 O -2.124952 -1.319118 -1.185336 0
M  V30 20 C -4.327581 -1.455187 -0.411861 0
M  V30 21 C -5.650649 -1.078437 -0.372681 0
M  V30 22 C -6.589986 -1.660965 0.450321 0
M  V30 23 C -6.183589 -2.681963 1.285021 0
M  V30 24 C -7.128941 -3.278080 2.122359 0
M  V30 25 C -6.722917 -4.309479 2.966933 0
M  V30 26 O -7.693247 -4.884828 3.792267 0
M  V30 27 C -5.403619 -4.724470 2.964688 0
M  V30 28 C -4.450373 -4.139308 2.135237 0
M  V30 29 C -4.875419 -3.114347 1.302287 0
M  V30 30 C -4.001347 -2.485737 0.455527 0
M  V30 31 C -0.490003 1.450341 -1.726286 0
M  V30 32 S 3.443057 -0.158871 1.871940 0
M  V30 33 C 5.250578 -0.400231 1.810087 0
M  V30 34 C 6.305508 -0.861596 2.750582 0
M  V30 35 H 9.057273 -1.878791 2.393656 0
M  V30 36 H 8.289168 -3.506988 2.684662 0
M  V30 37 H 8.085680 -2.134675 3.865526 0
M  V30 38 H 6.583491 -2.240348 0.090554 0
M  V30 39 H 8.302457 -1.930032 0.453439 0
M  V30 40 H 7.567920 0.549419 0.921279 0
M  V30 41 H 7.242950 -0.057138 -0.730341 0
M  V30 42 H 1.635814 -0.002999 -0.912138 0
M  V30 43 H 0.341302 4.495110 -0.438655 0
M  V30 44 H -1.776984 5.037805 -1.467185 0
M  V30 45 H -3.117055 3.425051 -2.648751 0
M  V30 46 H -3.125887 1.285338 -3.866980 0
M  V30 47 H -1.928141 0.014256 -3.522498 0
M  V30 48 H -4.540663 0.502233 -2.198479 0
M  V30 49 H -5.976592 -0.286418 -1.017146 0
M  V30 50 H -7.619687 -1.314517 0.431355 0
M  V30 51 H -8.154121 -2.930937 2.100889 0
M  V30 52 H -7.545812 -5.784358 4.246972 0
M  V30 53 H -5.189434 -5.527110 3.652404 0
M  V30 54 H -3.445213 -4.484153 2.160824 0
M  V30 55 H -2.972890 -2.831212 0.474469 0
M  V30 56 H -0.134326 0.439132 -1.806868 0
M  V30 57 H 5.877926 -1.243935 3.697298 0
M  V30 58 H 7.048550 -0.074889 2.997172 0
M  V30 END ATOM
M  V30 BEGIN BOND
M  V30 1 1 1 2
M  V30 2 1 2 3
M  V30 3 1 3 4
M  V30 4 1 4 5
M  V30 5 1 5 6
M  V30 6 2 6 7
M  V30 7 1 7 8
M  V30 8 1 8 9
M  V30 9 2 9 10
M  V30 10 1 9 11
M  V30 11 2 11 12
M  V30 12 1 12 13
M  V30 13 2 13 14
M  V30 14 1 14 15
M  V30 15 1 15 16
M  V30 16 1 16 17
M  V30 17 1 17 18
M  V30 18 2 18 19
M  V30 19 1 18 20
M  V30 20 2 20 21
M  V30 21 1 21 22
M  V30 22 2 22 23
M  V30 23 1 23 24
M  V30 24 2 24 25
M  V30 25 1 25 26
M  V30 26 1 25 27
M  V30 27 2 27 28
M  V30 28 1 28 29
M  V30 29 2 29 30
M  V30 30 2 15 31
M  V30 31 1 7 32
M  V30 32 1 32 33
M  V30 33 1 33 34
M  V30 34 1 34 2
M  V30 35 2 33 5
M  V30 36 1 31 11
M  V30 37 1 30 20
M  V30 38 1 29 23
M  V30 39 1 1 35
M  V30 40 1 1 36
M  V30 41 1 1 37
M  V30 42 1 3 38
M  V30 43 1 3 39
M  V30 44 1 4 40
M  V30 45 1 4 41
M  V30 46 1 8 42
M  V30 47 1 12 43
M  V30 48 1 13 44
M  V30 49 1 14 45
M  V30 50 1 16 46
M  V30 51 1 16 47
M  V30 52 1 17 48
M  V30 53 1 21 49
M  V30 54 1 22 50
M  V30 55 1 24 51
M  V30 56 1 26 52
M  V30 57 1 27 53
M  V30 58 1 28 54
M  V30 59 1 30 55
M  V30 60 1 31 56
M  V30 61 1 34 57
M  V30 62 1 34 58
M  V30 END BOND
M  V30 END CTAB
M  END
>  <Dataset>  (302) 
ChEMBL_Kinases

>  <Ligand_Instance>  (302) 
nan

>  <PDB_ID>  (302) 
nan

>  <Standardized_SMILES>  (302) 
CN1CCc2nc(NC(=O)c3cccc(CNC(=O)c4ccc5cc(O)ccc5c4)c3)sc2C1

>  <Name>  (302) 
nan

>  <Pocket>  (302) 
nan

>  <ATP_Site>  (302) 
nan

>  <Peripheral>  (302) 
nan

>  <Num_H_Atoms_ProtBoundConf>  (302) 
nan

>  <Num_Resolved_Atoms>  (302) 
nan

>  <Num_Not_Resolved_Atoms>  (302) 
nan

$$$$
CHEMBL3680702
     RDKit          3D

  0  0  0  0  0  0  0  0  0  0999 V3000
M  V30 BEGIN CTAB
M  V30 COUNTS 62 66 0 0 0
M  V30 BEGIN ATOM
M  V30 1 C 5.032312 -1.809958 2.282526 0
M  V30 2 N 5.805421 -0.746611 2.903297 0
M  V30 3 C 6.895354 -0.415909 2.011653 0
M  V30 4 C 6.902385 1.008523 1.549871 0
M  V30 5 C 5.593053 1.328610 0.876899 0
M  V30 6 C 5.359680 1.882330 -0.364461 0
M  V30 7 C 4.042761 2.066903 -0.738052 0
M  V30 8 C 2.988734 1.717013 0.085364 0
M  V30 9 N 1.668523 1.934456 -0.368767 0
M  V30 10 C 0.714985 2.976040 -0.312630 0
M  V30 11 O 0.950966 4.068781 0.260427 0
M  V30 12 C -0.584671 2.770391 -0.942754 0
M  V30 13 C -1.475648 3.822835 -0.856223 0
M  V30 14 C -2.717500 3.667208 -1.441398 0
M  V30 15 C -3.112074 2.523174 -2.103421 0
M  V30 16 C -2.222470 1.449410 -2.199704 0
M  V30 17 C -2.492241 0.148885 -2.873938 0
M  V30 18 N -3.050429 -0.848882 -2.009671 0
M  V30 19 C -4.408959 -0.877176 -1.589984 0
M  V30 20 O -5.249830 -0.022685 -1.944756 0
M  V30 21 C -4.863588 -1.944244 -0.704386 0
M  V30 22 C -4.096973 -2.961908 -0.184324 0
M  V30 23 N -4.852532 -3.761219 0.589816 0
M  V30 24 C -4.558806 -4.865470 1.300363 0
M  V30 25 C -5.495775 -5.548085 2.040750 0
M  V30 26 C -5.133606 -6.748385 2.806356 0
M  V30 27 N -3.778204 -7.176097 2.781893 0
M  V30 28 O -6.047743 -7.336714 3.445809 0
M  V30 29 C -6.804955 -5.066763 2.049043 0
M  V30 30 C -7.065476 -3.927205 1.304564 0
M  V30 31 C -6.106808 -3.260265 0.569644 0
M  V30 32 N -6.098713 -2.160744 -0.217456 0
M  V30 33 C -0.988736 1.634479 -1.605208 0
M  V30 34 C 3.226745 1.157590 1.339903 0
M  V30 35 C 4.550211 0.962046 1.737872 0
M  V30 36 C 4.946903 0.376510 3.045255 0
M  V30 37 H 5.626656 -2.543607 1.739154 0
M  V30 38 H 4.258082 -1.397316 1.590607 0
M  V30 39 H 4.455652 -2.360232 3.055009 0
M  V30 40 H 6.933405 -1.129084 1.138281 0
M  V30 41 H 7.829633 -0.616155 2.581294 0
M  V30 42 H 7.037875 1.656519 2.431993 0
M  V30 43 H 7.768479 1.146505 0.899564 0
M  V30 44 H 6.265706 2.109560 -0.907440 0
M  V30 45 H 3.916614 2.504382 -1.720485 0
M  V30 46 H 1.548990 1.002280 -0.822775 0
M  V30 47 H -1.249578 4.753865 -0.357209 0
M  V30 48 H -3.442220 4.475455 -1.391790 0
M  V30 49 H -4.076535 2.376841 -2.569811 0
M  V30 50 H -3.116601 0.308484 -3.793200 0
M  V30 51 H -1.523084 -0.220975 -3.259932 0
M  V30 52 H -2.430968 -1.633683 -1.641154 0
M  V30 53 H -3.048234 -3.138163 -0.340727 0
M  V30 54 H -3.551004 -5.272164 1.320328 0
M  V30 55 H -3.137001 -6.655278 3.407071 0
M  V30 56 H -3.207553 -7.908958 2.284935 0
M  V30 57 H -7.522332 -5.599070 2.622910 0
M  V30 58 H -8.063599 -3.537681 1.295119 0
M  V30 59 H -0.278404 0.819004 -1.663812 0
M  V30 60 H 2.421200 0.870298 2.014732 0
M  V30 61 H 5.320087 1.146940 3.748804 0
M  V30 62 H 3.991256 0.003131 3.498069 0
M  V30 END ATOM
M  V30 BEGIN BOND
M  V30 1 1 1 2
M  V30 2 1 2 3
M  V30 3 1 3 4
M  V30 4 1 4 5
M  V30 5 2 5 6
M  V30 6 1 6 7
M  V30 7 2 7 8
M  V30 8 1 8 9
M  V30 9 1 9 10
M  V30 10 2 10 11
M  V30 11 1 10 12
M  V30 12 2 12 13
M  V30 13 1 13 14
M  V30 14 2 14 15
M  V30 15 1 15 16
M  V30 16 1 16 17
M  V30 17 1 17 18
M  V30 18 1 18 19
M  V30 19 2 19 20
M  V30 20 1 19 21
M  V30 21 2 21 22
M  V30 22 1 22 23
M  V30 23 1 23 24
M  V30 24 2 24 25
M  V30 25 1 25 26
M  V30 26 1 26 27
M  V30 27 2 26 28
M  V30 28 1 25 29
M  V30 29 2 29 30
M  V30 30 1 30 31
M  V30 31 2 31 32
M  V30 32 2 16 33
M  V30 33 1 8 34
M  V30 34 2 34 35
M  V30 35 1 35 36
M  V30 36 1 36 2
M  V30 37 1 35 5
M  V30 38 1 33 12
M  V30 39 1 32 21
M  V30 40 1 31 23
M  V30 41 1 1 37
M  V30 42 1 1 38
M  V30 43 1 1 39
M  V30 44 1 3 40
M  V30 45 1 3 41
M  V30 46 1 4 42
M  V30 47 1 4 43
M  V30 48 1 6 44
M  V30 49 1 7 45
M  V30 50 1 9 46
M  V30 51 1 13 47
M  V30 52 1 14 48
M  V30 53 1 15 49
M  V30 54 1 17 50
M  V30 55 1 17 51
M  V30 56 1 18 52
M  V30 57 1 22 53
M  V30 58 1 24 54
M  V30 59 1 27 55
M  V30 60 1 27 56
M  V30 61 1 29 57
M  V30 62 1 30 58
M  V30 63 1 33 59
M  V30 64 1 34 60
M  V30 65 1 36 61
M  V30 66 1 36 62
M  V30 END BOND
M  V30 END CTAB
M  END
>  <Dataset>  (303) 
ChEMBL_Kinases

>  <Ligand_Instance>  (303) 
nan

>  <PDB_ID>  (303) 
nan

>  <Standardized_SMILES>  (303) 
CN1CCc2ccc(NC(=O)c3cccc(CNC(=O)c4cn5cc(C(N)=O)ccc5n4)c3)cc2C1

>  <Name>  (303) 
nan

>  <Pocket>  (303) 
nan

>  <ATP_Site>  (303) 
nan

>  <Peripheral>  (303) 
nan

>  <Num_H_Atoms_ProtBoundConf>  (303) 
nan

>  <Num_Resolved_Atoms>  (303) 
nan

>  <Num_Not_Resolved_Atoms>  (303) 
nan

$$$$
CHEMBL3680703
     RDKit          3D

  0  0  0  0  0  0  0  0  0  0999 V3000
M  V30 BEGIN CTAB
M  V30 COUNTS 56 60 0 0 0
M  V30 BEGIN ATOM
M  V30 1 C 7.133028 -2.476239 3.540193 0
M  V30 2 N 6.035489 -1.782031 2.922035 0
M  V30 3 C 5.833912 -0.449418 3.447048 0
M  V30 4 C 6.195009 0.602235 2.389401 0
M  V30 5 C 5.167565 0.445869 1.318252 0
M  V30 6 N 4.391943 1.433160 0.873689 0
M  V30 7 C 3.536569 0.921145 -0.149750 0
M  V30 8 N 2.508648 1.553647 -0.965639 0
M  V30 9 C 1.266590 1.466846 -0.332222 0
M  V30 10 O 1.229695 0.880732 0.804459 0
M  V30 11 C 0.030725 2.002450 -0.893405 0
M  V30 12 C -0.034312 2.626796 -2.104375 0
M  V30 13 C -1.206088 3.128335 -2.635204 0
M  V30 14 C -2.349474 2.976827 -1.883496 0
M  V30 15 C -2.383216 2.364875 -0.658533 0
M  V30 16 C -3.573124 2.145602 0.215073 0
M  V30 17 N -4.087018 0.824410 -0.088107 0
M  V30 18 C -4.839106 0.437473 -1.199744 0
M  V30 19 O -5.095466 1.344049 -2.023654 0
M  V30 20 C -5.259126 -0.943212 -1.323317 0
M  V30 21 C -6.072988 -1.372300 -2.575959 0
M  V30 22 S -6.343709 -3.143746 -2.258770 0
M  V30 23 C -5.399924 -3.063699 -0.618010 0
M  V30 24 C -5.252819 -4.270057 0.189003 0
M  V30 25 C -4.555859 -4.151806 1.385735 0
M  V30 26 C -4.421006 -5.309722 2.150982 0
M  V30 27 N -4.945731 -6.475458 1.736964 0
M  V30 28 C -5.618618 -6.574010 0.573947 0
M  V30 29 C -5.788005 -5.480457 -0.224066 0
M  V30 30 N -5.046554 -1.949989 -0.492074 0
M  V30 31 C -1.154022 1.886403 -0.195608 0
M  V30 32 S 3.914990 -0.828233 -0.354983 0
M  V30 33 C 5.172785 -0.885112 0.880682 0
M  V30 34 C 6.085483 -1.815805 1.484415 0
M  V30 35 H 7.663440 -1.749183 4.213733 0
M  V30 36 H 7.846790 -2.873999 2.793780 0
M  V30 37 H 6.761931 -3.303649 4.210664 0
M  V30 38 H 6.473601 -0.333474 4.336251 0
M  V30 39 H 4.792117 -0.273238 3.725468 0
M  V30 40 H 6.220700 1.572395 2.873536 0
M  V30 41 H 7.212767 0.417113 1.981224 0
M  V30 42 H 2.608637 2.013189 -1.876134 0
M  V30 43 H 0.880891 2.740511 -2.690817 0
M  V30 44 H -1.266510 3.626424 -3.597952 0
M  V30 45 H -3.279512 3.356056 -2.257239 0
M  V30 46 H -3.226191 2.170127 1.254142 0
M  V30 47 H -4.359132 2.911466 0.016496 0
M  V30 48 H -3.864173 0.059784 0.617472 0
M  V30 49 H -6.322958 -0.542325 -3.393985 0
M  V30 50 H -4.167441 -3.198232 1.651441 0
M  V30 51 H -3.890119 -5.253396 3.081233 0
M  V30 52 H -6.005782 -7.567949 0.329157 0
M  V30 53 H -6.322410 -5.551623 -1.151441 0
M  V30 54 H -1.119720 1.387035 0.781272 0
M  V30 55 H 5.791644 -2.836093 1.164472 0
M  V30 56 H 7.118668 -1.646364 1.125108 0
M  V30 END ATOM
M  V30 BEGIN BOND
M  V30 1 1 1 2
M  V30 2 1 2 3
M  V30 3 1 3 4
M  V30 4 1 4 5
M  V30 5 1 5 6
M  V30 6 2 6 7
M  V30 7 1 7 8
M  V30 8 1 8 9
M  V30 9 2 9 10
M  V30 10 1 9 11
M  V30 11 2 11 12
M  V30 12 1 12 13
M  V30 13 2 13 14
M  V30 14 1 14 15
M  V30 15 1 15 16
M  V30 16 1 16 17
M  V30 17 1 17 18
M  V30 18 2 18 19
M  V30 19 1 18 20
M  V30 20 2 20 21
M  V30 21 1 21 22
M  V30 22 1 22 23
M  V30 23 1 23 24
M  V30 24 2 24 25
M  V30 25 1 25 26
M  V30 26 2 26 27
M  V30 27 1 27 28
M  V30 28 2 28 29
M  V30 29 2 23 30
M  V30 30 2 15 31
M  V30 31 1 7 32
M  V30 32 1 32 33
M  V30 33 1 33 34
M  V30 34 1 34 2
M  V30 35 2 33 5
M  V30 36 1 31 11
M  V30 37 1 30 20
M  V30 38 1 29 24
M  V30 39 1 1 35
M  V30 40 1 1 36
M  V30 41 1 1 37
M  V30 42 1 3 38
M  V30 43 1 3 39
M  V30 44 1 4 40
M  V30 45 1 4 41
M  V30 46 1 8 42
M  V30 47 1 12 43
M  V30 48 1 13 44
M  V30 49 1 14 45
M  V30 50 1 16 46
M  V30 51 1 16 47
M  V30 52 1 17 48
M  V30 53 1 21 49
M  V30 54 1 25 50
M  V30 55 1 26 51
M  V30 56 1 28 52
M  V30 57 1 29 53
M  V30 58 1 31 54
M  V30 59 1 34 55
M  V30 60 1 34 56
M  V30 END BOND
M  V30 END CTAB
M  END
>  <Dataset>  (304) 
ChEMBL_Kinases

>  <Ligand_Instance>  (304) 
nan

>  <PDB_ID>  (304) 
nan

>  <Standardized_SMILES>  (304) 
CN1CCc2nc(NC(=O)c3cccc(CNC(=O)c4csc(-c5ccncc5)n4)c3)sc2C1

>  <Name>  (304) 
nan

>  <Pocket>  (304) 
nan

>  <ATP_Site>  (304) 
nan

>  <Peripheral>  (304) 
nan

>  <Num_H_Atoms_ProtBoundConf>  (304) 
nan

>  <Num_Resolved_Atoms>  (304) 
nan

>  <Num_Not_Resolved_Atoms>  (304) 
nan

$$$$
CHEMBL3680713
     RDKit          3D

  0  0  0  0  0  0  0  0  0  0999 V3000
M  V30 BEGIN CTAB
M  V30 COUNTS 56 60 0 0 0
M  V30 BEGIN ATOM
M  V30 1 N 7.542352 -2.034435 3.908175 0
M  V30 2 C 6.258067 -1.701092 3.329332 0 CFG=1
M  V30 3 C 5.856587 -0.295160 3.713276 0
M  V30 4 C 6.226995 0.643859 2.558472 0
M  V30 5 C 5.254952 0.303094 1.461401 0
M  V30 6 N 4.419149 1.173196 0.894643 0
M  V30 7 C 3.650267 0.519079 -0.103460 0
M  V30 8 N 2.645539 1.233972 -0.892876 0
M  V30 9 C 1.405593 1.172438 -0.253331 0
M  V30 10 O 1.383302 0.535946 0.845532 0
M  V30 11 C 0.210456 1.798969 -0.811222 0
M  V30 12 C 0.216178 2.493724 -2.001285 0
M  V30 13 C -0.972056 3.047377 -2.439351 0
M  V30 14 C -2.160059 2.942218 -1.751198 0
M  V30 15 C -2.207269 2.255043 -0.556520 0
M  V30 16 C -3.388059 2.029935 0.326775 0
M  V30 17 N -4.019772 0.785502 -0.058984 0
M  V30 18 C -4.850829 0.533091 -1.165482 0
M  V30 19 O -5.094243 1.506541 -1.940597 0
M  V30 20 C -5.426216 -0.777550 -1.442135 0
M  V30 21 C -6.275836 -0.963948 -2.578381 0
M  V30 22 S -6.718246 -2.759958 -2.464291 0
M  V30 23 C -5.669285 -2.934297 -0.893377 0
M  V30 24 C -5.556448 -4.218016 -0.198491 0
M  V30 25 C -4.766026 -4.248916 0.934270 0
M  V30 26 C -4.662744 -5.464356 1.587749 0
M  V30 27 N -5.299500 -6.554387 1.140554 0
M  V30 28 C -6.067204 -6.520669 0.038860 0
M  V30 29 C -6.209351 -5.337132 -0.656412 0
M  V30 30 N -5.268557 -1.884826 -0.756899 0
M  V30 31 C -0.990801 1.703660 -0.134394 0
M  V30 32 S 4.180197 -1.210129 -0.129803 0
M  V30 33 C 5.392301 -1.020882 1.167812 0
M  V30 34 C 6.325144 -1.890010 1.838494 0
M  V30 35 H 8.123297 -1.183417 4.072079 0
M  V30 36 H 8.062394 -2.751288 3.330545 0
M  V30 37 H 5.512916 -2.384874 3.788103 0
M  V30 38 H 4.772877 -0.214058 3.815589 0
M  V30 39 H 6.453214 0.007935 4.577697 0
M  V30 40 H 6.140574 1.654648 2.943275 0
M  V30 41 H 7.274254 0.476207 2.239245 0
M  V30 42 H 2.793221 1.716238 -1.781009 0
M  V30 43 H 1.131306 2.596406 -2.568104 0
M  V30 44 H -1.035483 3.609347 -3.372543 0
M  V30 45 H -3.094214 3.364902 -2.069723 0
M  V30 46 H -3.030043 1.923417 1.369979 0
M  V30 47 H -4.110194 2.875887 0.248203 0
M  V30 48 H -3.866090 -0.065415 0.532341 0
M  V30 49 H -6.604113 -0.160348 -3.381115 0
M  V30 50 H -4.277916 -3.335732 1.244341 0
M  V30 51 H -4.021184 -5.432750 2.482970 0
M  V30 52 H -6.541179 -7.447035 -0.245973 0
M  V30 53 H -6.832849 -5.315058 -1.548254 0
M  V30 54 H -0.970124 1.147601 0.807355 0
M  V30 55 H 6.014280 -2.946025 1.656338 0
M  V30 56 H 7.363983 -1.804330 1.464650 0
M  V30 END ATOM
M  V30 BEGIN BOND
M  V30 1 1 1 2
M  V30 2 1 2 3
M  V30 3 1 3 4
M  V30 4 1 4 5
M  V30 5 1 5 6
M  V30 6 2 6 7
M  V30 7 1 7 8
M  V30 8 1 8 9
M  V30 9 2 9 10
M  V30 10 1 9 11
M  V30 11 2 11 12
M  V30 12 1 12 13
M  V30 13 2 13 14
M  V30 14 1 14 15
M  V30 15 1 15 16
M  V30 16 1 16 17
M  V30 17 1 17 18
M  V30 18 2 18 19
M  V30 19 1 18 20
M  V30 20 2 20 21
M  V30 21 1 21 22
M  V30 22 1 22 23
M  V30 23 1 23 24
M  V30 24 2 24 25
M  V30 25 1 25 26
M  V30 26 2 26 27
M  V30 27 1 27 28
M  V30 28 2 28 29
M  V30 29 2 23 30
M  V30 30 2 15 31
M  V30 31 1 7 32
M  V30 32 1 32 33
M  V30 33 1 33 34
M  V30 34 1 34 2
M  V30 35 2 33 5
M  V30 36 1 31 11
M  V30 37 1 30 20
M  V30 38 1 29 24
M  V30 39 1 1 35
M  V30 40 1 1 36
M  V30 41 1 2 37 CFG=1
M  V30 42 1 3 38
M  V30 43 1 3 39
M  V30 44 1 4 40
M  V30 45 1 4 41
M  V30 46 1 8 42
M  V30 47 1 12 43
M  V30 48 1 13 44
M  V30 49 1 14 45
M  V30 50 1 16 46
M  V30 51 1 16 47
M  V30 52 1 17 48
M  V30 53 1 21 49
M  V30 54 1 25 50
M  V30 55 1 26 51
M  V30 56 1 28 52
M  V30 57 1 29 53
M  V30 58 1 31 54
M  V30 59 1 34 55
M  V30 60 1 34 56
M  V30 END BOND
M  V30 END CTAB
M  END
>  <Dataset>  (305) 
ChEMBL_Kinases

>  <Ligand_Instance>  (305) 
nan

>  <PDB_ID>  (305) 
nan

>  <Standardized_SMILES>  (305) 
N[C@H]1CCc2nc(NC(=O)c3cccc(CNC(=O)c4csc(-c5ccncc5)n4)c3)sc2C1

>  <Name>  (305) 
nan

>  <Pocket>  (305) 
nan

>  <ATP_Site>  (305) 
nan

>  <Peripheral>  (305) 
nan

>  <Num_H_Atoms_ProtBoundConf>  (305) 
nan

>  <Num_Resolved_Atoms>  (305) 
nan

>  <Num_Not_Resolved_Atoms>  (305) 
nan

$$$$
CHEMBL3680705
     RDKit          3D

  0  0  0  0  0  0  0  0  0  0999 V3000
M  V30 BEGIN CTAB
M  V30 COUNTS 56 60 0 0 0
M  V30 BEGIN ATOM
M  V30 1 N 8.175000 -0.598796 5.395596 0
M  V30 2 C 6.809571 -0.213963 5.214665 0 CFG=1
M  V30 3 C 6.736161 1.247561 4.848512 0
M  V30 4 C 6.490383 1.279961 3.338234 0
M  V30 5 C 5.064931 0.826146 3.170174 0
M  V30 6 N 4.098582 1.572736 2.637482 0
M  V30 7 C 2.873606 0.776504 2.648182 0
M  V30 8 N 1.572198 1.179961 2.169554 0
M  V30 9 C 1.081816 1.018793 0.867394 0
M  V30 10 O 1.924424 0.460049 0.102609 0
M  V30 11 C -0.255829 1.462679 0.488167 0
M  V30 12 C -1.125776 2.064592 1.367672 0
M  V30 13 C -2.381222 2.463127 0.961753 0
M  V30 14 C -2.782157 2.259378 -0.347404 0
M  V30 15 C -1.941823 1.661318 -1.255870 0
M  V30 16 C -2.274386 1.386866 -2.686670 0
M  V30 17 N -2.834604 0.059320 -2.818344 0
M  V30 18 C -4.139942 -0.376266 -2.493076 0
M  V30 19 O -4.916389 0.503897 -2.029381 0
M  V30 20 C -4.612644 -1.740135 -2.661097 0
M  V30 21 C -3.827228 -2.749578 -3.156262 0
M  V30 22 C -4.293810 -4.033940 -3.307572 0
M  V30 23 C -5.581397 -4.384837 -2.969844 0
M  V30 24 C -6.134085 -5.749728 -3.111488 0
M  V30 25 C -7.427605 -6.058671 -2.761905 0
M  V30 26 S -7.550133 -7.807145 -3.134061 0
M  V30 27 N -5.766787 -7.848044 -3.726228 0
M  V30 28 N -5.461569 -6.785484 -3.575328 0
M  V30 29 C -6.344201 -3.355983 -2.477444 0
M  V30 30 C -5.896400 -2.063376 -2.318211 0
M  V30 31 C -0.685402 1.270198 -0.822806 0
M  V30 32 S 3.262712 -0.809062 3.368802 0
M  V30 33 C 4.988977 -0.466318 3.660732 0
M  V30 34 C 6.151339 -1.102700 4.201895 0
M  V30 35 H 8.459863 -0.692797 6.393784 0
M  V30 36 H 8.483585 -1.401228 4.804689 0
M  V30 37 H 6.284155 -0.338983 6.182870 0
M  V30 38 H 5.878131 1.744105 5.315641 0
M  V30 39 H 7.698667 1.712423 5.082775 0
M  V30 40 H 6.694467 2.270666 2.945643 0
M  V30 41 H 7.154906 0.556654 2.809601 0
M  V30 42 H 1.024070 1.618972 2.935695 0
M  V30 43 H -0.834111 2.232511 2.390202 0
M  V30 44 H -3.060909 2.934102 1.651476 0
M  V30 45 H -3.745699 2.564992 -0.671549 0
M  V30 46 H -3.016266 2.134826 -3.068114 0
M  V30 47 H -1.344923 1.504553 -3.264897 0
M  V30 48 H -2.189188 -0.663241 -3.201799 0
M  V30 49 H -2.802509 -2.574467 -3.449383 0
M  V30 50 H -3.642626 -4.812300 -3.704425 0
M  V30 51 H -8.227411 -5.430738 -2.352457 0
M  V30 52 H -7.374110 -3.577545 -2.193521 0
M  V30 53 H -6.566591 -1.311210 -1.921432 0
M  V30 54 H 0.008604 0.795931 -1.503960 0
M  V30 55 H 5.832014 -2.037496 4.705299 0
M  V30 56 H 6.913072 -1.384654 3.448273 0
M  V30 END ATOM
M  V30 BEGIN BOND
M  V30 1 1 1 2
M  V30 2 1 2 3
M  V30 3 1 3 4
M  V30 4 1 4 5
M  V30 5 1 5 6
M  V30 6 2 6 7
M  V30 7 1 7 8
M  V30 8 1 8 9
M  V30 9 2 9 10
M  V30 10 1 9 11
M  V30 11 2 11 12
M  V30 12 1 12 13
M  V30 13 2 13 14
M  V30 14 1 14 15
M  V30 15 1 15 16
M  V30 16 1 16 17
M  V30 17 1 17 18
M  V30 18 2 18 19
M  V30 19 1 18 20
M  V30 20 2 20 21
M  V30 21 1 21 22
M  V30 22 2 22 23
M  V30 23 1 23 24
M  V30 24 2 24 25
M  V30 25 1 25 26
M  V30 26 1 26 27
M  V30 27 2 27 28
M  V30 28 1 23 29
M  V30 29 2 29 30
M  V30 30 2 15 31
M  V30 31 1 7 32
M  V30 32 1 32 33
M  V30 33 1 33 34
M  V30 34 1 34 2
M  V30 35 2 33 5
M  V30 36 1 31 11
M  V30 37 1 30 20
M  V30 38 1 28 24
M  V30 39 1 1 35
M  V30 40 1 1 36
M  V30 41 1 2 37 CFG=1
M  V30 42 1 3 38
M  V30 43 1 3 39
M  V30 44 1 4 40
M  V30 45 1 4 41
M  V30 46 1 8 42
M  V30 47 1 12 43
M  V30 48 1 13 44
M  V30 49 1 14 45
M  V30 50 1 16 46
M  V30 51 1 16 47
M  V30 52 1 17 48
M  V30 53 1 21 49
M  V30 54 1 22 50
M  V30 55 1 25 51
M  V30 56 1 29 52
M  V30 57 1 30 53
M  V30 58 1 31 54
M  V30 59 1 34 55
M  V30 60 1 34 56
M  V30 END BOND
M  V30 END CTAB
M  END
>  <Dataset>  (306) 
ChEMBL_Kinases

>  <Ligand_Instance>  (306) 
nan

>  <PDB_ID>  (306) 
nan

>  <Standardized_SMILES>  (306) 
N[C@H]1CCc2nc(NC(=O)c3cccc(CNC(=O)c4ccc(-c5csnn5)cc4)c3)sc2C1

>  <Name>  (306) 
nan

>  <Pocket>  (306) 
nan

>  <ATP_Site>  (306) 
nan

>  <Peripheral>  (306) 
nan

>  <Num_H_Atoms_ProtBoundConf>  (306) 
nan

>  <Num_Resolved_Atoms>  (306) 
nan

>  <Num_Not_Resolved_Atoms>  (306) 
nan

$$$$
CHEMBL3680706
     RDKit          3D

  0  0  0  0  0  0  0  0  0  0999 V3000
M  V30 BEGIN CTAB
M  V30 COUNTS 60 64 0 0 0
M  V30 BEGIN ATOM
M  V30 1 C 4.778392 -2.473049 2.289241 0
M  V30 2 N 5.800710 -1.495721 1.919485 0
M  V30 3 C 6.229174 -0.835941 3.121175 0
M  V30 4 C 6.230149 0.673441 2.994432 0
M  V30 5 C 4.824738 1.038658 2.607834 0
M  V30 6 C 4.097213 1.980614 3.303255 0
M  V30 7 C 2.814041 2.252169 2.876008 0
M  V30 8 C 2.273936 1.601246 1.785530 0
M  V30 9 N 0.975569 1.781070 1.241065 0
M  V30 10 C 0.519934 2.672441 0.242863 0
M  V30 11 O 1.313033 3.472027 -0.309704 0
M  V30 12 C -0.873957 2.698704 -0.180601 0
M  V30 13 C -1.241710 3.589026 -1.149654 0
M  V30 14 C -2.544651 3.671455 -1.602276 0
M  V30 15 C -3.488649 2.831881 -1.057612 0
M  V30 16 C -3.184379 1.910313 -0.076485 0
M  V30 17 C -4.141791 0.965681 0.562633 0
M  V30 18 N -4.235305 -0.305038 -0.091233 0
M  V30 19 C -4.917109 -0.602951 -1.290541 0
M  V30 20 O -5.501656 0.365366 -1.830392 0
M  V30 21 C -4.920552 -1.948325 -1.832236 0
M  V30 22 C -5.647718 -2.242311 -3.097969 0
M  V30 23 S -5.307286 -4.094014 -3.297814 0
M  V30 24 C -4.322868 -4.095341 -1.743461 0
M  V30 25 C -3.717969 -5.407358 -1.310131 0
M  V30 26 C -3.911772 -6.542422 -2.064840 0
M  V30 27 C -3.304339 -7.671697 -1.555521 0
M  V30 28 C -2.558058 -7.664407 -0.377454 0
M  V30 29 N -2.420784 -6.491569 0.303256 0
M  V30 30 C -2.997129 -5.359508 -0.155949 0
M  V30 31 N -4.328309 -3.022128 -1.324450 0
M  V30 32 C -1.855481 1.879084 0.333916 0
M  V30 33 C 3.018095 0.661648 1.102718 0
M  V30 34 C 4.304298 0.375025 1.513890 0
M  V30 35 C 5.264227 -0.599192 0.919514 0
M  V30 36 H 3.971849 -1.989311 2.900310 0
M  V30 37 H 4.275673 -2.923475 1.414880 0
M  V30 38 H 5.232199 -3.274091 2.888972 0
M  V30 39 H 5.654660 -1.172777 4.003735 0
M  V30 40 H 7.298341 -1.137832 3.293251 0
M  V30 41 H 6.547301 1.101871 3.945396 0
M  V30 42 H 6.862668 0.913599 2.119930 0
M  V30 43 H 4.520558 2.489388 4.156253 0
M  V30 44 H 2.174030 2.973403 3.360325 0
M  V30 45 H 0.347352 1.105113 1.720615 0
M  V30 46 H -0.549198 4.264770 -1.607348 0
M  V30 47 H -2.882838 4.361960 -2.369055 0
M  V30 48 H -4.515076 2.875938 -1.390337 0
M  V30 49 H -3.789793 0.817240 1.603136 0
M  V30 50 H -5.146690 1.454573 0.683498 0
M  V30 51 H -3.744178 -1.133597 0.355810 0
M  V30 52 H -6.238825 -1.375952 -3.686339 0
M  V30 53 H -4.485073 -6.553140 -2.970922 0
M  V30 54 H -3.429565 -8.602593 -2.121340 0
M  V30 55 H -2.129059 -8.612125 -0.077657 0
M  V30 56 H -2.876873 -4.434615 0.398899 0
M  V30 57 H -1.587267 1.167020 1.101387 0
M  V30 58 H 2.693775 0.082303 0.223345 0
M  V30 59 H 4.659381 -1.194569 0.198741 0
M  V30 60 H 6.071288 -0.116940 0.350890 0
M  V30 END ATOM
M  V30 BEGIN BOND
M  V30 1 1 1 2
M  V30 2 1 2 3
M  V30 3 1 3 4
M  V30 4 1 4 5
M  V30 5 2 5 6
M  V30 6 1 6 7
M  V30 7 2 7 8
M  V30 8 1 8 9
M  V30 9 1 9 10
M  V30 10 2 10 11
M  V30 11 1 10 12
M  V30 12 2 12 13
M  V30 13 1 13 14
M  V30 14 2 14 15
M  V30 15 1 15 16
M  V30 16 1 16 17
M  V30 17 1 17 18
M  V30 18 1 18 19
M  V30 19 2 19 20
M  V30 20 1 19 21
M  V30 21 2 21 22
M  V30 22 1 22 23
M  V30 23 1 23 24
M  V30 24 1 24 25
M  V30 25 2 25 26
M  V30 26 1 26 27
M  V30 27 2 27 28
M  V30 28 1 28 29
M  V30 29 2 29 30
M  V30 30 2 24 31
M  V30 31 2 16 32
M  V30 32 1 8 33
M  V30 33 2 33 34
M  V30 34 1 34 35
M  V30 35 1 35 2
M  V30 36 1 34 5
M  V30 37 1 32 12
M  V30 38 1 31 21
M  V30 39 1 30 25
M  V30 40 1 1 36
M  V30 41 1 1 37
M  V30 42 1 1 38
M  V30 43 1 3 39
M  V30 44 1 3 40
M  V30 45 1 4 41
M  V30 46 1 4 42
M  V30 47 1 6 43
M  V30 48 1 7 44
M  V30 49 1 9 45
M  V30 50 1 13 46
M  V30 51 1 14 47
M  V30 52 1 15 48
M  V30 53 1 17 49
M  V30 54 1 17 50
M  V30 55 1 18 51
M  V30 56 1 22 52
M  V30 57 1 26 53
M  V30 58 1 27 54
M  V30 59 1 28 55
M  V30 60 1 30 56
M  V30 61 1 32 57
M  V30 62 1 33 58
M  V30 63 1 35 59
M  V30 64 1 35 60
M  V30 END BOND
M  V30 END CTAB
M  END
>  <Dataset>  (307) 
ChEMBL_Kinases

>  <Ligand_Instance>  (307) 
nan

>  <PDB_ID>  (307) 
nan

>  <Standardized_SMILES>  (307) 
CN1CCc2ccc(NC(=O)c3cccc(CNC(=O)c4csc(-c5cccnc5)n4)c3)cc2C1

>  <Name>  (307) 
nan

>  <Pocket>  (307) 
nan

>  <ATP_Site>  (307) 
nan

>  <Peripheral>  (307) 
nan

>  <Num_H_Atoms_ProtBoundConf>  (307) 
nan

>  <Num_Resolved_Atoms>  (307) 
nan

>  <Num_Not_Resolved_Atoms>  (307) 
nan

$$$$
CHEMBL3680707
     RDKit          3D

  0  0  0  0  0  0  0  0  0  0999 V3000
M  V30 BEGIN CTAB
M  V30 COUNTS 58 62 0 0 0
M  V30 BEGIN ATOM
M  V30 1 N 8.925907 -2.250993 0.081217 0
M  V30 2 C 7.494800 -2.024542 -0.008656 0 CFG=2
M  V30 3 C 6.993456 -2.038198 -1.412627 0
M  V30 4 C 6.560247 -0.660882 -1.857793 0
M  V30 5 C 5.349167 -0.335824 -1.014923 0
M  V30 6 N 4.077054 -0.034384 -1.203882 0
M  V30 7 C 3.254220 0.192538 -0.425156 0
M  V30 8 N 1.876078 0.512049 -0.781105 0
M  V30 9 C 1.314215 1.777046 -1.028719 0
M  V30 10 O 1.962254 2.853544 -0.972579 0
M  V30 11 C -0.103146 1.854441 -1.371294 0
M  V30 12 C -0.638983 3.117248 -1.570338 0
M  V30 13 C -1.973699 3.354825 -1.901403 0
M  V30 14 C -2.770001 2.219933 -2.026862 0
M  V30 15 C -2.278434 0.947514 -1.838178 0
M  V30 16 C -3.094925 -0.285949 -1.963173 0
M  V30 17 N -3.685230 -0.684554 -0.699253 0
M  V30 18 C -4.803148 -0.096982 -0.066995 0
M  V30 19 O -5.399446 0.877555 -0.594095 0
M  V30 20 C -5.331218 -0.563942 1.203535 0
M  V30 21 C -6.424097 0.086764 1.772376 0
M  V30 22 C -6.938620 -0.344865 2.974334 0
M  V30 23 C -6.436798 -1.416729 3.691561 0
M  V30 24 C -5.346541 -2.070444 3.130318 0
M  V30 25 C -4.724029 -3.219650 3.793015 0
M  V30 26 C -4.124159 -4.247809 3.089170 0
M  V30 27 N -3.645458 -5.150754 3.965196 0
M  V30 28 N -3.909877 -4.750569 5.209452 0
M  V30 29 C -4.574886 -3.561622 5.133365 0
M  V30 30 C -4.843976 -1.627376 1.929133 0
M  V30 31 C -0.930685 0.771884 -1.507175 0
M  V30 32 S 4.231109 0.011395 1.155028 0
M  V30 33 C 5.752564 -0.388260 0.263972 0
M  V30 34 C 7.168704 -0.716045 0.624202 0
M  V30 35 H 9.183878 -3.250382 0.035030 0
M  V30 36 H 9.197223 -1.858093 1.025858 0
M  V30 37 H 6.971182 -2.825649 0.569782 0
M  V30 38 H 7.739733 -2.457791 -2.140491 0
M  V30 39 H 6.115932 -2.686294 -1.492582 0
M  V30 40 H 7.336240 0.102940 -1.696805 0
M  V30 41 H 6.315646 -0.727046 -2.916293 0
M  V30 42 H 1.397946 -0.394025 -0.811925 0
M  V30 43 H -0.049359 4.023591 -1.480714 0
M  V30 44 H -2.357804 4.353753 -2.049679 0
M  V30 45 H -3.818657 2.350457 -2.284640 0
M  V30 46 H -3.944652 -0.057688 -2.662968 0
M  V30 47 H -2.463705 -1.061203 -2.394785 0
M  V30 48 H -3.212400 -1.498494 -0.221359 0
M  V30 49 H -6.910595 0.951405 1.299041 0
M  V30 50 H -7.793655 0.162946 3.419967 0
M  V30 51 H -6.819951 -1.764405 4.619336 0
M  V30 52 H -4.011216 -4.387552 2.007675 0
M  V30 53 H -3.730039 -5.125048 6.166416 0
M  V30 54 H -4.960023 -2.921087 5.932549 0
M  V30 55 H -3.992797 -2.165712 1.527425 0
M  V30 56 H -0.544433 -0.208697 -1.360461 0
M  V30 57 H 7.820594 0.116868 0.305063 0
M  V30 58 H 7.293100 -0.817011 1.720155 0
M  V30 END ATOM
M  V30 BEGIN BOND
M  V30 1 1 1 2
M  V30 2 1 2 3
M  V30 3 1 3 4
M  V30 4 1 4 5
M  V30 5 1 5 6
M  V30 6 2 6 7
M  V30 7 1 7 8
M  V30 8 1 8 9
M  V30 9 2 9 10
M  V30 10 1 9 11
M  V30 11 2 11 12
M  V30 12 1 12 13
M  V30 13 2 13 14
M  V30 14 1 14 15
M  V30 15 1 15 16
M  V30 16 1 16 17
M  V30 17 1 17 18
M  V30 18 2 18 19
M  V30 19 1 18 20
M  V30 20 2 20 21
M  V30 21 1 21 22
M  V30 22 2 22 23
M  V30 23 1 23 24
M  V30 24 1 24 25
M  V30 25 1 25 26
M  V30 26 2 26 27
M  V30 27 1 27 28
M  V30 28 1 28 29
M  V30 29 2 24 30
M  V30 30 2 15 31
M  V30 31 1 7 32
M  V30 32 1 32 33
M  V30 33 1 33 34
M  V30 34 1 34 2
M  V30 35 2 33 5
M  V30 36 1 31 11
M  V30 37 1 30 20
M  V30 38 2 29 25
M  V30 39 1 1 35
M  V30 40 1 1 36
M  V30 41 1 2 37 CFG=1
M  V30 42 1 3 38
M  V30 43 1 3 39
M  V30 44 1 4 40
M  V30 45 1 4 41
M  V30 46 1 8 42
M  V30 47 1 12 43
M  V30 48 1 13 44
M  V30 49 1 14 45
M  V30 50 1 16 46
M  V30 51 1 16 47
M  V30 52 1 17 48
M  V30 53 1 21 49
M  V30 54 1 22 50
M  V30 55 1 23 51
M  V30 56 1 26 52
M  V30 57 1 28 53
M  V30 58 1 29 54
M  V30 59 1 30 55
M  V30 60 1 31 56
M  V30 61 1 34 57
M  V30 62 1 34 58
M  V30 END BOND
M  V30 END CTAB
M  END
>  <Dataset>  (308) 
ChEMBL_Kinases

>  <Ligand_Instance>  (308) 
nan

>  <PDB_ID>  (308) 
nan

>  <Standardized_SMILES>  (308) 
N[C@@H]1CCc2nc(NC(=O)c3cccc(CNC(=O)c4cccc(-c5cn[nH]c5)c4)c3)sc2C1

>  <Name>  (308) 
nan

>  <Pocket>  (308) 
nan

>  <ATP_Site>  (308) 
nan

>  <Peripheral>  (308) 
nan

>  <Num_H_Atoms_ProtBoundConf>  (308) 
nan

>  <Num_Resolved_Atoms>  (308) 
nan

>  <Num_Not_Resolved_Atoms>  (308) 
nan

$$$$
CHEMBL3680708
     RDKit          3D

  0  0  0  0  0  0  0  0  0  0999 V3000
M  V30 BEGIN CTAB
M  V30 COUNTS 62 66 0 0 0
M  V30 BEGIN ATOM
M  V30 1 C 4.433710 1.461589 6.116318 0
M  V30 2 N 5.244547 2.046739 5.070055 0
M  V30 3 C 5.887125 1.028780 4.291822 0
M  V30 4 C 6.319105 1.683685 2.972129 0
M  V30 5 C 5.025984 1.904447 2.233469 0
M  V30 6 C 4.741655 1.445300 0.963221 0
M  V30 7 C 3.488728 1.751159 0.450882 0
M  V30 8 C 2.580811 2.481354 1.189948 0
M  V30 9 N 1.285291 2.780331 0.623992 0
M  V30 10 C 0.387854 1.726768 0.972578 0
M  V30 11 O 0.961252 0.829426 1.671974 0
M  V30 12 C -1.016077 1.714072 0.557715 0
M  V30 13 C -1.618423 2.696682 -0.203338 0
M  V30 14 C -2.953038 2.557867 -0.522809 0
M  V30 15 C -3.697698 1.459208 -0.098400 0
M  V30 16 C -3.094335 0.477882 0.662214 0
M  V30 17 C -3.833969 -0.725076 1.147731 0
M  V30 18 N -3.776556 -1.838971 0.246030 0
M  V30 19 C -4.475427 -2.028056 -0.950661 0
M  V30 20 O -5.285307 -1.120440 -1.340492 0
M  V30 21 C -4.377873 -3.183305 -1.829284 0
M  V30 22 C -5.134527 -3.217390 -2.981399 0
M  V30 23 C -5.080977 -4.304632 -3.863067 0
M  V30 24 C -4.261998 -5.386307 -3.604975 0
M  V30 25 C -4.183491 -6.474193 -4.449192 0
M  V30 26 C -3.344758 -7.540365 -4.147505 0
M  V30 27 O -3.264145 -8.642812 -5.001612 0
M  V30 28 C -2.564984 -7.533367 -2.985599 0
M  V30 29 C -2.658112 -6.434430 -2.152951 0
M  V30 30 C -3.489260 -5.367094 -2.442343 0
M  V30 31 C -3.571004 -4.277702 -1.600480 0
M  V30 32 C -1.773133 0.628220 0.970794 0
M  V30 33 C 2.869797 2.939182 2.461413 0
M  V30 34 C 4.117747 2.635871 2.974726 0
M  V30 35 C 4.570102 3.060466 4.329077 0
M  V30 36 H 4.142459 2.229806 6.860038 0
M  V30 37 H 3.535545 0.948904 5.774225 0
M  V30 38 H 5.057888 0.699801 6.627248 0
M  V30 39 H 6.827294 0.742393 4.804286 0
M  V30 40 H 5.252712 0.141193 4.092378 0
M  V30 41 H 7.032369 1.081915 2.408325 0
M  V30 42 H 6.690891 2.696432 3.243959 0
M  V30 43 H 5.520018 0.882535 0.466934 0
M  V30 44 H 3.268524 1.392155 -0.541401 0
M  V30 45 H 0.945145 3.586928 0.048081 0
M  V30 46 H -1.013342 3.533553 -0.515226 0
M  V30 47 H -3.393068 3.339945 -1.116850 0
M  V30 48 H -4.741966 1.384058 -0.366425 0
M  V30 49 H -3.352686 -1.025819 2.101455 0
M  V30 50 H -4.899274 -0.445480 1.399160 0
M  V30 51 H -3.142121 -2.662099 0.451301 0
M  V30 52 H -5.796804 -2.431274 -3.268638 0
M  V30 53 H -5.691889 -4.302358 -4.766610 0
M  V30 54 H -4.791938 -6.473684 -5.350735 0
M  V30 55 H -2.396399 -8.936994 -5.438131 0
M  V30 56 H -1.905512 -8.376938 -2.753484 0
M  V30 57 H -2.047410 -6.448760 -1.261019 0
M  V30 58 H -2.967361 -4.303591 -0.728870 0
M  V30 59 H -1.309552 -0.155775 1.573120 0
M  V30 60 H 2.173414 3.516917 3.065786 0
M  V30 61 H 5.123533 4.021811 4.255135 0
M  V30 62 H 3.619732 3.307302 4.887684 0
M  V30 END ATOM
M  V30 BEGIN BOND
M  V30 1 1 1 2
M  V30 2 1 2 3
M  V30 3 1 3 4
M  V30 4 1 4 5
M  V30 5 2 5 6
M  V30 6 1 6 7
M  V30 7 2 7 8
M  V30 8 1 8 9
M  V30 9 1 9 10
M  V30 10 2 10 11
M  V30 11 1 10 12
M  V30 12 2 12 13
M  V30 13 1 13 14
M  V30 14 2 14 15
M  V30 15 1 15 16
M  V30 16 1 16 17
M  V30 17 1 17 18
M  V30 18 1 18 19
M  V30 19 2 19 20
M  V30 20 1 19 21
M  V30 21 2 21 22
M  V30 22 1 22 23
M  V30 23 2 23 24
M  V30 24 1 24 25
M  V30 25 2 25 26
M  V30 26 1 26 27
M  V30 27 1 26 28
M  V30 28 2 28 29
M  V30 29 1 29 30
M  V30 30 2 30 31
M  V30 31 2 16 32
M  V30 32 1 8 33
M  V30 33 2 33 34
M  V30 34 1 34 35
M  V30 35 1 35 2
M  V30 36 1 34 5
M  V30 37 1 32 12
M  V30 38 1 31 21
M  V30 39 1 30 24
M  V30 40 1 1 36
M  V30 41 1 1 37
M  V30 42 1 1 38
M  V30 43 1 3 39
M  V30 44 1 3 40
M  V30 45 1 4 41
M  V30 46 1 4 42
M  V30 47 1 6 43
M  V30 48 1 7 44
M  V30 49 1 9 45
M  V30 50 1 13 46
M  V30 51 1 14 47
M  V30 52 1 15 48
M  V30 53 1 17 49
M  V30 54 1 17 50
M  V30 55 1 18 51
M  V30 56 1 22 52
M  V30 57 1 23 53
M  V30 58 1 25 54
M  V30 59 1 27 55
M  V30 60 1 28 56
M  V30 61 1 29 57
M  V30 62 1 31 58
M  V30 63 1 32 59
M  V30 64 1 33 60
M  V30 65 1 35 61
M  V30 66 1 35 62
M  V30 END BOND
M  V30 END CTAB
M  END
>  <Dataset>  (309) 
ChEMBL_Kinases

>  <Ligand_Instance>  (309) 
nan

>  <PDB_ID>  (309) 
nan

>  <Standardized_SMILES>  (309) 
CN1CCc2ccc(NC(=O)c3cccc(CNC(=O)c4ccc5cc(O)ccc5c4)c3)cc2C1

>  <Name>  (309) 
nan

>  <Pocket>  (309) 
nan

>  <ATP_Site>  (309) 
nan

>  <Peripheral>  (309) 
nan

>  <Num_H_Atoms_ProtBoundConf>  (309) 
nan

>  <Num_Resolved_Atoms>  (309) 
nan

>  <Num_Not_Resolved_Atoms>  (309) 
nan

$$$$
CHEMBL3680709
     RDKit          3D

  0  0  0  0  0  0  0  0  0  0999 V3000
M  V30 BEGIN CTAB
M  V30 COUNTS 58 62 0 0 0
M  V30 BEGIN ATOM
M  V30 1 N 7.153508 -1.640639 2.135750 0
M  V30 2 C 7.154138 -0.763658 3.289266 0 CFG=1
M  V30 3 C 7.603518 0.608524 2.838886 0
M  V30 4 C 6.817779 0.877699 1.547218 0
M  V30 5 C 5.373723 0.971597 1.929275 0
M  V30 6 N 4.516534 1.734709 1.267709 0
M  V30 7 C 3.319750 1.795747 1.605459 0
M  V30 8 N 2.114505 2.462350 1.181892 0
M  V30 9 C 1.430249 1.671302 0.249129 0
M  V30 10 O 1.999548 0.560554 -0.022361 0
M  V30 11 C 0.166617 2.061664 -0.376742 0
M  V30 12 C -0.459965 3.262215 -0.110931 0
M  V30 13 C -1.650904 3.522230 -0.758295 0
M  V30 14 C -2.211003 2.624352 -1.644366 0
M  V30 15 C -1.608022 1.417901 -1.929053 0
M  V30 16 C -2.113393 0.373549 -2.857607 0
M  V30 17 N -2.957294 -0.599492 -2.219191 0
M  V30 18 C -4.301838 -0.421638 -1.827835 0
M  V30 19 O -4.857720 0.684651 -2.041087 0
M  V30 20 C -5.100067 -1.453565 -1.182073 0
M  V30 21 C -6.407027 -1.184854 -0.833920 0
M  V30 22 C -7.189303 -2.117274 -0.228847 0
M  V30 23 C -6.753722 -3.384638 0.082368 0
M  V30 24 C -5.430310 -3.684497 -0.260214 0
M  V30 25 C -4.843108 -5.008025 0.020158 0
M  V30 26 C -3.857333 -5.583129 -0.786690 0
M  V30 27 N -3.566143 -6.774929 -0.231840 0
M  V30 28 N -4.294362 -6.985192 0.857177 0
M  V30 29 C -5.100097 -5.900809 1.039802 0
M  V30 30 C -4.672662 -2.715455 -0.870126 0
M  V30 31 C -0.409983 1.177131 -1.266127 0
M  V30 32 S 3.262240 0.608757 3.116536 0
M  V30 33 C 4.970714 0.218022 3.014973 0
M  V30 34 C 5.775625 -0.655509 3.831324 0
M  V30 35 H 6.286106 -2.218129 2.173326 0
M  V30 36 H 7.936822 -2.348825 2.178747 0
M  V30 37 H 7.826022 -1.165414 4.089101 0
M  V30 38 H 7.275847 1.359126 3.581967 0
M  V30 39 H 8.692085 0.625766 2.669260 0
M  V30 40 H 7.246562 1.796604 1.148776 0
M  V30 41 H 7.011551 0.069293 0.820604 0
M  V30 42 H 1.732094 3.388501 1.470888 0
M  V30 43 H -0.014027 3.953873 0.581033 0
M  V30 44 H -2.173054 4.465218 -0.569444 0
M  V30 45 H -3.143157 2.823351 -2.155078 0
M  V30 46 H -2.714959 0.834827 -3.669362 0
M  V30 47 H -1.240745 -0.084435 -3.356206 0
M  V30 48 H -2.514335 -1.540387 -2.028354 0
M  V30 49 H -6.858180 -0.207259 -1.034842 0
M  V30 50 H -8.231106 -1.915883 0.052930 0
M  V30 51 H -7.342716 -4.137968 0.556436 0
M  V30 52 H -3.373302 -5.209806 -1.692032 0
M  V30 53 H -4.270845 -7.824513 1.479288 0
M  V30 54 H -5.829457 -5.716312 1.824004 0
M  V30 55 H -3.641529 -2.977797 -1.126921 0
M  V30 56 H 0.104620 0.225739 -1.465152 0
M  V30 57 H 5.358567 -1.702691 3.905244 0
M  V30 58 H 5.747553 -0.290381 4.893435 0
M  V30 END ATOM
M  V30 BEGIN BOND
M  V30 1 1 1 2
M  V30 2 1 2 3
M  V30 3 1 3 4
M  V30 4 1 4 5
M  V30 5 1 5 6
M  V30 6 2 6 7
M  V30 7 1 7 8
M  V30 8 1 8 9
M  V30 9 2 9 10
M  V30 10 1 9 11
M  V30 11 2 11 12
M  V30 12 1 12 13
M  V30 13 2 13 14
M  V30 14 1 14 15
M  V30 15 1 15 16
M  V30 16 1 16 17
M  V30 17 1 17 18
M  V30 18 2 18 19
M  V30 19 1 18 20
M  V30 20 2 20 21
M  V30 21 1 21 22
M  V30 22 2 22 23
M  V30 23 1 23 24
M  V30 24 1 24 25
M  V30 25 1 25 26
M  V30 26 2 26 27
M  V30 27 1 27 28
M  V30 28 1 28 29
M  V30 29 2 24 30
M  V30 30 2 15 31
M  V30 31 1 7 32
M  V30 32 1 32 33
M  V30 33 1 33 34
M  V30 34 1 34 2
M  V30 35 2 33 5
M  V30 36 1 31 11
M  V30 37 1 30 20
M  V30 38 2 29 25
M  V30 39 1 1 35
M  V30 40 1 1 36
M  V30 41 1 2 37 CFG=1
M  V30 42 1 3 38
M  V30 43 1 3 39
M  V30 44 1 4 40
M  V30 45 1 4 41
M  V30 46 1 8 42
M  V30 47 1 12 43
M  V30 48 1 13 44
M  V30 49 1 14 45
M  V30 50 1 16 46
M  V30 51 1 16 47
M  V30 52 1 17 48
M  V30 53 1 21 49
M  V30 54 1 22 50
M  V30 55 1 23 51
M  V30 56 1 26 52
M  V30 57 1 28 53
M  V30 58 1 29 54
M  V30 59 1 30 55
M  V30 60 1 31 56
M  V30 61 1 34 57
M  V30 62 1 34 58
M  V30 END BOND
M  V30 END CTAB
M  END
>  <Dataset>  (310) 
ChEMBL_Kinases

>  <Ligand_Instance>  (310) 
nan

>  <PDB_ID>  (310) 
nan

>  <Standardized_SMILES>  (310) 
N[C@H]1CCc2nc(NC(=O)c3cccc(CNC(=O)c4cccc(-c5cn[nH]c5)c4)c3)sc2C1

>  <Name>  (310) 
nan

>  <Pocket>  (310) 
nan

>  <ATP_Site>  (310) 
nan

>  <Peripheral>  (310) 
nan

>  <Num_H_Atoms_ProtBoundConf>  (310) 
nan

>  <Num_Resolved_Atoms>  (310) 
nan

>  <Num_Not_Resolved_Atoms>  (310) 
nan

$$$$
CHEMBL3680710
     RDKit          3D

  0  0  0  0  0  0  0  0  0  0999 V3000
M  V30 BEGIN CTAB
M  V30 COUNTS 62 66 0 0 0
M  V30 BEGIN ATOM
M  V30 1 C 3.595524 1.805129 6.470184 0
M  V30 2 N 4.749099 2.319403 5.746585 0
M  V30 3 C 5.433893 1.176751 5.205757 0
M  V30 4 C 6.101149 1.559281 3.922932 0
M  V30 5 C 4.993959 1.725791 2.915765 0
M  V30 6 C 4.825425 1.126113 1.687851 0
M  V30 7 C 3.706821 1.459356 0.956247 0
M  V30 8 C 2.795296 2.366566 1.453451 0
M  V30 9 N 1.665447 2.642768 0.611834 0
M  V30 10 C 0.624249 1.735459 0.921252 0
M  V30 11 O 0.939080 0.917096 1.848557 0
M  V30 12 C -0.684967 1.702964 0.274899 0
M  V30 13 C -1.028301 2.585589 -0.728095 0
M  V30 14 C -2.273944 2.527109 -1.317932 0
M  V30 15 C -3.129164 1.555022 -0.851406 0
M  V30 16 C -2.850155 0.643516 0.145212 0
M  V30 17 C -3.771727 -0.396095 0.637451 0
M  V30 18 N -3.690166 -1.658851 -0.020800 0
M  V30 19 C -4.200722 -2.003322 -1.299199 0
M  V30 20 O -4.790189 -1.068250 -1.903125 0
M  V30 21 C -4.075464 -3.324204 -1.905079 0
M  V30 22 C -3.457251 -4.416300 -1.333015 0
M  V30 23 C -3.375637 -5.639683 -1.964753 0
M  V30 24 C -3.928036 -5.826226 -3.237685 0
M  V30 25 C -3.764446 -7.194003 -3.787499 0
M  V30 26 C -4.042706 -7.119209 -5.282679 0
M  V30 27 S -2.922694 -8.517959 -5.737750 0
M  V30 28 N -1.860839 -8.286491 -4.367103 0
M  V30 29 N -2.468695 -7.623909 -3.550929 0
M  V30 30 C -4.546080 -4.735062 -3.810275 0
M  V30 31 C -4.614782 -3.523183 -3.159126 0
M  V30 32 C -1.580915 0.765217 0.688194 0
M  V30 33 C 2.935946 2.983852 2.678976 0
M  V30 34 C 4.065372 2.646656 3.416356 0
M  V30 35 C 4.322332 3.249230 4.750845 0
M  V30 36 H 3.427715 2.383916 7.400141 0
M  V30 37 H 2.726155 1.910434 5.786672 0
M  V30 38 H 3.675483 0.709963 6.657570 0
M  V30 39 H 6.233142 0.873475 5.923301 0
M  V30 40 H 4.720855 0.335563 5.058483 0
M  V30 41 H 6.827747 0.811593 3.605569 0
M  V30 42 H 6.646282 2.509669 4.099133 0
M  V30 43 H 5.634802 0.439354 1.450997 0
M  V30 44 H 3.634842 0.953485 0.003215 0
M  V30 45 H 1.486008 3.352318 -0.143527 0
M  V30 46 H -0.330211 3.337636 -1.070212 0
M  V30 47 H -2.538246 3.217006 -2.099886 0
M  V30 48 H -4.103758 1.516956 -1.317695 0
M  V30 49 H -3.558555 -0.519974 1.719251 0
M  V30 50 H -4.844597 -0.043669 0.616648 0
M  V30 51 H -3.194065 -2.459223 0.477367 0
M  V30 52 H -3.029662 -4.297825 -0.364402 0
M  V30 53 H -2.869181 -6.438379 -1.433711 0
M  V30 54 H -4.471569 -7.903671 -3.307043 0
M  V30 55 H -5.046931 -7.428785 -5.565121 0
M  V30 56 H -3.671259 -6.185162 -5.733497 0
M  V30 57 H -4.957333 -4.925455 -4.789295 0
M  V30 58 H -5.116290 -2.713217 -3.673507 0
M  V30 59 H -1.305291 0.070285 1.480865 0
M  V30 60 H 2.205263 3.694786 3.049560 0
M  V30 61 H 4.982511 4.146727 4.677030 0
M  V30 62 H 3.338250 3.669835 5.099898 0
M  V30 END ATOM
M  V30 BEGIN BOND
M  V30 1 1 1 2
M  V30 2 1 2 3
M  V30 3 1 3 4
M  V30 4 1 4 5
M  V30 5 2 5 6
M  V30 6 1 6 7
M  V30 7 2 7 8
M  V30 8 1 8 9
M  V30 9 1 9 10
M  V30 10 2 10 11
M  V30 11 1 10 12
M  V30 12 2 12 13
M  V30 13 1 13 14
M  V30 14 2 14 15
M  V30 15 1 15 16
M  V30 16 1 16 17
M  V30 17 1 17 18
M  V30 18 1 18 19
M  V30 19 2 19 20
M  V30 20 1 19 21
M  V30 21 2 21 22
M  V30 22 1 22 23
M  V30 23 2 23 24
M  V30 24 1 24 25
M  V30 25 1 25 26
M  V30 26 1 26 27
M  V30 27 1 27 28
M  V30 28 2 28 29
M  V30 29 1 24 30
M  V30 30 2 30 31
M  V30 31 2 16 32
M  V30 32 1 8 33
M  V30 33 2 33 34
M  V30 34 1 34 35
M  V30 35 1 35 2
M  V30 36 1 34 5
M  V30 37 1 32 12
M  V30 38 1 31 21
M  V30 39 1 29 25
M  V30 40 1 1 36
M  V30 41 1 1 37
M  V30 42 1 1 38
M  V30 43 1 3 39
M  V30 44 1 3 40
M  V30 45 1 4 41
M  V30 46 1 4 42
M  V30 47 1 6 43
M  V30 48 1 7 44
M  V30 49 1 9 45
M  V30 50 1 13 46
M  V30 51 1 14 47
M  V30 52 1 15 48
M  V30 53 1 17 49
M  V30 54 1 17 50
M  V30 55 1 18 51
M  V30 56 1 22 52
M  V30 57 1 23 53
M  V30 58 1 25 54
M  V30 59 1 26 55
M  V30 60 1 26 56
M  V30 61 1 30 57
M  V30 62 1 31 58
M  V30 63 1 32 59
M  V30 64 1 33 60
M  V30 65 1 35 61
M  V30 66 1 35 62
M  V30 END BOND
M  V30 END CTAB
M  END
>  <Dataset>  (311) 
ChEMBL_Kinases

>  <Ligand_Instance>  (311) 
nan

>  <PDB_ID>  (311) 
nan

>  <Standardized_SMILES>  (311) 
CN1CCc2ccc(NC(=O)c3cccc(CNC(=O)c4ccc(C5CSN=N5)cc4)c3)cc2C1

>  <Name>  (311) 
nan

>  <Pocket>  (311) 
nan

>  <ATP_Site>  (311) 
nan

>  <Peripheral>  (311) 
nan

>  <Num_H_Atoms_ProtBoundConf>  (311) 
nan

>  <Num_Resolved_Atoms>  (311) 
nan

>  <Num_Not_Resolved_Atoms>  (311) 
nan

$$$$
CHEMBL3680711
     RDKit          3D

  0  0  0  0  0  0  0  0  0  0999 V3000
M  V30 BEGIN CTAB
M  V30 COUNTS 56 60 0 0 0
M  V30 BEGIN ATOM
M  V30 1 N 4.309609 -1.134005 7.328139 0
M  V30 2 C 4.097766 -0.534364 6.059735 0 CFG=2
M  V30 3 C 4.696085 -1.295045 4.925360 0
M  V30 4 C 5.162576 -0.427591 3.796192 0
M  V30 5 C 4.206605 0.677985 3.524699 0
M  V30 6 N 3.645415 1.097882 2.417492 0
M  V30 7 C 2.923878 1.940484 2.236513 0
M  V30 8 N 2.195977 2.551795 1.074317 0
M  V30 9 C 0.950408 1.922542 0.938501 0
M  V30 10 O 0.732134 1.009537 1.803396 0
M  V30 11 C -0.023923 2.268854 -0.094989 0
M  V30 12 C 0.270741 3.232243 -1.022349 0
M  V30 13 C -0.725288 3.489992 -1.959803 0
M  V30 14 C -1.926082 2.819827 -1.953011 0
M  V30 15 C -2.218836 1.850607 -1.017201 0
M  V30 16 C -3.495556 1.126998 -0.997723 0
M  V30 17 N -3.539383 -0.094246 -1.731817 0
M  V30 18 C -3.639398 -0.269553 -3.137071 0
M  V30 19 O -3.691797 0.821882 -3.754580 0
M  V30 20 C -3.679138 -1.565619 -3.813491 0
M  V30 21 C -3.775035 -1.619525 -5.230817 0
M  V30 22 S -3.788596 -3.465474 -5.488951 0
M  V30 23 C -3.661670 -3.801237 -3.628540 0
M  V30 24 C -3.632519 -5.186723 -3.246446 0
M  V30 25 C -3.693609 -6.259195 -4.092976 0
M  V30 26 C -3.648192 -7.506694 -3.491179 0
M  V30 27 N -3.550514 -7.662043 -2.163689 0
M  V30 28 C -3.489109 -6.634543 -1.314104 0
M  V30 29 C -3.532250 -5.360571 -1.884344 0
M  V30 30 N -3.629596 -2.691895 -3.120355 0
M  V30 31 C -1.241858 1.595642 -0.095444 0
M  V30 32 S 2.738419 2.603761 4.024377 0
M  V30 33 C 3.847260 1.393805 4.652199 0
M  V30 34 C 4.493519 0.919874 5.970686 0
M  V30 35 H 4.266059 -0.432183 8.108262 0
M  V30 36 H 3.591318 -1.853000 7.529156 0
M  V30 37 H 2.983278 -0.537371 5.871407 0
M  V30 38 H 3.978349 -2.032112 4.487490 0
M  V30 39 H 5.519859 -1.915154 5.332234 0
M  V30 40 H 6.096896 0.081405 4.167585 0
M  V30 41 H 5.448027 -1.016002 2.927929 0
M  V30 42 H 2.487073 3.300416 0.441393 0
M  V30 43 H 1.193132 3.772455 -1.058331 0
M  V30 44 H -0.500316 4.254039 -2.700104 0
M  V30 45 H -2.615949 3.104058 -2.719443 0
M  V30 46 H -3.728786 0.925378 0.075775 0
M  V30 47 H -4.291807 1.842232 -1.320178 0
M  V30 48 H -3.492105 -1.010705 -1.186167 0
M  V30 49 H -3.823177 -0.691620 -5.926650 0
M  V30 50 H -3.770773 -6.068779 -5.147946 0
M  V30 51 H -3.697864 -8.369812 -4.170983 0
M  V30 52 H -3.410934 -6.843009 -0.255088 0
M  V30 53 H -3.479648 -4.548136 -1.159171 0
M  V30 54 H -1.408054 0.842284 0.671694 0
M  V30 55 H 5.562420 1.085047 5.840430 0
M  V30 56 H 4.028465 1.489319 6.800825 0
M  V30 END ATOM
M  V30 BEGIN BOND
M  V30 1 1 1 2
M  V30 2 1 2 3
M  V30 3 1 3 4
M  V30 4 1 4 5
M  V30 5 1 5 6
M  V30 6 2 6 7
M  V30 7 1 7 8
M  V30 8 1 8 9
M  V30 9 2 9 10
M  V30 10 1 9 11
M  V30 11 2 11 12
M  V30 12 1 12 13
M  V30 13 2 13 14
M  V30 14 1 14 15
M  V30 15 1 15 16
M  V30 16 1 16 17
M  V30 17 1 17 18
M  V30 18 2 18 19
M  V30 19 1 18 20
M  V30 20 2 20 21
M  V30 21 1 21 22
M  V30 22 1 22 23
M  V30 23 1 23 24
M  V30 24 2 24 25
M  V30 25 1 25 26
M  V30 26 2 26 27
M  V30 27 1 27 28
M  V30 28 2 28 29
M  V30 29 2 23 30
M  V30 30 2 15 31
M  V30 31 1 7 32
M  V30 32 1 32 33
M  V30 33 1 33 34
M  V30 34 1 34 2
M  V30 35 2 33 5
M  V30 36 1 31 11
M  V30 37 1 30 20
M  V30 38 1 29 24
M  V30 39 1 1 35
M  V30 40 1 1 36
M  V30 41 1 2 37 CFG=3
M  V30 42 1 3 38
M  V30 43 1 3 39
M  V30 44 1 4 40
M  V30 45 1 4 41
M  V30 46 1 8 42
M  V30 47 1 12 43
M  V30 48 1 13 44
M  V30 49 1 14 45
M  V30 50 1 16 46
M  V30 51 1 16 47
M  V30 52 1 17 48
M  V30 53 1 21 49
M  V30 54 1 25 50
M  V30 55 1 26 51
M  V30 56 1 28 52
M  V30 57 1 29 53
M  V30 58 1 31 54
M  V30 59 1 34 55
M  V30 60 1 34 56
M  V30 END BOND
M  V30 END CTAB
M  END
>  <Dataset>  (312) 
ChEMBL_Kinases

>  <Ligand_Instance>  (312) 
nan

>  <PDB_ID>  (312) 
nan

>  <Standardized_SMILES>  (312) 
N[C@@H]1CCc2nc(NC(=O)c3cccc(CNC(=O)c4csc(-c5ccncc5)n4)c3)sc2C1

>  <Name>  (312) 
nan

>  <Pocket>  (312) 
nan

>  <ATP_Site>  (312) 
nan

>  <Peripheral>  (312) 
nan

>  <Num_H_Atoms_ProtBoundConf>  (312) 
nan

>  <Num_Resolved_Atoms>  (312) 
nan

>  <Num_Not_Resolved_Atoms>  (312) 
nan

$$$$
CHEMBL3680712
     RDKit          3D

  0  0  0  0  0  0  0  0  0  0999 V3000
M  V30 BEGIN CTAB
M  V30 COUNTS 60 64 0 0 0
M  V30 BEGIN ATOM
M  V30 1 C 4.876854 -2.558886 2.230661 0
M  V30 2 N 5.844604 -1.583110 1.765704 0
M  V30 3 C 6.324915 -0.840922 2.883145 0
M  V30 4 C 6.360333 0.655128 2.656716 0
M  V30 5 C 4.951260 1.026426 2.273550 0
M  V30 6 C 4.258488 2.041512 2.902896 0
M  V30 7 C 2.968662 2.307211 2.482160 0
M  V30 8 C 2.395248 1.575306 1.461762 0
M  V30 9 N 1.079531 1.767661 0.957107 0
M  V30 10 C 0.616478 2.598507 -0.086472 0
M  V30 11 O 1.403740 3.326870 -0.741714 0
M  V30 12 C -0.796438 2.639130 -0.440262 0
M  V30 13 C -1.187894 3.462853 -1.470026 0
M  V30 14 C -2.514299 3.527305 -1.832197 0
M  V30 15 C -3.462428 2.785448 -1.187396 0
M  V30 16 C -3.116540 1.939219 -0.141730 0
M  V30 17 C -4.089330 1.086879 0.621481 0
M  V30 18 N -4.247314 -0.218750 0.058550 0
M  V30 19 C -4.978998 -0.601917 -1.095868 0
M  V30 20 O -5.569253 0.323372 -1.709664 0
M  V30 21 C -5.053277 -1.988492 -1.559962 0
M  V30 22 C -5.808868 -2.303315 -2.730911 0
M  V30 23 S -5.570384 -4.122903 -2.855951 0
M  V30 24 C -4.500221 -4.137752 -1.316216 0
M  V30 25 C -3.969664 -5.453364 -0.890418 0
M  V30 26 C -4.229091 -6.618865 -1.564984 0
M  V30 27 C -3.638502 -7.729668 -1.001288 0
M  V30 28 N -2.872557 -7.711910 0.106435 0
M  V30 29 C -2.644687 -6.543391 0.736446 0
M  V30 30 C -3.198753 -5.356769 0.244893 0
M  V30 31 N -4.465565 -3.009962 -0.975473 0
M  V30 32 C -1.783897 1.908063 0.183594 0
M  V30 33 C 3.090452 0.560691 0.834009 0
M  V30 34 C 4.376864 0.282124 1.240297 0
M  V30 35 C 5.304851 -0.761272 0.707820 0
M  V30 36 H 4.163066 -2.071563 2.935891 0
M  V30 37 H 4.272652 -2.922078 1.368005 0
M  V30 38 H 5.376692 -3.375377 2.780556 0
M  V30 39 H 5.800063 -1.115912 3.798178 0
M  V30 40 H 7.395107 -1.164485 3.043929 0
M  V30 41 H 7.073227 0.856543 1.845018 0
M  V30 42 H 6.571199 1.144287 3.604893 0
M  V30 43 H 4.728958 2.600916 3.699800 0
M  V30 44 H 2.376903 3.086256 2.933454 0
M  V30 45 H 0.459819 1.150478 1.522150 0
M  V30 46 H -0.505774 4.083601 -2.033535 0
M  V30 47 H -2.877700 4.158361 -2.635129 0
M  V30 48 H -4.504079 2.834235 -1.467148 0
M  V30 49 H -3.688205 0.996657 1.650152 0
M  V30 50 H -5.048668 1.639926 0.703081 0
M  V30 51 H -3.772968 -1.043393 0.531166 0
M  V30 52 H -6.388230 -1.589595 -3.382799 0
M  V30 53 H -4.836501 -6.610816 -2.437688 0
M  V30 54 H -3.799499 -8.699865 -1.483826 0
M  V30 55 H -2.019510 -6.557717 1.633290 0
M  V30 56 H -2.995047 -4.436099 0.775876 0
M  V30 57 H -1.500531 1.253699 0.995172 0
M  V30 58 H 2.734941 -0.069364 0.028482 0
M  V30 59 H 4.694251 -1.419608 0.055357 0
M  V30 60 H 6.092188 -0.346508 0.053854 0
M  V30 END ATOM
M  V30 BEGIN BOND
M  V30 1 1 1 2
M  V30 2 1 2 3
M  V30 3 1 3 4
M  V30 4 1 4 5
M  V30 5 2 5 6
M  V30 6 1 6 7
M  V30 7 2 7 8
M  V30 8 1 8 9
M  V30 9 1 9 10
M  V30 10 2 10 11
M  V30 11 1 10 12
M  V30 12 2 12 13
M  V30 13 1 13 14
M  V30 14 2 14 15
M  V30 15 1 15 16
M  V30 16 1 16 17
M  V30 17 1 17 18
M  V30 18 1 18 19
M  V30 19 2 19 20
M  V30 20 1 19 21
M  V30 21 2 21 22
M  V30 22 1 22 23
M  V30 23 1 23 24
M  V30 24 1 24 25
M  V30 25 2 25 26
M  V30 26 1 26 27
M  V30 27 2 27 28
M  V30 28 1 28 29
M  V30 29 2 29 30
M  V30 30 2 24 31
M  V30 31 2 16 32
M  V30 32 1 8 33
M  V30 33 2 33 34
M  V30 34 1 34 35
M  V30 35 1 35 2
M  V30 36 1 34 5
M  V30 37 1 32 12
M  V30 38 1 31 21
M  V30 39 1 30 25
M  V30 40 1 1 36
M  V30 41 1 1 37
M  V30 42 1 1 38
M  V30 43 1 3 39
M  V30 44 1 3 40
M  V30 45 1 4 41
M  V30 46 1 4 42
M  V30 47 1 6 43
M  V30 48 1 7 44
M  V30 49 1 9 45
M  V30 50 1 13 46
M  V30 51 1 14 47
M  V30 52 1 15 48
M  V30 53 1 17 49
M  V30 54 1 17 50
M  V30 55 1 18 51
M  V30 56 1 22 52
M  V30 57 1 26 53
M  V30 58 1 27 54
M  V30 59 1 29 55
M  V30 60 1 30 56
M  V30 61 1 32 57
M  V30 62 1 33 58
M  V30 63 1 35 59
M  V30 64 1 35 60
M  V30 END BOND
M  V30 END CTAB
M  END
>  <Dataset>  (313) 
ChEMBL_Kinases

>  <Ligand_Instance>  (313) 
nan

>  <PDB_ID>  (313) 
nan

>  <Standardized_SMILES>  (313) 
CN1CCc2ccc(NC(=O)c3cccc(CNC(=O)c4csc(-c5ccncc5)n4)c3)cc2C1

>  <Name>  (313) 
nan

>  <Pocket>  (313) 
nan

>  <ATP_Site>  (313) 
nan

>  <Peripheral>  (313) 
nan

>  <Num_H_Atoms_ProtBoundConf>  (313) 
nan

>  <Num_Resolved_Atoms>  (313) 
nan

>  <Num_Not_Resolved_Atoms>  (313) 
nan

$$$$
CHEMBL3680704
     RDKit          3D

  0  0  0  0  0  0  0  0  0  0999 V3000
M  V30 BEGIN CTAB
M  V30 COUNTS 56 60 0 0 0
M  V30 BEGIN ATOM
M  V30 1 N -4.766343 -7.519940 1.749954 0
M  V30 2 C -3.753248 -6.695116 1.165578 0 CFG=2
M  V30 3 C -2.432837 -7.373594 1.035418 0
M  V30 4 C -1.239389 -6.513304 1.348758 0
M  V30 5 C -1.381486 -5.129181 0.829825 0
M  V30 6 N -0.558700 -4.368055 0.131419 0
M  V30 7 C -0.746733 -3.279137 -0.240859 0
M  V30 8 N 0.023145 -2.319976 -0.996817 0
M  V30 9 C 0.067503 -2.125933 -2.402171 0
M  V30 10 O -0.618812 -2.834199 -3.182266 0
M  V30 11 C 0.912078 -1.097718 -2.976341 0
M  V30 12 C 0.896766 -0.970590 -4.366217 0
M  V30 13 C 1.682703 -0.001245 -4.991749 0
M  V30 14 C 2.458060 0.807404 -4.190605 0
M  V30 15 C 2.501861 0.712600 -2.794644 0
M  V30 16 C 3.389310 1.654375 -2.066962 0
M  V30 17 N 2.672724 2.871190 -1.759590 0
M  V30 18 C 1.708876 3.083196 -0.741729 0
M  V30 19 O 1.432937 2.099650 -0.005010 0
M  V30 20 C 1.013486 4.327344 -0.473058 0
M  V30 21 C 0.094629 4.365279 0.550572 0
M  V30 22 C -0.572673 5.540052 0.816059 0
M  V30 23 C -0.385147 6.727972 0.109124 0
M  V30 24 C -1.157843 7.934938 0.478466 0
M  V30 25 C -2.061044 7.902544 1.510326 0
M  V30 26 S -2.600387 9.593757 1.412883 0
M  V30 27 N -1.561167 10.112322 0.024828 0
M  V30 28 N -0.900143 8.962353 -0.240718 0
M  V30 29 C 0.549881 6.598839 -0.894650 0
M  V30 30 C 1.249560 5.461487 -1.212358 0
M  V30 31 C 1.708462 -0.259389 -2.228596 0
M  V30 32 S -2.511847 -2.917250 0.417195 0
M  V30 33 C -2.644838 -4.522569 1.154398 0
M  V30 34 C -3.581452 -5.387164 1.948354 0
M  V30 35 H -4.385423 -8.448583 1.958242 0
M  V30 36 H -5.645400 -7.531267 1.219512 0
M  V30 37 H -4.070423 -6.368959 0.133280 0
M  V30 38 H -2.419035 -8.277848 1.708123 0
M  V30 39 H -2.297690 -7.754987 0.004575 0
M  V30 40 H -1.128308 -6.508417 2.465429 0
M  V30 41 H -0.341711 -7.010129 0.970706 0
M  V30 42 H 0.570719 -1.762653 -0.307540 0
M  V30 43 H 0.305221 -1.582876 -5.024656 0
M  V30 44 H 1.676438 0.103589 -6.069493 0
M  V30 45 H 3.056358 1.552549 -4.737890 0
M  V30 46 H 3.741812 1.142202 -1.137560 0
M  V30 47 H 4.241212 1.897101 -2.733215 0
M  V30 48 H 2.864136 3.730311 -2.344691 0
M  V30 49 H -0.109595 3.492490 1.144936 0
M  V30 50 H -1.283519 5.500592 1.636502 0
M  V30 51 H -2.352969 7.149658 2.153413 0
M  V30 52 H 0.733543 7.495008 -1.475690 0
M  V30 53 H 1.953561 5.503944 -2.026557 0
M  V30 54 H 1.733387 -0.347068 -1.167556 0
M  V30 55 H -4.532543 -4.851870 2.036260 0
M  V30 56 H -3.078980 -5.644454 2.881658 0
M  V30 END ATOM
M  V30 BEGIN BOND
M  V30 1 1 1 2
M  V30 2 1 2 3
M  V30 3 1 3 4
M  V30 4 1 4 5
M  V30 5 1 5 6
M  V30 6 2 6 7
M  V30 7 1 7 8
M  V30 8 1 8 9
M  V30 9 2 9 10
M  V30 10 1 9 11
M  V30 11 2 11 12
M  V30 12 1 12 13
M  V30 13 2 13 14
M  V30 14 1 14 15
M  V30 15 1 15 16
M  V30 16 1 16 17
M  V30 17 1 17 18
M  V30 18 2 18 19
M  V30 19 1 18 20
M  V30 20 2 20 21
M  V30 21 1 21 22
M  V30 22 2 22 23
M  V30 23 1 23 24
M  V30 24 2 24 25
M  V30 25 1 25 26
M  V30 26 1 26 27
M  V30 27 2 27 28
M  V30 28 1 23 29
M  V30 29 2 29 30
M  V30 30 2 15 31
M  V30 31 1 7 32
M  V30 32 1 32 33
M  V30 33 1 33 34
M  V30 34 1 34 2
M  V30 35 2 33 5
M  V30 36 1 31 11
M  V30 37 1 30 20
M  V30 38 1 28 24
M  V30 39 1 1 35
M  V30 40 1 1 36
M  V30 41 1 2 37 CFG=3
M  V30 42 1 3 38
M  V30 43 1 3 39
M  V30 44 1 4 40
M  V30 45 1 4 41
M  V30 46 1 8 42
M  V30 47 1 12 43
M  V30 48 1 13 44
M  V30 49 1 14 45
M  V30 50 1 16 46
M  V30 51 1 16 47
M  V30 52 1 17 48
M  V30 53 1 21 49
M  V30 54 1 22 50
M  V30 55 1 25 51
M  V30 56 1 29 52
M  V30 57 1 30 53
M  V30 58 1 31 54
M  V30 59 1 34 55
M  V30 60 1 34 56
M  V30 END BOND
M  V30 END CTAB
M  END
>  <Dataset>  (314) 
ChEMBL_Kinases

>  <Ligand_Instance>  (314) 
nan

>  <PDB_ID>  (314) 
nan

>  <Standardized_SMILES>  (314) 
N[C@@H]1CCc2nc(NC(=O)c3cccc(CNC(=O)c4ccc(-c5csnn5)cc4)c3)sc2C1

>  <Name>  (314) 
nan

>  <Pocket>  (314) 
nan

>  <ATP_Site>  (314) 
nan

>  <Peripheral>  (314) 
nan

>  <Num_H_Atoms_ProtBoundConf>  (314) 
nan

>  <Num_Resolved_Atoms>  (314) 
nan

>  <Num_Not_Resolved_Atoms>  (314) 
nan

$$$$
CHEMBL3680761
     RDKit          3D

  0  0  0  0  0  0  0  0  0  0999 V3000
M  V30 BEGIN CTAB
M  V30 COUNTS 60 64 0 0 0
M  V30 BEGIN ATOM
M  V30 1 C 5.228788 -2.176918 2.537936 0
M  V30 2 N 6.139943 -1.237567 1.929251 0
M  V30 3 C 6.550225 -0.268408 2.898152 0
M  V30 4 C 6.568385 1.163061 2.342312 0
M  V30 5 C 5.150565 1.432540 1.970404 0
M  V30 6 C 4.473586 2.539649 2.402769 0
M  V30 7 C 3.161913 2.695537 2.001568 0
M  V30 8 C 2.553227 1.765122 1.190851 0
M  V30 9 N 1.218149 1.793023 0.701657 0
M  V30 10 C 0.730902 2.366146 -0.494318 0
M  V30 11 O 1.463549 2.959246 -1.325802 0
M  V30 12 C -0.688373 2.294846 -0.831829 0
M  V30 13 C -1.122930 2.866343 -2.020200 0
M  V30 14 C -2.459026 2.842986 -2.418077 0
M  V30 15 C -3.383943 2.228766 -1.599821 0
M  V30 16 C -2.991427 1.642244 -0.397674 0
M  V30 17 C -3.929579 0.954575 0.547393 0
M  V30 18 N -4.070378 -0.444181 0.302728 0
M  V30 19 C -4.822367 -1.055808 -0.730878 0
M  V30 20 O -5.460810 -0.336559 -1.558331 0
M  V30 21 C -4.880021 -2.523257 -0.867337 0
M  V30 22 C -5.620548 -3.087396 -1.881964 0
M  V30 23 C -5.633583 -4.476713 -1.954792 0
M  V30 24 C -4.939603 -5.253994 -1.056051 0
M  V30 25 C -4.901483 -6.633208 -1.059875 0
M  V30 26 O -5.550575 -7.229822 -1.953241 0
M  V30 27 N -4.201838 -7.341450 -0.150840 0
M  V30 28 C -3.488644 -6.722523 0.829280 0
M  V30 29 C -3.477493 -5.355917 0.898664 0
M  V30 30 C -4.205466 -4.631209 -0.047683 0
M  V30 31 N -4.204749 -3.291960 0.006682 0
M  V30 32 C -1.668450 1.699263 -0.065729 0
M  V30 33 C 3.256438 0.637382 0.755551 0
M  V30 34 C 4.575339 0.477953 1.157260 0
M  V30 35 C 5.459439 -0.645116 0.792867 0
M  V30 36 H 4.453919 -1.541897 3.054896 0
M  V30 37 H 4.685239 -2.681675 1.685950 0
M  V30 38 H 5.689240 -2.899127 3.216375 0
M  V30 39 H 5.870434 -0.328292 3.772424 0
M  V30 40 H 7.592245 -0.519947 3.186401 0
M  V30 41 H 6.914779 1.797061 3.168011 0
M  V30 42 H 7.241252 1.157263 1.470813 0
M  V30 43 H 4.945922 3.271648 3.038508 0
M  V30 44 H 2.549700 3.536406 2.292862 0
M  V30 45 H 0.614879 1.299821 1.394391 0
M  V30 46 H -0.449719 3.370847 -2.720507 0
M  V30 47 H -2.800874 3.283956 -3.337296 0
M  V30 48 H -4.429707 2.184977 -1.862427 0
M  V30 49 H -3.546861 1.127030 1.573230 0
M  V30 50 H -4.906765 1.478977 0.509830 0
M  V30 51 H -3.580826 -1.118858 0.932455 0
M  V30 52 H -6.165870 -2.481958 -2.588684 0
M  V30 53 H -6.181947 -4.983151 -2.709812 0
M  V30 54 H -4.186640 -8.362699 -0.171087 0
M  V30 55 H -2.913855 -7.250163 1.578272 0
M  V30 56 H -2.913841 -4.849408 1.673573 0
M  V30 57 H -1.345749 1.250807 0.860648 0
M  V30 58 H 2.845016 -0.148140 0.110164 0
M  V30 59 H 6.227854 -0.200962 0.095349 0
M  V30 60 H 4.919689 -1.384153 0.189648 0
M  V30 END ATOM
M  V30 BEGIN BOND
M  V30 1 1 1 2
M  V30 2 1 2 3
M  V30 3 1 3 4
M  V30 4 1 4 5
M  V30 5 2 5 6
M  V30 6 1 6 7
M  V30 7 2 7 8
M  V30 8 1 8 9
M  V30 9 1 9 10
M  V30 10 2 10 11
M  V30 11 1 10 12
M  V30 12 2 12 13
M  V30 13 1 13 14
M  V30 14 2 14 15
M  V30 15 1 15 16
M  V30 16 1 16 17
M  V30 17 1 17 18
M  V30 18 1 18 19
M  V30 19 2 19 20
M  V30 20 1 19 21
M  V30 21 2 21 22
M  V30 22 1 22 23
M  V30 23 2 23 24
M  V30 24 1 24 25
M  V30 25 2 25 26
M  V30 26 1 25 27
M  V30 27 1 27 28
M  V30 28 2 28 29
M  V30 29 1 29 30
M  V30 30 2 30 31
M  V30 31 2 16 32
M  V30 32 1 8 33
M  V30 33 2 33 34
M  V30 34 1 34 35
M  V30 35 1 35 2
M  V30 36 1 34 5
M  V30 37 1 32 12
M  V30 38 1 31 21
M  V30 39 1 30 24
M  V30 40 1 1 36
M  V30 41 1 1 37
M  V30 42 1 1 38
M  V30 43 1 3 39
M  V30 44 1 3 40
M  V30 45 1 4 41
M  V30 46 1 4 42
M  V30 47 1 6 43
M  V30 48 1 7 44
M  V30 49 1 9 45
M  V30 50 1 13 46
M  V30 51 1 14 47
M  V30 52 1 15 48
M  V30 53 1 17 49
M  V30 54 1 17 50
M  V30 55 1 18 51
M  V30 56 1 22 52
M  V30 57 1 23 53
M  V30 58 1 27 54
M  V30 59 1 28 55
M  V30 60 1 29 56
M  V30 61 1 32 57
M  V30 62 1 33 58
M  V30 63 1 35 59
M  V30 64 1 35 60
M  V30 END BOND
M  V30 END CTAB
M  END
>  <Dataset>  (315) 
ChEMBL_Kinases

>  <Ligand_Instance>  (315) 
nan

>  <PDB_ID>  (315) 
nan

>  <Standardized_SMILES>  (315) 
CN1CCc2ccc(NC(=O)c3cccc(CNC(=O)c4ccc5c(=O)[nH]ccc5n4)c3)cc2C1

>  <Name>  (315) 
nan

>  <Pocket>  (315) 
nan

>  <ATP_Site>  (315) 
nan

>  <Peripheral>  (315) 
nan

>  <Num_H_Atoms_ProtBoundConf>  (315) 
nan

>  <Num_Resolved_Atoms>  (315) 
nan

>  <Num_Not_Resolved_Atoms>  (315) 
nan

$$$$
CHEMBL3680760
     RDKit          3D

  0  0  0  0  0  0  0  0  0  0999 V3000
M  V30 BEGIN CTAB
M  V30 COUNTS 55 59 0 0 0
M  V30 BEGIN ATOM
M  V30 1 C 3.117999 -2.966665 5.630785 0
M  V30 2 N 4.433320 -2.458309 5.913392 0
M  V30 3 C 4.338398 -1.198990 6.561539 0
M  V30 4 C 4.862962 -0.024990 5.790113 0
M  V30 5 C 4.430249 -0.085008 4.363817 0
M  V30 6 N 3.895168 0.864385 3.629233 0
M  V30 7 C 3.574273 0.730366 2.481028 0
M  V30 8 N 2.976815 1.484455 1.359296 0
M  V30 9 C 1.584880 1.324205 1.391277 0
M  V30 10 O 1.124534 0.608026 2.319186 0
M  V30 11 C 0.796570 2.007843 0.337480 0
M  V30 12 C 1.276098 2.799622 -0.679298 0
M  V30 13 C 0.387056 3.351064 -1.574868 0
M  V30 14 C -0.974747 3.119788 -1.465206 0
M  V30 15 C -1.452995 2.320752 -0.438074 0
M  V30 16 C -2.932806 2.186546 -0.479399 0
M  V30 17 N -3.327995 1.049438 -1.301999 0
M  V30 18 C -3.245299 -0.301724 -0.868573 0
M  V30 19 O -2.824665 -0.645316 0.265846 0
M  V30 20 C -3.674718 -1.261982 -1.812003 0
M  V30 21 C -3.691081 -2.652255 -1.622686 0
M  V30 22 C -4.132713 -3.481730 -2.617464 0
M  V30 23 C -4.552990 -2.831489 -3.803547 0
M  V30 24 C -5.080746 -3.356990 -5.075725 0
M  V30 25 C -5.441455 -2.602484 -6.140967 0
M  V30 26 N -5.868282 -3.471541 -7.092168 0
M  V30 27 N -5.749974 -4.676952 -6.574579 0
M  V30 28 C -5.264336 -4.685134 -5.317330 0
M  V30 29 S -4.305088 -1.040549 -3.465253 0
M  V30 30 C -0.559471 1.778342 0.446036 0
M  V30 31 S 4.007337 -1.010071 2.097809 0
M  V30 32 C 4.641224 -1.337353 3.770332 0
M  V30 33 C 5.275505 -2.356052 4.754782 0
M  V30 34 H 2.740808 -3.643263 6.439541 0
M  V30 35 H 2.351283 -2.162636 5.541024 0
M  V30 36 H 3.059551 -3.568764 4.697057 0
M  V30 37 H 4.923525 -1.292893 7.522893 0
M  V30 38 H 3.291595 -1.017028 6.869591 0
M  V30 39 H 5.971540 -0.041318 5.786392 0
M  V30 40 H 4.575498 0.916421 6.296071 0
M  V30 41 H 3.531470 2.020938 0.694223 0
M  V30 42 H 2.348675 2.926945 -0.690306 0
M  V30 43 H 0.847014 3.959692 -2.342031 0
M  V30 44 H -1.547633 3.618021 -2.239243 0
M  V30 45 H -3.428379 3.113724 -0.778501 0
M  V30 46 H -3.260023 2.006603 0.579440 0
M  V30 47 H -3.683774 1.325091 -2.257784 0
M  V30 48 H -3.352331 -3.107856 -0.678579 0
M  V30 49 H -4.201703 -4.554180 -2.616534 0
M  V30 50 H -5.391085 -1.513780 -6.201930 0
M  V30 51 H -6.019003 -5.552419 -7.117156 0
M  V30 52 H -5.057762 -5.495625 -4.639899 0
M  V30 53 H -1.013382 1.171469 1.216485 0
M  V30 54 H 6.230563 -1.915220 5.032499 0
M  V30 55 H 5.385607 -3.314105 4.211184 0
M  V30 END ATOM
M  V30 BEGIN BOND
M  V30 1 1 1 2
M  V30 2 1 2 3
M  V30 3 1 3 4
M  V30 4 1 4 5
M  V30 5 1 5 6
M  V30 6 2 6 7
M  V30 7 1 7 8
M  V30 8 1 8 9
M  V30 9 2 9 10
M  V30 10 1 9 11
M  V30 11 2 11 12
M  V30 12 1 12 13
M  V30 13 2 13 14
M  V30 14 1 14 15
M  V30 15 1 15 16
M  V30 16 1 16 17
M  V30 17 1 17 18
M  V30 18 2 18 19
M  V30 19 1 18 20
M  V30 20 2 20 21
M  V30 21 1 21 22
M  V30 22 2 22 23
M  V30 23 1 23 24
M  V30 24 1 24 25
M  V30 25 2 25 26
M  V30 26 1 26 27
M  V30 27 1 27 28
M  V30 28 1 23 29
M  V30 29 2 15 30
M  V30 30 1 7 31
M  V30 31 1 31 32
M  V30 32 1 32 33
M  V30 33 1 33 2
M  V30 34 2 32 5
M  V30 35 1 30 11
M  V30 36 1 29 20
M  V30 37 2 28 24
M  V30 38 1 1 34
M  V30 39 1 1 35
M  V30 40 1 1 36
M  V30 41 1 3 37
M  V30 42 1 3 38
M  V30 43 1 4 39
M  V30 44 1 4 40
M  V30 45 1 8 41
M  V30 46 1 12 42
M  V30 47 1 13 43
M  V30 48 1 14 44
M  V30 49 1 16 45
M  V30 50 1 16 46
M  V30 51 1 17 47
M  V30 52 1 21 48
M  V30 53 1 22 49
M  V30 54 1 25 50
M  V30 55 1 27 51
M  V30 56 1 28 52
M  V30 57 1 30 53
M  V30 58 1 33 54
M  V30 59 1 33 55
M  V30 END BOND
M  V30 END CTAB
M  END
>  <Dataset>  (316) 
ChEMBL_Kinases

>  <Ligand_Instance>  (316) 
nan

>  <PDB_ID>  (316) 
nan

>  <Standardized_SMILES>  (316) 
CN1CCc2nc(NC(=O)c3cccc(CNC(=O)c4ccc(-c5cn[nH]c5)s4)c3)sc2C1

>  <Name>  (316) 
nan

>  <Pocket>  (316) 
nan

>  <ATP_Site>  (316) 
nan

>  <Peripheral>  (316) 
nan

>  <Num_H_Atoms_ProtBoundConf>  (316) 
nan

>  <Num_Resolved_Atoms>  (316) 
nan

>  <Num_Not_Resolved_Atoms>  (316) 
nan

$$$$
CHEMBL3680759
     RDKit          3D

  0  0  0  0  0  0  0  0  0  0999 V3000
M  V30 BEGIN CTAB
M  V30 COUNTS 61 65 0 0 0
M  V30 BEGIN ATOM
M  V30 1 C 5.367792 -1.415241 7.507285 0
M  V30 2 N 4.894432 -1.700582 6.175646 0
M  V30 3 C 6.070404 -1.847356 5.316696 0
M  V30 4 C 5.694837 -2.159392 3.901530 0
M  V30 5 C 4.423254 -1.543375 3.458794 0
M  V30 6 C 4.071616 -1.833232 2.152303 0
M  V30 7 C 2.889338 -1.267818 1.703224 0
M  V30 8 C 2.080498 -0.462180 2.468721 0
M  V30 9 N 0.872043 0.135062 2.015321 0
M  V30 10 C 0.671959 1.429721 1.469935 0
M  V30 11 O 1.581579 2.292126 1.301999 0
M  V30 12 C -0.653931 1.859169 1.054057 0
M  V30 13 C -0.892088 3.176179 0.727019 0
M  V30 14 C -2.109085 3.705169 0.306470 0
M  V30 15 C -3.152633 2.777561 0.223859 0
M  V30 16 C -3.009546 1.444017 0.527767 0
M  V30 17 C -4.124679 0.440024 0.410626 0
M  V30 18 N -4.120269 -0.128556 -0.943893 0
M  V30 19 C -4.562444 0.416153 -2.167073 0
M  V30 20 O -5.054519 1.569313 -2.121858 0
M  V30 21 C -4.464818 -0.287509 -3.429329 0
M  V30 22 C -4.045805 -1.526243 -3.865022 0
M  V30 23 C -4.104745 -1.770381 -5.272338 0
M  V30 24 C -3.626365 -3.112752 -5.473670 0
M  V30 25 C -3.703858 -3.355681 -6.854385 0
M  V30 26 C -3.326099 -4.580059 -7.407993 0
M  V30 27 N -2.880013 -5.527743 -6.546039 0
M  V30 28 C -2.803140 -5.307993 -5.234629 0
M  V30 29 C -3.170213 -4.102029 -4.641393 0
M  V30 30 N -4.576671 -0.588140 -5.529059 0
M  V30 31 N -4.799031 0.263767 -4.601428 0
M  V30 32 C -1.747285 1.012443 0.942835 0
M  V30 33 C 2.528428 -0.243157 3.743487 0
M  V30 34 C 3.668686 -0.730407 4.324640 0
M  V30 35 C 4.201131 -0.521441 5.690697 0
M  V30 36 H 5.781014 -0.392522 7.635227 0
M  V30 37 H 6.146793 -2.190250 7.734824 0
M  V30 38 H 4.535286 -1.480767 8.268229 0
M  V30 39 H 6.734181 -0.980717 5.377437 0
M  V30 40 H 6.643895 -2.728655 5.721959 0
M  V30 41 H 5.535803 -3.271986 3.848150 0
M  V30 42 H 6.536013 -1.926306 3.247694 0
M  V30 43 H 4.668440 -2.455952 1.505682 0
M  V30 44 H 2.563924 -1.459663 0.687390 0
M  V30 45 H 0.105985 -0.558948 2.149966 0
M  V30 46 H -0.099601 3.917781 0.782403 0
M  V30 47 H -2.261455 4.733257 0.061963 0
M  V30 48 H -4.123669 3.119675 -0.086587 0
M  V30 49 H -3.977403 -0.396803 1.115409 0
M  V30 50 H -5.108532 0.906132 0.616516 0
M  V30 51 H -3.727333 -1.115035 -1.080936 0
M  V30 52 H -3.735181 -2.094306 -2.941624 0
M  V30 53 H -4.028290 -2.722517 -7.696250 0
M  V30 54 H -3.326150 -4.915007 -8.429758 0
M  V30 55 H -2.458375 -6.016494 -4.484207 0
M  V30 56 H -3.138718 -3.854993 -3.612793 0
M  V30 57 H -5.189320 1.223871 -4.848611 0
M  V30 58 H -1.621526 -0.041047 1.189191 0
M  V30 59 H 1.942848 0.379613 4.410021 0
M  V30 60 H 3.465121 -0.099717 6.365307 0
M  V30 61 H 5.019674 0.251305 5.564027 0
M  V30 END ATOM
M  V30 BEGIN BOND
M  V30 1 1 1 2
M  V30 2 1 2 3
M  V30 3 1 3 4
M  V30 4 1 4 5
M  V30 5 2 5 6
M  V30 6 1 6 7
M  V30 7 2 7 8
M  V30 8 1 8 9
M  V30 9 1 9 10
M  V30 10 2 10 11
M  V30 11 1 10 12
M  V30 12 2 12 13
M  V30 13 1 13 14
M  V30 14 2 14 15
M  V30 15 1 15 16
M  V30 16 1 16 17
M  V30 17 1 17 18
M  V30 18 1 18 19
M  V30 19 2 19 20
M  V30 20 1 19 21
M  V30 21 2 21 22
M  V30 22 1 22 23
M  V30 23 1 23 24
M  V30 24 2 24 25
M  V30 25 1 25 26
M  V30 26 2 26 27
M  V30 27 1 27 28
M  V30 28 2 28 29
M  V30 29 2 23 30
M  V30 30 1 30 31
M  V30 31 2 16 32
M  V30 32 1 8 33
M  V30 33 2 33 34
M  V30 34 1 34 35
M  V30 35 1 35 2
M  V30 36 1 34 5
M  V30 37 1 32 12
M  V30 38 1 31 21
M  V30 39 1 29 24
M  V30 40 1 1 36
M  V30 41 1 1 37
M  V30 42 1 1 38
M  V30 43 1 3 39
M  V30 44 1 3 40
M  V30 45 1 4 41
M  V30 46 1 4 42
M  V30 47 1 6 43
M  V30 48 1 7 44
M  V30 49 1 9 45
M  V30 50 1 13 46
M  V30 51 1 14 47
M  V30 52 1 15 48
M  V30 53 1 17 49
M  V30 54 1 17 50
M  V30 55 1 18 51
M  V30 56 1 22 52
M  V30 57 1 25 53
M  V30 58 1 26 54
M  V30 59 1 28 55
M  V30 60 1 29 56
M  V30 61 1 31 57
M  V30 62 1 32 58
M  V30 63 1 33 59
M  V30 64 1 35 60
M  V30 65 1 35 61
M  V30 END BOND
M  V30 END CTAB
M  END
>  <Dataset>  (317) 
ChEMBL_Kinases

>  <Ligand_Instance>  (317) 
nan

>  <PDB_ID>  (317) 
nan

>  <Standardized_SMILES>  (317) 
CN1CCc2ccc(NC(=O)c3cccc(CNC(=O)c4cc(-c5ccncc5)n[nH]4)c3)cc2C1

>  <Name>  (317) 
nan

>  <Pocket>  (317) 
nan

>  <ATP_Site>  (317) 
nan

>  <Peripheral>  (317) 
nan

>  <Num_H_Atoms_ProtBoundConf>  (317) 
nan

>  <Num_Resolved_Atoms>  (317) 
nan

>  <Num_Not_Resolved_Atoms>  (317) 
nan

$$$$
CHEMBL3680758
     RDKit          3D

  0  0  0  0  0  0  0  0  0  0999 V3000
M  V30 BEGIN CTAB
M  V30 COUNTS 66 70 0 0 0
M  V30 BEGIN ATOM
M  V30 1 C 5.471456 3.098307 3.899316 0
M  V30 2 C 4.910842 2.759952 2.521985 0
M  V30 3 N 4.481541 1.378977 2.462565 0
M  V30 4 C 3.279364 0.878453 2.757306 0
M  V30 5 C 2.092222 1.583871 3.222749 0
M  V30 6 O 2.050055 2.804911 3.419456 0
M  V30 7 N 0.896068 0.880026 3.478791 0
M  V30 8 C -0.378097 1.396905 3.941362 0
M  V30 9 C -1.046136 2.047501 2.783739 0
M  V30 10 C -0.960674 3.377521 2.438861 0
M  V30 11 C -1.603357 3.917188 1.345583 0
M  V30 12 C -2.362891 3.023331 0.589436 0
M  V30 13 C -2.486601 1.681692 0.884805 0
M  V30 14 C -3.320248 0.883852 -0.008682 0
M  V30 15 O -3.873689 1.446099 -0.961252 0
M  V30 16 N -3.486256 -0.510454 0.219848 0
M  V30 17 C -4.248352 -1.450065 -0.528089 0
M  V30 18 C -5.566704 -1.806061 -0.340035 0
M  V30 19 C -6.143105 -2.741102 -1.168430 0
M  V30 20 C -5.398791 -3.314924 -2.179847 0
M  V30 21 C -4.077042 -2.973051 -2.386037 0
M  V30 22 C -3.500662 -2.027486 -1.545325 0
M  V30 23 C -3.354342 -3.626650 -3.482734 0
M  V30 24 N -3.639604 -5.029413 -3.604813 0
M  V30 25 C -3.053557 -5.644492 -4.749026 0
M  V30 26 C -4.970629 -5.428252 -3.317756 0
M  V30 27 C -5.963915 -4.334863 -3.111216 0
M  V30 28 C -1.816027 1.209872 1.993485 0
M  V30 29 C 3.374286 -0.482346 2.536083 0
M  V30 30 C 4.638389 -0.810057 2.105587 0
M  V30 31 C 5.202487 -2.020050 1.763343 0
M  V30 32 C 6.518230 -2.028761 1.362755 0
M  V30 33 C 7.253302 -0.871472 1.303124 0
M  V30 34 C 8.644387 -0.877057 0.880497 0
M  V30 35 N 9.755515 -0.865952 0.553095 0
M  V30 36 C 6.660572 0.340070 1.654147 0
M  V30 37 C 5.333102 0.390174 2.064153 0
M  V30 38 H 6.458363 2.633636 4.059332 0
M  V30 39 H 5.456063 4.198135 4.059769 0
M  V30 40 H 4.782458 2.605726 4.626844 0
M  V30 41 H 5.678528 2.950607 1.737401 0
M  V30 42 H 4.016843 3.393998 2.369672 0
M  V30 43 H 0.941005 -0.172168 3.306436 0
M  V30 44 H -0.233995 2.115278 4.781069 0
M  V30 45 H -0.978712 0.571913 4.359650 0
M  V30 46 H -0.360757 4.019975 3.066150 0
M  V30 47 H -1.513521 4.967283 1.104744 0
M  V30 48 H -2.855811 3.491357 -0.267783 0
M  V30 49 H -3.038787 -1.023944 1.009607 0
M  V30 50 H -6.059955 -1.313195 0.461873 0
M  V30 51 H -7.171200 -3.020658 -1.023697 0
M  V30 52 H -2.448664 -1.803308 -1.765907 0
M  V30 53 H -3.487250 -3.066840 -4.446194 0
M  V30 54 H -2.268474 -3.532873 -3.256327 0
M  V30 55 H -2.799548 -4.833681 -5.467717 0
M  V30 56 H -3.679636 -6.365089 -5.284937 0
M  V30 57 H -2.106721 -6.156802 -4.445381 0
M  V30 58 H -4.954125 -6.088400 -2.438733 0
M  V30 59 H -5.331373 -6.009788 -4.215303 0
M  V30 60 H -6.369413 -3.895396 -4.033178 0
M  V30 61 H -6.851464 -4.813094 -2.604734 0
M  V30 62 H -1.917035 0.164513 2.217331 0
M  V30 63 H 2.583145 -1.206199 2.673950 0
M  V30 64 H 4.602922 -2.925164 1.817398 0
M  V30 65 H 6.975125 -2.991116 1.088061 0
M  V30 66 H 7.177631 1.274801 1.629012 0
M  V30 END ATOM
M  V30 BEGIN BOND
M  V30 1 1 1 2
M  V30 2 1 2 3
M  V30 3 1 3 4
M  V30 4 1 4 5
M  V30 5 2 5 6
M  V30 6 1 5 7
M  V30 7 1 7 8
M  V30 8 1 8 9
M  V30 9 2 9 10
M  V30 10 1 10 11
M  V30 11 2 11 12
M  V30 12 1 12 13
M  V30 13 1 13 14
M  V30 14 2 14 15
M  V30 15 1 14 16
M  V30 16 1 16 17
M  V30 17 2 17 18
M  V30 18 1 18 19
M  V30 19 2 19 20
M  V30 20 1 20 21
M  V30 21 2 21 22
M  V30 22 1 21 23
M  V30 23 1 23 24
M  V30 24 1 24 25
M  V30 25 1 24 26
M  V30 26 1 26 27
M  V30 27 2 13 28
M  V30 28 2 4 29
M  V30 29 1 29 30
M  V30 30 2 30 31
M  V30 31 1 31 32
M  V30 32 2 32 33
M  V30 33 1 33 34
M  V30 34 3 34 35
M  V30 35 1 33 36
M  V30 36 2 36 37
M  V30 37 1 37 3
M  V30 38 1 28 9
M  V30 39 1 37 30
M  V30 40 1 22 17
M  V30 41 1 27 20
M  V30 42 1 1 38
M  V30 43 1 1 39
M  V30 44 1 1 40
M  V30 45 1 2 41
M  V30 46 1 2 42
M  V30 47 1 7 43
M  V30 48 1 8 44
M  V30 49 1 8 45
M  V30 50 1 10 46
M  V30 51 1 11 47
M  V30 52 1 12 48
M  V30 53 1 16 49
M  V30 54 1 18 50
M  V30 55 1 19 51
M  V30 56 1 22 52
M  V30 57 1 23 53
M  V30 58 1 23 54
M  V30 59 1 25 55
M  V30 60 1 25 56
M  V30 61 1 25 57
M  V30 62 1 26 58
M  V30 63 1 26 59
M  V30 64 1 27 60
M  V30 65 1 27 61
M  V30 66 1 28 62
M  V30 67 1 29 63
M  V30 68 1 31 64
M  V30 69 1 32 65
M  V30 70 1 36 66
M  V30 END BOND
M  V30 END CTAB
M  END
>  <Dataset>  (318) 
ChEMBL_Kinases

>  <Ligand_Instance>  (318) 
nan

>  <PDB_ID>  (318) 
nan

>  <Standardized_SMILES>  (318) 
CCn1c(C(=O)NCc2cccc(C(=O)Nc3ccc4c(c3)CN(C)CC4)c2)cc2ccc(C#N)cc21

>  <Name>  (318) 
nan

>  <Pocket>  (318) 
nan

>  <ATP_Site>  (318) 
nan

>  <Peripheral>  (318) 
nan

>  <Num_H_Atoms_ProtBoundConf>  (318) 
nan

>  <Num_Resolved_Atoms>  (318) 
nan

>  <Num_Not_Resolved_Atoms>  (318) 
nan

$$$$
CHEMBL3680757
     RDKit          3D

  0  0  0  0  0  0  0  0  0  0999 V3000
M  V30 BEGIN CTAB
M  V30 COUNTS 57 61 0 0 0
M  V30 BEGIN ATOM
M  V30 1 C 6.868627 4.016139 7.247852 0
M  V30 2 C 5.841750 4.048319 6.143509 0
M  V30 3 N 5.106093 5.147213 5.800910 0
M  V30 4 C 4.287193 4.796550 4.762567 0
M  V30 5 C 4.565981 3.474484 4.513981 0
M  V30 6 C 3.953919 2.671335 3.510321 0
M  V30 7 C 4.037067 1.338408 3.074509 0
M  V30 8 C 3.253281 0.916085 2.037551 0
M  V30 9 C 2.393455 1.888668 1.468182 0
M  V30 10 C 1.471461 1.684910 0.357715 0
M  V30 11 O 1.381716 0.553579 -0.187710 0
M  V30 12 N 0.705989 2.772481 -0.071659 0
M  V30 13 C -0.261854 2.789417 -1.146728 0
M  V30 14 C -1.496566 2.134070 -0.641681 0
M  V30 15 C -2.422762 2.925676 -0.001066 0
M  V30 16 C -3.639545 2.520110 0.534329 0
M  V30 17 C -3.875209 1.155960 0.366113 0
M  V30 18 C -3.004657 0.291900 -0.261307 0
M  V30 19 C -3.368240 -1.112423 -0.379550 0
M  V30 20 O -4.494104 -1.436696 0.138000 0
M  V30 21 N -2.534754 -2.026443 -1.016997 0
M  V30 22 C -2.679476 -3.443798 -1.256243 0
M  V30 23 N -3.227946 -3.864566 -2.290069 0
M  V30 24 C -3.353687 -5.175514 -2.503767 0
M  V30 25 C -2.847741 -6.075257 -1.524943 0
M  V30 26 S -2.176169 -4.818457 -0.273707 0
M  V30 27 C -3.022902 -7.521099 -1.838694 0
M  V30 28 N -2.387484 -7.816242 -3.104239 0
M  V30 29 C -0.960567 -7.774625 -3.006950 0
M  V30 30 C -2.935428 -6.971950 -4.115264 0
M  V30 31 C -3.941537 -5.976713 -3.613907 0
M  V30 32 C -1.829350 0.820829 -0.749630 0
M  V30 33 S 2.648328 3.407564 2.353271 0
M  V30 34 O 5.476078 3.056508 5.331194 0
M  V30 35 H 7.688668 3.371199 6.857551 0
M  V30 36 H 6.432448 3.492174 8.131681 0
M  V30 37 H 7.154341 5.047117 7.465012 0
M  V30 38 H 3.576929 5.486567 4.277712 0
M  V30 39 H 4.747033 0.741297 3.624992 0
M  V30 40 H 3.296212 -0.099115 1.683452 0
M  V30 41 H 0.823812 3.703050 0.424435 0
M  V30 42 H -0.456544 3.807251 -1.508280 0
M  V30 43 H 0.162810 2.147059 -1.973699 0
M  V30 44 H -2.211437 3.999447 0.118845 0
M  V30 45 H -4.338990 3.168721 1.028545 0
M  V30 46 H -4.835099 0.825735 0.786008 0
M  V30 47 H -1.614604 -1.780100 -1.442251 0
M  V30 48 H -4.095857 -7.698712 -1.856951 0
M  V30 49 H -2.508665 -8.153113 -1.085775 0
M  V30 50 H -0.516245 -8.792817 -3.178467 0
M  V30 51 H -0.561592 -7.423239 -2.039645 0
M  V30 52 H -0.542587 -7.102586 -3.792578 0
M  V30 53 H -3.352901 -7.618210 -4.913078 0
M  V30 54 H -2.085192 -6.416940 -4.575793 0
M  V30 55 H -4.241041 -5.330977 -4.470796 0
M  V30 56 H -4.878416 -6.457373 -3.270446 0
M  V30 57 H -1.112029 0.173392 -1.255280 0
M  V30 END ATOM
M  V30 BEGIN BOND
M  V30 1 1 1 2
M  V30 2 2 2 3
M  V30 3 1 3 4
M  V30 4 2 4 5
M  V30 5 1 5 6
M  V30 6 2 6 7
M  V30 7 1 7 8
M  V30 8 2 8 9
M  V30 9 1 9 10
M  V30 10 2 10 11
M  V30 11 1 10 12
M  V30 12 1 12 13
M  V30 13 1 13 14
M  V30 14 2 14 15
M  V30 15 1 15 16
M  V30 16 2 16 17
M  V30 17 1 17 18
M  V30 18 1 18 19
M  V30 19 2 19 20
M  V30 20 1 19 21
M  V30 21 1 21 22
M  V30 22 2 22 23
M  V30 23 1 23 24
M  V30 24 2 24 25
M  V30 25 1 25 26
M  V30 26 1 25 27
M  V30 27 1 27 28
M  V30 28 1 28 29
M  V30 29 1 28 30
M  V30 30 1 30 31
M  V30 31 2 18 32
M  V30 32 1 9 33
M  V30 33 1 5 34
M  V30 34 1 34 2
M  V30 35 1 33 6
M  V30 36 1 32 14
M  V30 37 1 26 22
M  V30 38 1 31 24
M  V30 39 1 1 35
M  V30 40 1 1 36
M  V30 41 1 1 37
M  V30 42 1 4 38
M  V30 43 1 7 39
M  V30 44 1 8 40
M  V30 45 1 12 41
M  V30 46 1 13 42
M  V30 47 1 13 43
M  V30 48 1 15 44
M  V30 49 1 16 45
M  V30 50 1 17 46
M  V30 51 1 21 47
M  V30 52 1 27 48
M  V30 53 1 27 49
M  V30 54 1 29 50
M  V30 55 1 29 51
M  V30 56 1 29 52
M  V30 57 1 30 53
M  V30 58 1 30 54
M  V30 59 1 31 55
M  V30 60 1 31 56
M  V30 61 1 32 57
M  V30 END BOND
M  V30 END CTAB
M  END
>  <Dataset>  (319) 
ChEMBL_Kinases

>  <Ligand_Instance>  (319) 
nan

>  <PDB_ID>  (319) 
nan

>  <Standardized_SMILES>  (319) 
Cc1ncc(-c2ccc(C(=O)NCc3cccc(C(=O)Nc4nc5c(s4)CN(C)CC5)c3)s2)o1

>  <Name>  (319) 
nan

>  <Pocket>  (319) 
nan

>  <ATP_Site>  (319) 
nan

>  <Peripheral>  (319) 
nan

>  <Num_H_Atoms_ProtBoundConf>  (319) 
nan

>  <Num_Resolved_Atoms>  (319) 
nan

>  <Num_Not_Resolved_Atoms>  (319) 
nan

$$$$
CHEMBL3680756
     RDKit          3D

  0  0  0  0  0  0  0  0  0  0999 V3000
M  V30 BEGIN CTAB
M  V30 COUNTS 54 58 0 0 0
M  V30 BEGIN ATOM
M  V30 1 C 7.467824 -3.926195 0.025255 0
M  V30 2 N 6.536209 -2.855299 0.189374 0
M  V30 3 C 5.540028 -3.064934 1.190986 0
M  V30 4 C 5.350851 -1.852037 2.074488 0
M  V30 5 C 5.065265 -0.695972 1.147431 0
M  V30 6 N 4.044411 0.171201 1.217261 0
M  V30 7 C 3.912371 1.078155 0.405218 0
M  V30 8 N 2.779994 2.016800 0.503912 0
M  V30 9 C 1.741790 1.460226 -0.256421 0
M  V30 10 O 2.025303 0.346601 -0.810081 0
M  V30 11 C 0.421432 2.083892 -0.422227 0
M  V30 12 C 0.068431 3.290038 0.167914 0
M  V30 13 C -1.205047 3.764662 -0.069687 0
M  V30 14 C -2.135267 3.113085 -0.852655 0
M  V30 15 C -1.791441 1.916188 -1.440523 0
M  V30 16 C -2.656374 1.057299 -2.317490 0
M  V30 17 N -3.354553 0.095797 -1.487013 0
M  V30 18 C -4.496507 0.411650 -0.703554 0
M  V30 19 O -5.038220 1.542903 -0.629179 0
M  V30 20 C -5.106126 -0.636423 0.082247 0
M  V30 21 C -4.790599 -1.935891 0.228957 0
M  V30 22 C -5.485155 -2.795138 1.020300 0
M  V30 23 C -6.577745 -2.165406 1.671849 0
M  V30 24 C -7.580221 -2.725546 2.609264 0
M  V30 25 C -7.543289 -4.028660 2.967058 0
M  V30 26 N -8.582457 -4.208543 3.819844 0
M  V30 27 C -9.210463 -3.051015 3.960044 0
M  V30 28 O -8.574416 -2.155027 3.204913 0
M  V30 29 S -6.522523 -0.432003 1.110085 0
M  V30 30 C -0.518746 1.426610 -1.212473 0
M  V30 31 S 5.296123 0.877375 -0.696755 0
M  V30 32 C 5.970668 -0.565353 0.155446 0
M  V30 33 C 7.081801 -1.540275 0.107718 0
M  V30 34 H 8.466432 -3.632682 -0.302470 0
M  V30 35 H 7.590560 -4.433254 1.011761 0
M  V30 36 H 7.025780 -4.724725 -0.637571 0
M  V30 37 H 5.900640 -3.886464 1.858717 0
M  V30 38 H 4.585010 -3.376305 0.758896 0
M  V30 39 H 6.247271 -1.666390 2.700490 0
M  V30 40 H 4.519592 -2.053624 2.765565 0
M  V30 41 H 2.652157 2.907517 0.985940 0
M  V30 42 H 0.794392 3.802060 0.780829 0
M  V30 43 H -1.477054 4.705089 0.391653 0
M  V30 44 H -3.132259 3.462146 -1.054370 0
M  V30 45 H -2.090566 0.540958 -3.088535 0
M  V30 46 H -3.440232 1.735512 -2.720872 0
M  V30 47 H -2.988029 -0.898316 -1.466839 0
M  V30 48 H -3.917214 -2.313120 -0.329890 0
M  V30 49 H -5.307917 -3.842273 1.197647 0
M  V30 50 H -6.850452 -4.813087 2.666750 0
M  V30 51 H -10.075526 -2.681963 4.516319 0
M  V30 52 H -0.202398 0.488869 -1.654196 0
M  V30 53 H 7.641921 -1.480606 -0.851857 0
M  V30 54 H 7.815496 -1.381560 0.919225 0
M  V30 END ATOM
M  V30 BEGIN BOND
M  V30 1 1 1 2
M  V30 2 1 2 3
M  V30 3 1 3 4
M  V30 4 1 4 5
M  V30 5 1 5 6
M  V30 6 2 6 7
M  V30 7 1 7 8
M  V30 8 1 8 9
M  V30 9 2 9 10
M  V30 10 1 9 11
M  V30 11 2 11 12
M  V30 12 1 12 13
M  V30 13 2 13 14
M  V30 14 1 14 15
M  V30 15 1 15 16
M  V30 16 1 16 17
M  V30 17 1 17 18
M  V30 18 2 18 19
M  V30 19 1 18 20
M  V30 20 2 20 21
M  V30 21 1 21 22
M  V30 22 2 22 23
M  V30 23 1 23 24
M  V30 24 2 24 25
M  V30 25 1 25 26
M  V30 26 2 26 27
M  V30 27 1 27 28
M  V30 28 1 23 29
M  V30 29 2 15 30
M  V30 30 1 7 31
M  V30 31 1 31 32
M  V30 32 1 32 33
M  V30 33 1 33 2
M  V30 34 2 32 5
M  V30 35 1 30 11
M  V30 36 1 29 20
M  V30 37 1 28 24
M  V30 38 1 1 34
M  V30 39 1 1 35
M  V30 40 1 1 36
M  V30 41 1 3 37
M  V30 42 1 3 38
M  V30 43 1 4 39
M  V30 44 1 4 40
M  V30 45 1 8 41
M  V30 46 1 12 42
M  V30 47 1 13 43
M  V30 48 1 14 44
M  V30 49 1 16 45
M  V30 50 1 16 46
M  V30 51 1 17 47
M  V30 52 1 21 48
M  V30 53 1 22 49
M  V30 54 1 25 50
M  V30 55 1 27 51
M  V30 56 1 30 52
M  V30 57 1 33 53
M  V30 58 1 33 54
M  V30 END BOND
M  V30 END CTAB
M  END
>  <Dataset>  (320) 
ChEMBL_Kinases

>  <Ligand_Instance>  (320) 
nan

>  <PDB_ID>  (320) 
nan

>  <Standardized_SMILES>  (320) 
CN1CCc2nc(NC(=O)c3cccc(CNC(=O)c4ccc(-c5cnco5)s4)c3)sc2C1

>  <Name>  (320) 
nan

>  <Pocket>  (320) 
nan

>  <ATP_Site>  (320) 
nan

>  <Peripheral>  (320) 
nan

>  <Num_H_Atoms_ProtBoundConf>  (320) 
nan

>  <Num_Resolved_Atoms>  (320) 
nan

>  <Num_Not_Resolved_Atoms>  (320) 
nan

$$$$
CHEMBL3680755
     RDKit          3D

  0  0  0  0  0  0  0  0  0  0999 V3000
M  V30 BEGIN CTAB
M  V30 COUNTS 57 61 0 0 0
M  V30 BEGIN ATOM
M  V30 1 C 5.801534 -2.655028 6.054166 0
M  V30 2 N 4.806389 -2.106953 5.182702 0
M  V30 3 C 4.126364 -1.026737 5.859703 0
M  V30 4 C 4.709571 0.318461 5.405301 0
M  V30 5 C 4.210587 0.517683 4.020482 0
M  V30 6 N 3.535991 1.446707 3.382712 0
M  V30 7 C 3.226276 1.422814 2.262779 0
M  V30 8 N 2.491080 2.253471 1.251001 0
M  V30 9 C 1.148408 1.860305 1.301163 0
M  V30 10 O 0.895681 0.955933 2.138555 0
M  V30 11 C 0.147834 2.474155 0.433590 0
M  V30 12 C 0.428033 3.463516 -0.481628 0
M  V30 13 C -0.554294 4.021268 -1.296478 0
M  V30 14 C -1.844338 3.510822 -1.124562 0
M  V30 15 C -2.157588 2.518732 -0.215273 0
M  V30 16 C -3.597493 2.158662 -0.235712 0
M  V30 17 N -3.836578 1.103382 -1.193454 0
M  V30 18 C -3.526176 -0.241828 -0.969676 0
M  V30 19 O -3.012579 -0.690283 0.073970 0
M  V30 20 C -3.806221 -1.251765 -2.015127 0
M  V30 21 C -4.336105 -1.105936 -3.223892 0
M  V30 22 C -4.508548 -2.185502 -4.049577 0
M  V30 23 C -4.092640 -3.413138 -3.527644 0
M  V30 24 C -4.077590 -4.799562 -4.022490 0
M  V30 25 C -3.594894 -5.782087 -3.228566 0
M  V30 26 C -3.650277 -7.033098 -3.846930 0
M  V30 27 N -4.122841 -7.269236 -5.087228 0
M  V30 28 C -4.580106 -6.209882 -5.789623 0
M  V30 29 C -4.583911 -4.900701 -5.292849 0
M  V30 30 S -3.448441 -2.952483 -1.813116 0
M  V30 31 C -1.147219 2.011156 0.557111 0
M  V30 32 S 3.880019 -0.171516 1.605314 0
M  V30 33 C 4.599355 -0.614538 3.291200 0
M  V30 34 C 5.343747 -1.706906 3.901587 0
M  V30 35 H 5.618864 -2.366323 7.126347 0
M  V30 36 H 6.784587 -2.199871 5.794753 0
M  V30 37 H 5.837932 -3.763338 6.040268 0
M  V30 38 H 3.030769 -1.040572 5.738134 0
M  V30 39 H 4.336751 -1.100852 6.944981 0
M  V30 40 H 4.397157 1.129969 6.088717 0
M  V30 41 H 5.807191 0.176269 5.383804 0
M  V30 42 H 2.858173 2.973057 0.629143 0
M  V30 43 H 1.443862 3.822407 -0.573960 0
M  V30 44 H -0.305877 4.788254 -1.997810 0
M  V30 45 H -2.563063 3.997642 -1.799712 0
M  V30 46 H -3.849483 1.830409 0.808192 0
M  V30 47 H -4.239697 3.043183 -0.406960 0
M  V30 48 H -4.276799 1.427236 -2.106002 0
M  V30 49 H -4.635352 -0.118941 -3.559765 0
M  V30 50 H -4.921809 -2.207562 -5.045260 0
M  V30 51 H -3.207701 -5.653391 -2.236430 0
M  V30 52 H -3.290853 -7.930863 -3.319130 0
M  V30 53 H -4.957968 -6.411072 -6.786211 0
M  V30 54 H -4.954488 -4.073028 -5.874102 0
M  V30 55 H -1.464508 1.240686 1.246618 0
M  V30 56 H 6.396467 -1.399578 4.043371 0
M  V30 57 H 5.344827 -2.597362 3.244590 0
M  V30 END ATOM
M  V30 BEGIN BOND
M  V30 1 1 1 2
M  V30 2 1 2 3
M  V30 3 1 3 4
M  V30 4 1 4 5
M  V30 5 1 5 6
M  V30 6 2 6 7
M  V30 7 1 7 8
M  V30 8 1 8 9
M  V30 9 2 9 10
M  V30 10 1 9 11
M  V30 11 2 11 12
M  V30 12 1 12 13
M  V30 13 2 13 14
M  V30 14 1 14 15
M  V30 15 1 15 16
M  V30 16 1 16 17
M  V30 17 1 17 18
M  V30 18 2 18 19
M  V30 19 1 18 20
M  V30 20 2 20 21
M  V30 21 1 21 22
M  V30 22 2 22 23
M  V30 23 1 23 24
M  V30 24 2 24 25
M  V30 25 1 25 26
M  V30 26 2 26 27
M  V30 27 1 27 28
M  V30 28 2 28 29
M  V30 29 1 23 30
M  V30 30 2 15 31
M  V30 31 1 7 32
M  V30 32 1 32 33
M  V30 33 1 33 34
M  V30 34 1 34 2
M  V30 35 2 33 5
M  V30 36 1 31 11
M  V30 37 1 30 20
M  V30 38 1 29 24
M  V30 39 1 1 35
M  V30 40 1 1 36
M  V30 41 1 1 37
M  V30 42 1 3 38
M  V30 43 1 3 39
M  V30 44 1 4 40
M  V30 45 1 4 41
M  V30 46 1 8 42
M  V30 47 1 12 43
M  V30 48 1 13 44
M  V30 49 1 14 45
M  V30 50 1 16 46
M  V30 51 1 16 47
M  V30 52 1 17 48
M  V30 53 1 21 49
M  V30 54 1 22 50
M  V30 55 1 25 51
M  V30 56 1 26 52
M  V30 57 1 28 53
M  V30 58 1 29 54
M  V30 59 1 31 55
M  V30 60 1 34 56
M  V30 61 1 34 57
M  V30 END BOND
M  V30 END CTAB
M  END
>  <Dataset>  (321) 
ChEMBL_Kinases

>  <Ligand_Instance>  (321) 
nan

>  <PDB_ID>  (321) 
nan

>  <Standardized_SMILES>  (321) 
CN1CCc2nc(NC(=O)c3cccc(CNC(=O)c4ccc(-c5ccncc5)s4)c3)sc2C1

>  <Name>  (321) 
nan

>  <Pocket>  (321) 
nan

>  <ATP_Site>  (321) 
nan

>  <Peripheral>  (321) 
nan

>  <Num_H_Atoms_ProtBoundConf>  (321) 
nan

>  <Num_Resolved_Atoms>  (321) 
nan

>  <Num_Not_Resolved_Atoms>  (321) 
nan

$$$$
CHEMBL3680754
     RDKit          3D

  0  0  0  0  0  0  0  0  0  0999 V3000
M  V30 BEGIN CTAB
M  V30 COUNTS 57 61 0 0 0
M  V30 BEGIN ATOM
M  V30 1 C 6.317225 -2.329642 6.018800 0
M  V30 2 N 5.301163 -1.918998 5.094087 0
M  V30 3 C 4.528881 -0.824773 5.643158 0
M  V30 4 C 5.110847 0.466956 5.054369 0
M  V30 5 C 4.564372 0.540989 3.668045 0
M  V30 6 N 3.834414 1.334942 2.917536 0
M  V30 7 C 3.523572 1.147356 1.779407 0
M  V30 8 N 2.693999 2.024097 0.889053 0
M  V30 9 C 1.347389 1.667500 1.023174 0
M  V30 10 O 1.123230 0.711418 1.843716 0
M  V30 11 C 0.267774 2.334791 0.281897 0
M  V30 12 C 0.480705 3.342226 -0.602719 0
M  V30 13 C -0.576522 3.949147 -1.290150 0
M  V30 14 C -1.847264 3.462199 -1.014679 0
M  V30 15 C -2.102818 2.439151 -0.121385 0
M  V30 16 C -3.528822 2.057812 0.040011 0
M  V30 17 N -3.914529 1.033747 -0.894786 0
M  V30 18 C -3.588490 -0.322135 -0.783683 0
M  V30 19 O -2.912321 -0.800536 0.160680 0
M  V30 20 C -4.050042 -1.233851 -1.806695 0
M  V30 21 C -4.772955 -1.036912 -2.912837 0
M  V30 22 C -5.081555 -2.091613 -3.732878 0
M  V30 23 C -4.591780 -3.344682 -3.325473 0
M  V30 24 C -4.710519 -4.672082 -3.920051 0
M  V30 25 C -4.100465 -5.699965 -3.237191 0
M  V30 26 C -4.228587 -6.948988 -3.823809 0
M  V30 27 C -4.935888 -7.052618 -5.007666 0
M  V30 28 N -5.498015 -6.004087 -5.606289 0
M  V30 29 C -5.406508 -4.757892 -5.079966 0
M  V30 30 S -3.714509 -2.978590 -1.798294 0
M  V30 31 C -1.014604 1.887207 0.520346 0
M  V30 32 S 4.275752 -0.441949 1.351000 0
M  V30 33 C 5.013672 -0.632515 3.062923 0
M  V30 34 C 5.831620 -1.611894 3.784214 0
M  V30 35 H 6.136256 -1.943884 7.051384 0
M  V30 36 H 7.273229 -1.897017 5.655927 0
M  V30 37 H 6.323319 -3.444301 6.055625 0
M  V30 38 H 3.487609 -0.929864 5.263004 0
M  V30 39 H 4.613006 -0.863314 6.732524 0
M  V30 40 H 4.775272 1.322313 5.674885 0
M  V30 41 H 6.214735 0.400006 5.041077 0
M  V30 42 H 2.974400 2.785259 0.251288 0
M  V30 43 H 1.465750 3.694569 -0.793480 0
M  V30 44 H -0.396501 4.751842 -1.993447 0
M  V30 45 H -2.636783 3.955651 -1.565016 0
M  V30 46 H -3.617525 1.703424 1.104258 0
M  V30 47 H -4.189320 2.942606 -0.023804 0
M  V30 48 H -4.491809 1.358218 -1.726442 0
M  V30 49 H -5.107984 -0.036420 -3.148274 0
M  V30 50 H -5.654116 -2.064849 -4.648871 0
M  V30 51 H -3.556672 -5.572112 -2.313211 0
M  V30 52 H -3.796191 -7.836349 -3.387119 0
M  V30 53 H -5.088538 -7.985661 -5.538706 0
M  V30 54 H -5.857141 -3.885153 -5.550790 0
M  V30 55 H -1.234648 1.090234 1.216394 0
M  V30 56 H 6.844426 -1.189655 3.925064 0
M  V30 57 H 5.942821 -2.565110 3.234958 0
M  V30 END ATOM
M  V30 BEGIN BOND
M  V30 1 1 1 2
M  V30 2 1 2 3
M  V30 3 1 3 4
M  V30 4 1 4 5
M  V30 5 1 5 6
M  V30 6 2 6 7
M  V30 7 1 7 8
M  V30 8 1 8 9
M  V30 9 2 9 10
M  V30 10 1 9 11
M  V30 11 2 11 12
M  V30 12 1 12 13
M  V30 13 2 13 14
M  V30 14 1 14 15
M  V30 15 1 15 16
M  V30 16 1 16 17
M  V30 17 1 17 18
M  V30 18 2 18 19
M  V30 19 1 18 20
M  V30 20 2 20 21
M  V30 21 1 21 22
M  V30 22 2 22 23
M  V30 23 1 23 24
M  V30 24 2 24 25
M  V30 25 1 25 26
M  V30 26 2 26 27
M  V30 27 1 27 28
M  V30 28 2 28 29
M  V30 29 1 23 30
M  V30 30 2 15 31
M  V30 31 1 7 32
M  V30 32 1 32 33
M  V30 33 1 33 34
M  V30 34 1 34 2
M  V30 35 2 33 5
M  V30 36 1 31 11
M  V30 37 1 30 20
M  V30 38 1 29 24
M  V30 39 1 1 35
M  V30 40 1 1 36
M  V30 41 1 1 37
M  V30 42 1 3 38
M  V30 43 1 3 39
M  V30 44 1 4 40
M  V30 45 1 4 41
M  V30 46 1 8 42
M  V30 47 1 12 43
M  V30 48 1 13 44
M  V30 49 1 14 45
M  V30 50 1 16 46
M  V30 51 1 16 47
M  V30 52 1 17 48
M  V30 53 1 21 49
M  V30 54 1 22 50
M  V30 55 1 25 51
M  V30 56 1 26 52
M  V30 57 1 27 53
M  V30 58 1 29 54
M  V30 59 1 31 55
M  V30 60 1 34 56
M  V30 61 1 34 57
M  V30 END BOND
M  V30 END CTAB
M  END
>  <Dataset>  (322) 
ChEMBL_Kinases

>  <Ligand_Instance>  (322) 
nan

>  <PDB_ID>  (322) 
nan

>  <Standardized_SMILES>  (322) 
CN1CCc2nc(NC(=O)c3cccc(CNC(=O)c4ccc(-c5cccnc5)s4)c3)sc2C1

>  <Name>  (322) 
nan

>  <Pocket>  (322) 
nan

>  <ATP_Site>  (322) 
nan

>  <Peripheral>  (322) 
nan

>  <Num_H_Atoms_ProtBoundConf>  (322) 
nan

>  <Num_Resolved_Atoms>  (322) 
nan

>  <Num_Not_Resolved_Atoms>  (322) 
nan

$$$$
CHEMBL3680753
     RDKit          3D

  0  0  0  0  0  0  0  0  0  0999 V3000
M  V30 BEGIN CTAB
M  V30 COUNTS 62 66 0 0 0
M  V30 BEGIN ATOM
M  V30 1 C 6.508009 -0.960835 4.918048 0
M  V30 2 N 6.364749 0.341648 4.318072 0
M  V30 3 C 7.549635 0.568620 3.511632 0
M  V30 4 C 5.205174 0.441355 3.479237 0 CFG=1
M  V30 5 C 3.912865 0.199848 4.210011 0
M  V30 6 C 2.841769 1.193553 3.825014 0
M  V30 7 C 2.744118 1.352712 2.329517 0
M  V30 8 N 1.673783 1.214573 1.592037 0
M  V30 9 C 1.884550 1.420026 0.254290 0
M  V30 10 N 0.796477 1.306448 -0.728922 0
M  V30 11 C -0.060553 2.337803 -1.168279 0
M  V30 12 O 0.004265 3.517115 -0.759990 0
M  V30 13 C -1.080344 2.002538 -2.157666 0
M  V30 14 C -1.892924 3.037271 -2.577434 0
M  V30 15 C -2.896190 2.801549 -3.522818 0
M  V30 16 C -3.089424 1.550848 -4.044978 0
M  V30 17 C -2.285947 0.501973 -3.636841 0
M  V30 18 C -2.391987 -0.919652 -4.124647 0
M  V30 19 N -3.280302 -1.645728 -3.262070 0
M  V30 20 C -4.698808 -1.609261 -3.203687 0
M  V30 21 O -5.309623 -0.850677 -3.999548 0
M  V30 22 C -5.475232 -2.426418 -2.246227 0
M  V30 23 C -6.896662 -2.299524 -2.283613 0
M  V30 24 S -7.375225 -3.455687 -0.973357 0
M  V30 25 C -5.572165 -3.909402 -0.603218 0
M  V30 26 C -5.382153 -4.909427 0.486512 0
M  V30 27 C -6.397143 -5.496352 1.209501 0
M  V30 28 C -5.987303 -6.400704 2.175986 0
M  V30 29 C -4.637719 -6.683466 2.386785 0
M  V30 30 N -3.691493 -6.059878 1.628489 0
M  V30 31 C -4.044744 -5.174704 0.678966 0
M  V30 32 N -4.979882 -3.267409 -1.354279 0
M  V30 33 C -1.288575 0.750828 -2.693082 0
M  V30 34 S 3.701985 1.823275 0.104437 0
M  V30 35 C 4.005157 1.681290 1.818447 0
M  V30 36 C 5.143822 1.805215 2.775922 0
M  V30 37 H 7.581504 -1.276823 4.949022 0
M  V30 38 H 5.993190 -1.759649 4.327866 0
M  V30 39 H 6.100958 -0.989951 5.949397 0
M  V30 40 H 7.293029 0.275487 2.467613 0
M  V30 41 H 8.435734 0.015549 3.880626 0
M  V30 42 H 7.725811 1.680759 3.526803 0
M  V30 43 H 5.260499 -0.287402 2.644488 0
M  V30 44 H 3.529104 -0.809863 3.966094 0
M  V30 45 H 4.036212 0.284084 5.302028 0
M  V30 46 H 3.074372 2.199013 4.223049 0
M  V30 47 H 1.889853 0.880675 4.285570 0
M  V30 48 H 0.806005 0.311282 -1.018872 0
M  V30 49 H -1.832551 4.066889 -2.233998 0
M  V30 50 H -3.564165 3.567077 -3.892567 0
M  V30 51 H -3.845134 1.329234 -4.771977 0
M  V30 52 H -1.399111 -1.375925 -4.091771 0
M  V30 53 H -2.750835 -0.929533 -5.173801 0
M  V30 54 H -2.872158 -2.316172 -2.550730 0
M  V30 55 H -7.557109 -1.743305 -2.849568 0
M  V30 56 H -7.396367 -5.213092 0.972471 0
M  V30 57 H -6.763891 -6.876682 2.758748 0
M  V30 58 H -4.325031 -7.387178 3.139250 0
M  V30 59 H -3.230878 -4.727850 0.125090 0
M  V30 60 H -0.655991 -0.052706 -2.365943 0
M  V30 61 H 6.062330 1.946647 2.209073 0
M  V30 62 H 4.981478 2.587831 3.543504 0
M  V30 END ATOM
M  V30 BEGIN BOND
M  V30 1 1 1 2
M  V30 2 1 2 3
M  V30 3 1 2 4
M  V30 4 1 4 5
M  V30 5 1 5 6
M  V30 6 1 6 7
M  V30 7 1 7 8
M  V30 8 2 8 9
M  V30 9 1 9 10
M  V30 10 1 10 11
M  V30 11 2 11 12
M  V30 12 1 11 13
M  V30 13 2 13 14
M  V30 14 1 14 15
M  V30 15 2 15 16
M  V30 16 1 16 17
M  V30 17 1 17 18
M  V30 18 1 18 19
M  V30 19 1 19 20
M  V30 20 2 20 21
M  V30 21 1 20 22
M  V30 22 2 22 23
M  V30 23 1 23 24
M  V30 24 1 24 25
M  V30 25 1 25 26
M  V30 26 2 26 27
M  V30 27 1 27 28
M  V30 28 2 28 29
M  V30 29 1 29 30
M  V30 30 2 30 31
M  V30 31 2 25 32
M  V30 32 2 17 33
M  V30 33 1 9 34
M  V30 34 1 34 35
M  V30 35 1 35 36
M  V30 36 1 36 4
M  V30 37 2 35 7
M  V30 38 1 33 13
M  V30 39 1 32 22
M  V30 40 1 31 26
M  V30 41 1 1 37
M  V30 42 1 1 38
M  V30 43 1 1 39
M  V30 44 1 3 40
M  V30 45 1 3 41
M  V30 46 1 3 42
M  V30 47 1 4 43 CFG=3
M  V30 48 1 5 44
M  V30 49 1 5 45
M  V30 50 1 6 46
M  V30 51 1 6 47
M  V30 52 1 10 48
M  V30 53 1 14 49
M  V30 54 1 15 50
M  V30 55 1 16 51
M  V30 56 1 18 52
M  V30 57 1 18 53
M  V30 58 1 19 54
M  V30 59 1 23 55
M  V30 60 1 27 56
M  V30 61 1 28 57
M  V30 62 1 29 58
M  V30 63 1 31 59
M  V30 64 1 33 60
M  V30 65 1 36 61
M  V30 66 1 36 62
M  V30 END BOND
M  V30 END CTAB
M  END
>  <Dataset>  (323) 
ChEMBL_Kinases

>  <Ligand_Instance>  (323) 
nan

>  <PDB_ID>  (323) 
nan

>  <Standardized_SMILES>  (323) 
CN(C)[C@H]1CCc2nc(NC(=O)c3cccc(CNC(=O)c4csc(-c5cccnc5)n4)c3)sc2C1

>  <Name>  (323) 
nan

>  <Pocket>  (323) 
nan

>  <ATP_Site>  (323) 
nan

>  <Peripheral>  (323) 
nan

>  <Num_H_Atoms_ProtBoundConf>  (323) 
nan

>  <Num_Resolved_Atoms>  (323) 
nan

>  <Num_Not_Resolved_Atoms>  (323) 
nan

$$$$
CHEMBL3680752
     RDKit          3D

  0  0  0  0  0  0  0  0  0  0999 V3000
M  V30 BEGIN CTAB
M  V30 COUNTS 66 70 0 0 0
M  V30 BEGIN ATOM
M  V30 1 C 6.451577 -5.054235 4.152837 0
M  V30 2 N 6.939454 -3.676920 4.108532 0
M  V30 3 C 8.282153 -3.732612 3.563407 0
M  V30 4 C 6.034349 -2.946167 3.282189 0 CFG=1
M  V30 5 C 4.653076 -2.992466 3.887788 0
M  V30 6 C 4.037609 -1.621076 4.013054 0
M  V30 7 C 4.177219 -0.809769 2.773614 0
M  V30 8 N 3.245647 -0.154565 2.094269 0
M  V30 9 C 3.514713 0.487367 1.067947 0
M  V30 10 N 2.504490 1.201475 0.320633 0
M  V30 11 C 2.051912 2.519979 0.456530 0
M  V30 12 O 2.491300 3.333363 1.311694 0
M  V30 13 C 1.005110 3.021022 -0.430342 0
M  V30 14 C 0.567389 4.318746 -0.254089 0
M  V30 15 C -0.435005 4.832648 -1.086967 0
M  V30 16 C -0.991952 4.056293 -2.084066 0
M  V30 17 C -0.577476 2.739547 -2.295276 0
M  V30 18 C -1.130172 1.840489 -3.345177 0
M  V30 19 N -2.230759 1.045810 -2.906257 0
M  V30 20 C -3.583131 1.426429 -2.695171 0
M  V30 21 O -3.823385 2.657458 -2.938842 0
M  V30 22 C -4.637170 0.528231 -2.241927 0
M  V30 23 C -4.498220 -0.815546 -1.961815 0
M  V30 24 C -5.516880 -1.638498 -1.534042 0
M  V30 25 C -6.797522 -1.090715 -1.364081 0
M  V30 26 C -7.891722 -1.945691 -0.912875 0
M  V30 27 C -7.579875 -3.006070 -0.053639 0
M  V30 28 C -8.630390 -3.797362 0.357545 0
M  V30 29 N -9.905410 -3.610144 -0.012808 0
M  V30 30 C -10.202579 -2.584694 -0.842920 0
M  V30 31 C -9.215677 -1.730915 -1.312781 0
M  V30 32 C -6.937972 0.254448 -1.644021 0
M  V30 33 C -5.903939 1.061045 -2.071690 0
M  V30 34 C 0.410787 2.297950 -1.441426 0
M  V30 35 S 5.269196 0.310177 0.793031 0
M  V30 36 C 5.530997 -0.751273 2.273847 0
M  V30 37 C 6.518859 -1.525443 3.096111 0
M  V30 38 H 5.357205 -5.132671 4.057224 0
M  V30 39 H 6.824282 -5.605132 5.050594 0
M  V30 40 H 6.872970 -5.550539 3.235796 0
M  V30 41 H 8.927386 -2.901434 3.880777 0
M  V30 42 H 8.200696 -3.774871 2.437784 0
M  V30 43 H 8.737242 -4.692599 3.918341 0
M  V30 44 H 5.968865 -3.397655 2.265095 0
M  V30 45 H 3.970820 -3.619719 3.284994 0
M  V30 46 H 4.663727 -3.427188 4.914247 0
M  V30 47 H 4.609244 -1.108153 4.825631 0
M  V30 48 H 2.977191 -1.770772 4.281209 0
M  V30 49 H 2.158265 0.508390 -0.377405 0
M  V30 50 H 0.946604 5.001850 0.501532 0
M  V30 51 H -0.772587 5.849673 -0.943240 0
M  V30 52 H -1.764901 4.448786 -2.730937 0
M  V30 53 H -0.302542 1.175415 -3.660351 0
M  V30 54 H -1.377062 2.432058 -4.275323 0
M  V30 55 H -2.065703 0.015465 -2.693880 0
M  V30 56 H -3.522757 -1.244679 -2.088872 0
M  V30 57 H -5.331004 -2.674370 -1.336236 0
M  V30 58 H -6.544774 -3.173438 0.258650 0
M  V30 59 H -8.437632 -4.623677 1.018324 0
M  V30 60 H -11.220654 -2.356353 -1.197713 0
M  V30 61 H -9.401964 -0.909950 -1.967802 0
M  V30 62 H -7.941475 0.668747 -1.507284 0
M  V30 63 H -6.081385 2.121087 -2.276975 0
M  V30 64 H 0.737775 1.282208 -1.596586 0
M  V30 65 H 6.719960 -0.980730 4.014342 0
M  V30 66 H 7.452390 -1.582369 2.502482 0
M  V30 END ATOM
M  V30 BEGIN BOND
M  V30 1 1 1 2
M  V30 2 1 2 3
M  V30 3 1 2 4
M  V30 4 1 4 5
M  V30 5 1 5 6
M  V30 6 1 6 7
M  V30 7 1 7 8
M  V30 8 2 8 9
M  V30 9 1 9 10
M  V30 10 1 10 11
M  V30 11 2 11 12
M  V30 12 1 11 13
M  V30 13 2 13 14
M  V30 14 1 14 15
M  V30 15 2 15 16
M  V30 16 1 16 17
M  V30 17 1 17 18
M  V30 18 1 18 19
M  V30 19 1 19 20
M  V30 20 2 20 21
M  V30 21 1 20 22
M  V30 22 2 22 23
M  V30 23 1 23 24
M  V30 24 2 24 25
M  V30 25 1 25 26
M  V30 26 2 26 27
M  V30 27 1 27 28
M  V30 28 2 28 29
M  V30 29 1 29 30
M  V30 30 2 30 31
M  V30 31 1 25 32
M  V30 32 2 32 33
M  V30 33 2 17 34
M  V30 34 1 9 35
M  V30 35 1 35 36
M  V30 36 1 36 37
M  V30 37 1 37 4
M  V30 38 2 36 7
M  V30 39 1 34 13
M  V30 40 1 33 22
M  V30 41 1 31 26
M  V30 42 1 1 38
M  V30 43 1 1 39
M  V30 44 1 1 40
M  V30 45 1 3 41
M  V30 46 1 3 42
M  V30 47 1 3 43
M  V30 48 1 4 44 CFG=3
M  V30 49 1 5 45
M  V30 50 1 5 46
M  V30 51 1 6 47
M  V30 52 1 6 48
M  V30 53 1 10 49
M  V30 54 1 14 50
M  V30 55 1 15 51
M  V30 56 1 16 52
M  V30 57 1 18 53
M  V30 58 1 18 54
M  V30 59 1 19 55
M  V30 60 1 23 56
M  V30 61 1 24 57
M  V30 62 1 27 58
M  V30 63 1 28 59
M  V30 64 1 30 60
M  V30 65 1 31 61
M  V30 66 1 32 62
M  V30 67 1 33 63
M  V30 68 1 34 64
M  V30 69 1 37 65
M  V30 70 1 37 66
M  V30 END BOND
M  V30 END CTAB
M  END
>  <Dataset>  (324) 
ChEMBL_Kinases

>  <Ligand_Instance>  (324) 
nan

>  <PDB_ID>  (324) 
nan

>  <Standardized_SMILES>  (324) 
CN(C)[C@H]1CCc2nc(NC(=O)c3cccc(CNC(=O)c4ccc(-c5ccncc5)cc4)c3)sc2C1

>  <Name>  (324) 
nan

>  <Pocket>  (324) 
nan

>  <ATP_Site>  (324) 
nan

>  <Peripheral>  (324) 
nan

>  <Num_H_Atoms_ProtBoundConf>  (324) 
nan

>  <Num_Resolved_Atoms>  (324) 
nan

>  <Num_Not_Resolved_Atoms>  (324) 
nan

$$$$
CHEMBL3680751
     RDKit          3D

  0  0  0  0  0  0  0  0  0  0999 V3000
M  V30 BEGIN CTAB
M  V30 COUNTS 65 69 0 0 0
M  V30 BEGIN ATOM
M  V30 1 C 5.402784 0.536571 4.991555 0
M  V30 2 C 6.236456 1.708469 4.592289 0
M  V30 3 N 7.582472 1.642150 4.694141 0
M  V30 4 N 8.045794 2.800790 4.279071 0
M  V30 5 N 7.032730 3.573430 3.927088 0
M  V30 6 N 5.894685 2.922391 4.110383 0
M  V30 7 C 4.510406 3.193260 3.928162 0
M  V30 8 C 4.021554 2.901399 2.671757 0
M  V30 9 C 2.695697 3.114720 2.356145 0
M  V30 10 C 1.784747 3.624790 3.258087 0
M  V30 11 C 0.386599 3.881008 3.020727 0
M  V30 12 O -0.351479 4.354604 3.951093 0
M  V30 13 N -0.263308 3.638339 1.781237 0
M  V30 14 C -1.646183 3.847900 1.412286 0
M  V30 15 C -2.477653 2.756749 1.995966 0
M  V30 16 C -3.111550 2.771683 3.216498 0
M  V30 17 C -3.855116 1.696641 3.655313 0
M  V30 18 C -3.951823 0.584560 2.828939 0
M  V30 19 C -3.337142 0.516658 1.596865 0
M  V30 20 C -3.490855 -0.690746 0.793021 0
M  V30 21 O -4.204224 -1.601074 1.287816 0
M  V30 22 N -2.895783 -0.861461 -0.456823 0
M  V30 23 C -3.060668 -2.081188 -1.251584 0
M  V30 24 N -2.268501 -2.966526 -1.079363 0
M  V30 25 C -2.267716 -4.125178 -1.706441 0
M  V30 26 C -3.278732 -4.331299 -2.650063 0
M  V30 27 S -4.195881 -2.703546 -2.522656 0
M  V30 28 C -3.331112 -5.602120 -3.390706 0
M  V30 29 C -1.981081 -5.975445 -3.963213 0 CFG=1
M  V30 30 N -1.831228 -5.539195 -5.323711 0
M  V30 31 C -1.944853 -4.116503 -5.486209 0
M  V30 32 C -0.596364 -5.959743 -5.921862 0
M  V30 33 C -0.849031 -5.473603 -3.088799 0
M  V30 34 C -1.428722 -5.374774 -1.691989 0
M  V30 35 C -2.610479 1.628923 1.224018 0
M  V30 36 C 2.312837 3.907127 4.514050 0
M  V30 37 C 3.632271 3.705448 4.860492 0
M  V30 38 H 5.485877 0.407188 6.100111 0
M  V30 39 H 5.632683 -0.366330 4.423734 0
M  V30 40 H 4.332104 0.820355 4.824998 0
M  V30 41 H 4.661941 2.490214 1.876679 0
M  V30 42 H 2.346290 2.881354 1.381921 0
M  V30 43 H 0.388677 3.250841 1.056356 0
M  V30 44 H -1.956659 4.812755 1.896116 0
M  V30 45 H -1.715527 3.894914 0.327031 0
M  V30 46 H -2.996476 3.668471 3.807750 0
M  V30 47 H -4.328093 1.773633 4.625794 0
M  V30 48 H -4.542274 -0.231987 3.210904 0
M  V30 49 H -2.305728 -0.128248 -0.883237 0
M  V30 50 H -4.032572 -5.518033 -4.244570 0
M  V30 51 H -3.744685 -6.375049 -2.712887 0
M  V30 52 H -1.920883 -7.082992 -3.950582 0
M  V30 53 H -2.870379 -3.695829 -5.071212 0
M  V30 54 H -1.979682 -3.915936 -6.580845 0
M  V30 55 H -1.017510 -3.589095 -5.128809 0
M  V30 56 H -0.736701 -6.012300 -7.013527 0
M  V30 57 H -0.284351 -6.968518 -5.545329 0
M  V30 58 H 0.213856 -5.203310 -5.725679 0
M  V30 59 H -0.520485 -4.443477 -3.344966 0
M  V30 60 H -0.035772 -6.201368 -3.097315 0
M  V30 61 H -2.079291 -6.244827 -1.466603 0
M  V30 62 H -0.620888 -5.321631 -0.967852 0
M  V30 63 H -2.131610 1.554982 0.245025 0
M  V30 64 H 1.722331 4.312073 5.327305 0
M  V30 65 H 4.045194 3.919132 5.820901 0
M  V30 END ATOM
M  V30 BEGIN BOND
M  V30 1 1 1 2
M  V30 2 2 2 3
M  V30 3 1 3 4
M  V30 4 2 4 5
M  V30 5 1 5 6
M  V30 6 1 6 7
M  V30 7 2 7 8
M  V30 8 1 8 9
M  V30 9 2 9 10
M  V30 10 1 10 11
M  V30 11 2 11 12
M  V30 12 1 11 13
M  V30 13 1 13 14
M  V30 14 1 14 15
M  V30 15 2 15 16
M  V30 16 1 16 17
M  V30 17 2 17 18
M  V30 18 1 18 19
M  V30 19 1 19 20
M  V30 20 2 20 21
M  V30 21 1 20 22
M  V30 22 1 22 23
M  V30 23 2 23 24
M  V30 24 1 24 25
M  V30 25 2 25 26
M  V30 26 1 26 27
M  V30 27 1 26 28
M  V30 28 1 28 29
M  V30 29 1 29 30
M  V30 30 1 30 31
M  V30 31 1 30 32
M  V30 32 1 29 33
M  V30 33 1 33 34
M  V30 34 2 19 35
M  V30 35 1 10 36
M  V30 36 2 36 37
M  V30 37 1 6 2
M  V30 38 1 37 7
M  V30 39 1 35 15
M  V30 40 1 27 23
M  V30 41 1 34 25
M  V30 42 1 1 38
M  V30 43 1 1 39
M  V30 44 1 1 40
M  V30 45 1 8 41
M  V30 46 1 9 42
M  V30 47 1 13 43
M  V30 48 1 14 44
M  V30 49 1 14 45
M  V30 50 1 16 46
M  V30 51 1 17 47
M  V30 52 1 18 48
M  V30 53 1 22 49
M  V30 54 1 28 50
M  V30 55 1 28 51
M  V30 56 1 29 52 CFG=3
M  V30 57 1 31 53
M  V30 58 1 31 54
M  V30 59 1 31 55
M  V30 60 1 32 56
M  V30 61 1 32 57
M  V30 62 1 32 58
M  V30 63 1 33 59
M  V30 64 1 33 60
M  V30 65 1 34 61
M  V30 66 1 34 62
M  V30 67 1 35 63
M  V30 68 1 36 64
M  V30 69 1 37 65
M  V30 END BOND
M  V30 END CTAB
M  END
>  <Dataset>  (325) 
ChEMBL_Kinases

>  <Ligand_Instance>  (325) 
nan

>  <PDB_ID>  (325) 
nan

>  <Standardized_SMILES>  (325) 
Cc1nnnn1-c1ccc(C(=O)NCc2cccc(C(=O)Nc3nc4c(s3)C[C@@H](N(C)C)CC4)c2)cc1

>  <Name>  (325) 
nan

>  <Pocket>  (325) 
nan

>  <ATP_Site>  (325) 
nan

>  <Peripheral>  (325) 
nan

>  <Num_H_Atoms_ProtBoundConf>  (325) 
nan

>  <Num_Resolved_Atoms>  (325) 
nan

>  <Num_Not_Resolved_Atoms>  (325) 
nan

$$$$
CHEMBL3680750
     RDKit          3D

  0  0  0  0  0  0  0  0  0  0999 V3000
M  V30 BEGIN CTAB
M  V30 COUNTS 66 70 0 0 0
M  V30 BEGIN ATOM
M  V30 1 C 2.788172 -0.641212 0.646220 0
M  V30 2 C 3.810284 0.102285 1.476265 0
M  V30 3 N 4.058130 1.396841 0.889310 0
M  V30 4 C 3.313514 2.462370 1.197257 0
M  V30 5 C 2.153030 2.809380 1.979126 0
M  V30 6 O 1.766700 4.011765 2.181701 0
M  V30 7 N 1.240417 1.988889 2.648841 0
M  V30 8 C 0.076736 2.337566 3.433780 0
M  V30 9 C -1.031500 2.670354 2.500263 0
M  V30 10 C -1.428849 3.882040 1.982543 0
M  V30 11 C -2.496197 3.948596 1.114342 0
M  V30 12 C -3.212484 2.816451 0.725035 0
M  V30 13 C -2.816227 1.586790 1.245438 0
M  V30 14 C -3.608867 0.453443 0.793741 0
M  V30 15 O -4.552797 0.626991 -0.003523 0
M  V30 16 N -3.324140 -0.846969 1.246708 0
M  V30 17 C -3.841580 -2.141410 1.044596 0
M  V30 18 C -4.833114 -2.797637 1.745943 0
M  V30 19 C -5.233052 -4.067203 1.435563 0
M  V30 20 C -4.646586 -4.742469 0.392867 0
M  V30 21 C -3.650707 -4.128521 -0.338626 0
M  V30 22 C -3.246596 -2.831547 -0.016602 0
M  V30 23 C -3.059687 -4.917800 -1.451695 0
M  V30 24 N -2.713860 -6.241418 -0.976022 0
M  V30 25 C -2.101520 -6.965275 -2.058345 0
M  V30 26 C -3.798506 -6.946491 -0.371297 0
M  V30 27 C -5.000439 -6.126482 -0.031713 0
M  V30 28 C -1.748217 1.551036 2.108788 0
M  V30 29 C 3.902515 3.492389 0.453903 0
M  V30 30 C 4.962035 2.993172 -0.257625 0
M  V30 31 C 5.900164 3.485895 -1.137745 0
M  V30 32 C 6.878136 2.698896 -1.708285 0
M  V30 33 C 7.844548 3.236226 -2.622830 0
M  V30 34 N 8.623691 3.683010 -3.374306 0
M  V30 35 C 6.941691 1.350525 -1.399312 0
M  V30 36 C 6.014828 0.831935 -0.521355 0
M  V30 37 C 5.052265 1.649183 0.028716 0
M  V30 38 H 3.246252 -1.396988 -0.021990 0
M  V30 39 H 2.039533 -1.068308 1.348893 0
M  V30 40 H 2.226697 0.114558 0.057521 0
M  V30 41 H 4.786507 -0.469212 1.486545 0
M  V30 42 H 3.524662 0.245912 2.530528 0
M  V30 43 H 1.372463 0.955740 2.588577 0
M  V30 44 H 0.274104 3.227384 4.079320 0
M  V30 45 H -0.206883 1.538235 4.142212 0
M  V30 46 H -0.841366 4.718827 2.324413 0
M  V30 47 H -2.754376 4.948906 0.742552 0
M  V30 48 H -4.030225 2.962911 0.043962 0
M  V30 49 H -2.562821 -1.093961 1.910996 0
M  V30 50 H -5.256936 -2.228515 2.547096 0
M  V30 51 H -6.011263 -4.566700 1.994874 0
M  V30 52 H -2.452244 -2.402688 -0.636262 0
M  V30 53 H -3.783349 -4.989384 -2.311009 0
M  V30 54 H -2.139954 -4.430691 -1.788316 0
M  V30 55 H -1.473061 -6.280969 -2.659282 0
M  V30 56 H -2.871452 -7.431586 -2.734689 0
M  V30 57 H -1.393907 -7.746690 -1.681588 0
M  V30 58 H -3.415210 -7.412073 0.573497 0
M  V30 59 H -4.152835 -7.809091 -0.995657 0
M  V30 60 H -5.774813 -6.130931 -0.825609 0
M  V30 61 H -5.497421 -6.611608 0.859488 0
M  V30 62 H -1.532889 0.550631 2.445836 0
M  V30 63 H 3.677129 4.544765 0.353723 0
M  V30 64 H 5.847571 4.539356 -1.376392 0
M  V30 65 H 7.693977 0.693840 -1.824546 0
M  V30 66 H 6.036961 -0.217567 -0.259121 0
M  V30 END ATOM
M  V30 BEGIN BOND
M  V30 1 1 1 2
M  V30 2 1 2 3
M  V30 3 1 3 4
M  V30 4 1 4 5
M  V30 5 2 5 6
M  V30 6 1 5 7
M  V30 7 1 7 8
M  V30 8 1 8 9
M  V30 9 2 9 10
M  V30 10 1 10 11
M  V30 11 2 11 12
M  V30 12 1 12 13
M  V30 13 1 13 14
M  V30 14 2 14 15
M  V30 15 1 14 16
M  V30 16 1 16 17
M  V30 17 2 17 18
M  V30 18 1 18 19
M  V30 19 2 19 20
M  V30 20 1 20 21
M  V30 21 2 21 22
M  V30 22 1 21 23
M  V30 23 1 23 24
M  V30 24 1 24 25
M  V30 25 1 24 26
M  V30 26 1 26 27
M  V30 27 2 13 28
M  V30 28 2 4 29
M  V30 29 1 29 30
M  V30 30 2 30 31
M  V30 31 1 31 32
M  V30 32 1 32 33
M  V30 33 3 33 34
M  V30 34 2 32 35
M  V30 35 1 35 36
M  V30 36 2 36 37
M  V30 37 1 37 3
M  V30 38 1 28 9
M  V30 39 1 37 30
M  V30 40 1 22 17
M  V30 41 1 27 20
M  V30 42 1 1 38
M  V30 43 1 1 39
M  V30 44 1 1 40
M  V30 45 1 2 41
M  V30 46 1 2 42
M  V30 47 1 7 43
M  V30 48 1 8 44
M  V30 49 1 8 45
M  V30 50 1 10 46
M  V30 51 1 11 47
M  V30 52 1 12 48
M  V30 53 1 16 49
M  V30 54 1 18 50
M  V30 55 1 19 51
M  V30 56 1 22 52
M  V30 57 1 23 53
M  V30 58 1 23 54
M  V30 59 1 25 55
M  V30 60 1 25 56
M  V30 61 1 25 57
M  V30 62 1 26 58
M  V30 63 1 26 59
M  V30 64 1 27 60
M  V30 65 1 27 61
M  V30 66 1 28 62
M  V30 67 1 29 63
M  V30 68 1 31 64
M  V30 69 1 35 65
M  V30 70 1 36 66
M  V30 END BOND
M  V30 END CTAB
M  END
>  <Dataset>  (326) 
ChEMBL_Kinases

>  <Ligand_Instance>  (326) 
nan

>  <PDB_ID>  (326) 
nan

>  <Standardized_SMILES>  (326) 
CCn1c(C(=O)NCc2cccc(C(=O)Nc3ccc4c(c3)CN(C)CC4)c2)cc2cc(C#N)ccc21

>  <Name>  (326) 
nan

>  <Pocket>  (326) 
nan

>  <ATP_Site>  (326) 
nan

>  <Peripheral>  (326) 
nan

>  <Num_H_Atoms_ProtBoundConf>  (326) 
nan

>  <Num_Resolved_Atoms>  (326) 
nan

>  <Num_Not_Resolved_Atoms>  (326) 
nan

$$$$
CHEMBL3680749
     RDKit          3D

  0  0  0  0  0  0  0  0  0  0999 V3000
M  V30 BEGIN CTAB
M  V30 COUNTS 61 65 0 0 0
M  V30 BEGIN ATOM
M  V30 1 C 4.683438 -1.215756 7.348161 0
M  V30 2 N 5.433566 -0.712404 6.207383 0
M  V30 3 C 6.033085 -1.815940 5.508787 0
M  V30 4 C 4.674984 0.180380 5.389599 0 CFG=1
M  V30 5 C 5.513141 0.663827 4.206165 0
M  V30 6 C 4.795145 1.815945 3.586713 0
M  V30 7 C 3.536558 1.310681 2.974726 0
M  V30 8 N 2.897047 1.741599 1.881439 0
M  V30 9 C 1.928059 1.337243 1.430508 0
M  V30 10 N 0.904173 1.430057 0.362318 0
M  V30 11 C -0.248930 2.239388 0.479618 0
M  V30 12 O -0.511240 2.948010 1.485482 0
M  V30 13 C -1.217875 2.281574 -0.610917 0
M  V30 14 C -2.339216 3.089200 -0.465551 0
M  V30 15 C -3.286405 3.150550 -1.488820 0
M  V30 16 C -3.112081 2.411138 -2.644065 0
M  V30 17 C -2.004268 1.594112 -2.822650 0
M  V30 18 C -1.777702 0.780220 -4.042382 0
M  V30 19 N -2.349447 -0.550619 -3.902987 0
M  V30 20 C -3.727698 -0.875086 -4.005213 0
M  V30 21 O -4.628518 -0.029857 -4.233808 0
M  V30 22 C -4.136968 -2.272089 -3.836485 0
M  V30 23 C -5.424035 -2.777635 -3.899572 0
M  V30 24 N -5.352979 -4.109047 -3.687338 0
M  V30 25 C -6.284052 -5.106403 -3.635856 0
M  V30 26 C -5.892381 -6.404912 -3.393665 0
M  V30 27 C -6.832545 -7.494234 -3.328408 0
M  V30 28 N -7.596093 -8.389298 -3.283184 0
M  V30 29 C -4.555351 -6.757202 -3.193422 0
M  V30 30 C -3.609517 -5.738445 -3.246421 0
M  V30 31 C -4.067478 -4.460799 -3.492846 0
M  V30 32 N -3.336447 -3.331499 -3.586349 0
M  V30 33 C -1.100874 1.571033 -1.781980 0
M  V30 34 S 1.492878 -0.087222 2.645304 0
M  V30 35 C 2.980603 0.264662 3.644391 0
M  V30 36 C 3.406320 -0.439582 4.849239 0
M  V30 37 H 4.451938 -2.303865 7.254932 0
M  V30 38 H 3.763722 -0.607226 7.501989 0
M  V30 39 H 5.303080 -1.098023 8.271343 0
M  V30 40 H 6.564557 -1.490716 4.593766 0
M  V30 41 H 6.785038 -2.291779 6.199027 0
M  V30 42 H 5.289899 -2.640074 5.311575 0
M  V30 43 H 4.457661 1.085726 6.009063 0
M  V30 44 H 6.521435 0.934070 4.570073 0
M  V30 45 H 5.593250 -0.122266 3.420757 0
M  V30 46 H 5.441475 2.377197 2.879469 0
M  V30 47 H 4.569656 2.556867 4.405763 0
M  V30 48 H 1.143367 0.847357 -0.438839 0
M  V30 49 H -2.521374 3.691508 0.427674 0
M  V30 50 H -4.171665 3.789090 -1.371742 0
M  V30 51 H -3.859662 2.473509 -3.427397 0
M  V30 52 H -2.392987 1.266252 -4.858653 0
M  V30 53 H -0.750242 0.756506 -4.399014 0
M  V30 54 H -1.650546 -1.299343 -3.712533 0
M  V30 55 H -6.343899 -2.233279 -4.083565 0
M  V30 56 H -7.339723 -4.881969 -3.785556 0
M  V30 57 H -4.204460 -7.761879 -3.000808 0
M  V30 58 H -2.560362 -5.954091 -3.098663 0
M  V30 59 H -0.240006 0.934481 -1.924204 0
M  V30 60 H 2.660355 -0.426247 5.673521 0
M  V30 61 H 3.574780 -1.504011 4.599540 0
M  V30 END ATOM
M  V30 BEGIN BOND
M  V30 1 1 1 2
M  V30 2 1 2 3
M  V30 3 1 2 4
M  V30 4 1 4 5
M  V30 5 1 5 6
M  V30 6 1 6 7
M  V30 7 1 7 8
M  V30 8 2 8 9
M  V30 9 1 9 10
M  V30 10 1 10 11
M  V30 11 2 11 12
M  V30 12 1 11 13
M  V30 13 2 13 14
M  V30 14 1 14 15
M  V30 15 2 15 16
M  V30 16 1 16 17
M  V30 17 1 17 18
M  V30 18 1 18 19
M  V30 19 1 19 20
M  V30 20 2 20 21
M  V30 21 1 20 22
M  V30 22 2 22 23
M  V30 23 1 23 24
M  V30 24 1 24 25
M  V30 25 2 25 26
M  V30 26 1 26 27
M  V30 27 3 27 28
M  V30 28 1 26 29
M  V30 29 2 29 30
M  V30 30 1 30 31
M  V30 31 2 31 32
M  V30 32 2 17 33
M  V30 33 1 9 34
M  V30 34 1 34 35
M  V30 35 1 35 36
M  V30 36 1 36 4
M  V30 37 2 35 7
M  V30 38 1 33 13
M  V30 39 1 32 22
M  V30 40 1 31 24
M  V30 41 1 1 37
M  V30 42 1 1 38
M  V30 43 1 1 39
M  V30 44 1 3 40
M  V30 45 1 3 41
M  V30 46 1 3 42
M  V30 47 1 4 43 CFG=1
M  V30 48 1 5 44
M  V30 49 1 5 45
M  V30 50 1 6 46
M  V30 51 1 6 47
M  V30 52 1 10 48
M  V30 53 1 14 49
M  V30 54 1 15 50
M  V30 55 1 16 51
M  V30 56 1 18 52
M  V30 57 1 18 53
M  V30 58 1 19 54
M  V30 59 1 23 55
M  V30 60 1 25 56
M  V30 61 1 29 57
M  V30 62 1 30 58
M  V30 63 1 33 59
M  V30 64 1 36 60
M  V30 65 1 36 61
M  V30 END BOND
M  V30 END CTAB
M  END
>  <Dataset>  (327) 
ChEMBL_Kinases

>  <Ligand_Instance>  (327) 
nan

>  <PDB_ID>  (327) 
nan

>  <Standardized_SMILES>  (327) 
CN(C)[C@H]1CCc2nc(NC(=O)c3cccc(CNC(=O)c4cn5cc(C#N)ccc5n4)c3)sc2C1

>  <Name>  (327) 
nan

>  <Pocket>  (327) 
nan

>  <ATP_Site>  (327) 
nan

>  <Peripheral>  (327) 
nan

>  <Num_H_Atoms_ProtBoundConf>  (327) 
nan

>  <Num_Resolved_Atoms>  (327) 
nan

>  <Num_Not_Resolved_Atoms>  (327) 
nan

$$$$
CHEMBL3680748
     RDKit          3D

  0  0  0  0  0  0  0  0  0  0999 V3000
M  V30 BEGIN CTAB
M  V30 COUNTS 61 65 0 0 0
M  V30 BEGIN ATOM
M  V30 1 C 6.787370 -2.455611 3.679938 0
M  V30 2 N 6.700223 -1.014364 3.531937 0
M  V30 3 C 7.964828 -0.379576 3.851470 0
M  V30 4 C 5.619324 -0.472075 4.356110 0 CFG=1
M  V30 5 C 5.523858 1.006050 4.203037 0
M  V30 6 C 4.106240 1.514190 4.012172 0
M  V30 7 C 3.588092 0.878937 2.748885 0
M  V30 8 N 3.029343 1.302255 1.633667 0
M  V30 9 C 2.675160 0.725041 0.739074 0
M  V30 10 N 2.035655 1.138588 -0.553986 0
M  V30 11 C 0.652898 1.124162 -0.314092 0
M  V30 12 O 0.357136 0.780049 0.878243 0
M  V30 13 C -0.316260 1.480205 -1.370727 0
M  V30 14 C 0.028822 1.841093 -2.675964 0
M  V30 15 C -1.025245 2.137888 -3.512164 0
M  V30 16 C -2.339155 2.085747 -3.099859 0
M  V30 17 C -2.661322 1.721537 -1.786651 0
M  V30 18 C -4.120237 1.719151 -1.513617 0
M  V30 19 N -4.760568 0.457572 -1.771209 0
M  V30 20 C -4.654347 -0.671566 -0.892259 0
M  V30 21 O -3.992195 -0.652140 0.177402 0
M  V30 22 C -5.379481 -1.886421 -1.317374 0
M  V30 23 C -6.145025 -2.136456 -2.414264 0
M  V30 24 N -6.611229 -3.403709 -2.383093 0
M  V30 25 C -7.405601 -4.045518 -3.282008 0
M  V30 26 C -7.749571 -5.364501 -3.019487 0
M  V30 27 C -7.297083 -5.994241 -1.883895 0
M  V30 28 C -7.645837 -7.359768 -1.599741 0
M  V30 29 N -7.925896 -8.445311 -1.390859 0
M  V30 30 C -6.499252 -5.269247 -1.030941 0
M  V30 31 C -6.129403 -3.949718 -1.251393 0
M  V30 32 N -5.381966 -3.043584 -0.595749 0
M  V30 33 C -1.626847 1.427551 -0.956893 0
M  V30 34 S 3.105336 -1.060251 1.273671 0
M  V30 35 C 3.759435 -0.494920 2.815125 0
M  V30 36 C 4.366566 -1.227130 3.973308 0
M  V30 37 H 6.376249 -2.988340 2.797928 0
M  V30 38 H 6.347114 -2.831682 4.620687 0
M  V30 39 H 7.878737 -2.700673 3.709049 0
M  V30 40 H 8.254713 0.347985 3.082594 0
M  V30 41 H 7.971738 0.012705 4.889562 0
M  V30 42 H 8.737968 -1.182208 3.845331 0
M  V30 43 H 5.815354 -0.767941 5.430096 0
M  V30 44 H 5.903658 1.465238 5.161462 0
M  V30 45 H 6.155946 1.444439 3.415663 0
M  V30 46 H 4.155531 2.599962 3.954239 0
M  V30 47 H 3.444405 1.201103 4.848489 0
M  V30 48 H 2.442118 1.392434 -1.460863 0
M  V30 49 H 1.079986 1.854061 -2.906450 0
M  V30 50 H -0.741379 2.420823 -4.536288 0
M  V30 51 H -3.050098 2.347584 -3.879485 0
M  V30 52 H -4.234509 1.891221 -0.402783 0
M  V30 53 H -4.630670 2.534693 -2.057364 0
M  V30 54 H -5.333833 0.381662 -2.659224 0
M  V30 55 H -6.325750 -1.394326 -3.176188 0
M  V30 56 H -7.770533 -3.584434 -4.168901 0
M  V30 57 H -8.379629 -5.911458 -3.709003 0
M  V30 58 H -6.151057 -5.780330 -0.138910 0
M  V30 59 H -1.928777 1.153744 0.044431 0
M  V30 60 H 4.656273 -2.245756 3.647509 0
M  V30 61 H 3.664863 -1.335034 4.826035 0
M  V30 END ATOM
M  V30 BEGIN BOND
M  V30 1 1 1 2
M  V30 2 1 2 3
M  V30 3 1 2 4
M  V30 4 1 4 5
M  V30 5 1 5 6
M  V30 6 1 6 7
M  V30 7 1 7 8
M  V30 8 2 8 9
M  V30 9 1 9 10
M  V30 10 1 10 11
M  V30 11 2 11 12
M  V30 12 1 11 13
M  V30 13 2 13 14
M  V30 14 1 14 15
M  V30 15 2 15 16
M  V30 16 1 16 17
M  V30 17 1 17 18
M  V30 18 1 18 19
M  V30 19 1 19 20
M  V30 20 2 20 21
M  V30 21 1 20 22
M  V30 22 2 22 23
M  V30 23 1 23 24
M  V30 24 1 24 25
M  V30 25 2 25 26
M  V30 26 1 26 27
M  V30 27 1 27 28
M  V30 28 3 28 29
M  V30 29 2 27 30
M  V30 30 1 30 31
M  V30 31 2 31 32
M  V30 32 2 17 33
M  V30 33 1 9 34
M  V30 34 1 34 35
M  V30 35 1 35 36
M  V30 36 1 36 4
M  V30 37 2 35 7
M  V30 38 1 33 13
M  V30 39 1 32 22
M  V30 40 1 31 24
M  V30 41 1 1 37
M  V30 42 1 1 38
M  V30 43 1 1 39
M  V30 44 1 3 40
M  V30 45 1 3 41
M  V30 46 1 3 42
M  V30 47 1 4 43 CFG=1
M  V30 48 1 5 44
M  V30 49 1 5 45
M  V30 50 1 6 46
M  V30 51 1 6 47
M  V30 52 1 10 48
M  V30 53 1 14 49
M  V30 54 1 15 50
M  V30 55 1 16 51
M  V30 56 1 18 52
M  V30 57 1 18 53
M  V30 58 1 19 54
M  V30 59 1 23 55
M  V30 60 1 25 56
M  V30 61 1 26 57
M  V30 62 1 30 58
M  V30 63 1 33 59
M  V30 64 1 36 60
M  V30 65 1 36 61
M  V30 END BOND
M  V30 END CTAB
M  END
>  <Dataset>  (328) 
ChEMBL_Kinases

>  <Ligand_Instance>  (328) 
nan

>  <PDB_ID>  (328) 
nan

>  <Standardized_SMILES>  (328) 
CN(C)[C@H]1CCc2nc(NC(=O)c3cccc(CNC(=O)c4cn5ccc(C#N)cc5n4)c3)sc2C1

>  <Name>  (328) 
nan

>  <Pocket>  (328) 
nan

>  <ATP_Site>  (328) 
nan

>  <Peripheral>  (328) 
nan

>  <Num_H_Atoms_ProtBoundConf>  (328) 
nan

>  <Num_Resolved_Atoms>  (328) 
nan

>  <Num_Not_Resolved_Atoms>  (328) 
nan

$$$$
CHEMBL3680747
     RDKit          3D

  0  0  0  0  0  0  0  0  0  0999 V3000
M  V30 BEGIN CTAB
M  V30 COUNTS 66 70 0 0 0
M  V30 BEGIN ATOM
M  V30 1 C 4.117285 -3.428687 2.490345 0
M  V30 2 N 5.181265 -2.527554 2.840325 0
M  V30 3 C 6.402610 -2.730441 2.138884 0
M  V30 4 C 6.907023 -1.548674 1.358534 0
M  V30 5 C 5.846049 -0.708703 0.804750 0
M  V30 6 C 5.835582 -0.092916 -0.444169 0
M  V30 7 C 4.796098 0.677048 -0.899906 0
M  V30 8 C 3.684945 0.886471 -0.131492 0
M  V30 9 N 2.496110 1.629311 -0.354440 0
M  V30 10 C 2.065682 2.949424 -0.060780 0
M  V30 11 O 2.777554 3.787955 0.531288 0
M  V30 12 C 0.711520 3.327390 -0.478971 0
M  V30 13 C 0.283225 4.536784 0.024431 0
M  V30 14 C -0.991377 5.013612 -0.304249 0
M  V30 15 C -1.731084 4.183713 -1.142431 0
M  V30 16 C -1.325459 2.947982 -1.672414 0
M  V30 17 C -2.303384 2.269758 -2.553271 0
M  V30 18 N -3.201817 1.398158 -1.823004 0
M  V30 19 C -2.876277 0.098359 -1.369316 0
M  V30 20 O -1.687171 -0.230036 -1.680397 0
M  V30 21 C -3.675336 -0.865182 -0.635364 0
M  V30 22 C -3.136076 -2.128864 -0.395646 0
M  V30 23 C -4.109858 -2.829683 0.317517 0
M  V30 24 C -4.197311 -4.096359 0.840024 0
M  V30 25 C -5.294679 -4.584716 1.523751 0
M  V30 26 C -5.374205 -5.936429 2.071001 0
M  V30 27 N -4.228162 -6.736673 1.849452 0
M  V30 28 O -6.364116 -6.387952 2.693962 0
M  V30 29 C -6.368168 -3.729997 1.685976 0
M  V30 30 C -6.332465 -2.450068 1.182603 0
M  V30 31 C -5.198465 -2.017939 0.502770 0
M  V30 32 N -4.900024 -0.822586 -0.092456 0
M  V30 33 C -5.776400 0.309569 -0.122204 0
M  V30 34 C -0.066030 2.557203 -1.300238 0
M  V30 35 C 3.637500 0.288646 1.143375 0
M  V30 36 C 4.721444 -0.483883 1.558769 0
M  V30 37 C 4.793490 -1.157583 2.905685 0
M  V30 38 H 4.352469 -3.994261 1.557417 0
M  V30 39 H 3.891242 -4.103933 3.340089 0
M  V30 40 H 3.182713 -2.826635 2.343331 0
M  V30 41 H 6.268066 -3.599257 1.454553 0
M  V30 42 H 7.161950 -3.057619 2.908570 0
M  V30 43 H 7.542126 -0.932310 2.040361 0
M  V30 44 H 7.601645 -1.956982 0.575632 0
M  V30 45 H 6.700925 -0.236944 -1.080556 0
M  V30 46 H 4.749996 1.161996 -1.840556 0
M  V30 47 H 1.942692 0.889669 -0.839994 0
M  V30 48 H 0.850523 5.196500 0.684148 0
M  V30 49 H -1.405193 5.946088 0.043426 0
M  V30 50 H -2.731291 4.571553 -1.392088 0
M  V30 51 H -2.957614 3.070210 -3.013950 0
M  V30 52 H -1.802268 1.679348 -3.353674 0
M  V30 53 H -4.166712 1.711426 -1.596011 0
M  V30 54 H -2.210215 -2.637472 -0.622428 0
M  V30 55 H -3.349402 -4.773701 0.712194 0
M  V30 56 H -3.387536 -7.348194 1.792306 0
M  V30 57 H -3.712183 -6.915311 0.938903 0
M  V30 58 H -7.198163 -4.173011 2.230650 0
M  V30 59 H -7.181670 -1.806963 1.323822 0
M  V30 60 H -5.321582 1.176062 0.385105 0
M  V30 61 H -6.716062 0.055878 0.464316 0
M  V30 62 H -6.171291 0.550770 -1.130895 0
M  V30 63 H 0.274562 1.626067 -1.692164 0
M  V30 64 H 2.818302 0.362000 1.874750 0
M  V30 65 H 5.610043 -0.585308 3.442197 0
M  V30 66 H 3.801191 -0.990421 3.365092 0
M  V30 END ATOM
M  V30 BEGIN BOND
M  V30 1 1 1 2
M  V30 2 1 2 3
M  V30 3 1 3 4
M  V30 4 1 4 5
M  V30 5 2 5 6
M  V30 6 1 6 7
M  V30 7 2 7 8
M  V30 8 1 8 9
M  V30 9 1 9 10
M  V30 10 2 10 11
M  V30 11 1 10 12
M  V30 12 2 12 13
M  V30 13 1 13 14
M  V30 14 2 14 15
M  V30 15 1 15 16
M  V30 16 1 16 17
M  V30 17 1 17 18
M  V30 18 1 18 19
M  V30 19 2 19 20
M  V30 20 1 19 21
M  V30 21 2 21 22
M  V30 22 1 22 23
M  V30 23 2 23 24
M  V30 24 1 24 25
M  V30 25 1 25 26
M  V30 26 1 26 27
M  V30 27 2 26 28
M  V30 28 2 25 29
M  V30 29 1 29 30
M  V30 30 2 30 31
M  V30 31 1 31 32
M  V30 32 1 32 33
M  V30 33 2 16 34
M  V30 34 1 8 35
M  V30 35 2 35 36
M  V30 36 1 36 37
M  V30 37 1 37 2
M  V30 38 1 36 5
M  V30 39 1 34 12
M  V30 40 1 32 21
M  V30 41 1 31 23
M  V30 42 1 1 38
M  V30 43 1 1 39
M  V30 44 1 1 40
M  V30 45 1 3 41
M  V30 46 1 3 42
M  V30 47 1 4 43
M  V30 48 1 4 44
M  V30 49 1 6 45
M  V30 50 1 7 46
M  V30 51 1 9 47
M  V30 52 1 13 48
M  V30 53 1 14 49
M  V30 54 1 15 50
M  V30 55 1 17 51
M  V30 56 1 17 52
M  V30 57 1 18 53
M  V30 58 1 22 54
M  V30 59 1 24 55
M  V30 60 1 27 56
M  V30 61 1 27 57
M  V30 62 1 29 58
M  V30 63 1 30 59
M  V30 64 1 33 60
M  V30 65 1 33 61
M  V30 66 1 33 62
M  V30 67 1 34 63
M  V30 68 1 35 64
M  V30 69 1 37 65
M  V30 70 1 37 66
M  V30 END BOND
M  V30 END CTAB
M  END
>  <Dataset>  (329) 
ChEMBL_Kinases

>  <Ligand_Instance>  (329) 
nan

>  <PDB_ID>  (329) 
nan

>  <Standardized_SMILES>  (329) 
CN1CCc2ccc(NC(=O)c3cccc(CNC(=O)c4cc5cc(C(N)=O)ccc5n4C)c3)cc2C1

>  <Name>  (329) 
nan

>  <Pocket>  (329) 
nan

>  <ATP_Site>  (329) 
nan

>  <Peripheral>  (329) 
nan

>  <Num_H_Atoms_ProtBoundConf>  (329) 
nan

>  <Num_Resolved_Atoms>  (329) 
nan

>  <Num_Not_Resolved_Atoms>  (329) 
nan

$$$$
CHEMBL3680729
     RDKit          3D

  0  0  0  0  0  0  0  0  0  0999 V3000
M  V30 BEGIN CTAB
M  V30 COUNTS 59 63 0 0 0
M  V30 BEGIN ATOM
M  V30 1 C 2.162064 -0.352895 6.864566 0
M  V30 2 C 2.834173 -0.022212 5.631479 0
M  V30 3 S 4.620914 -0.226198 5.351915 0
M  V30 4 C 4.488780 0.433113 3.596462 0
M  V30 5 C 5.667362 0.547449 2.725916 0
M  V30 6 C 5.449095 1.039187 1.470367 0
M  V30 7 C 6.563955 1.145109 0.654316 0
M  V30 8 N 7.797726 0.775865 1.094565 0
M  V30 9 C 7.974133 0.292154 2.347650 0
M  V30 10 C 6.890575 0.165722 3.205584 0
M  V30 11 N 3.338225 0.667121 3.493466 0
M  V30 12 C 2.409790 0.490077 4.419208 0
M  V30 13 C 1.036875 0.842518 4.085604 0
M  V30 14 O 0.622509 1.332993 2.984398 0
M  V30 15 N -0.122073 0.724972 4.884194 0
M  V30 16 C -1.496195 1.062679 4.582827 0
M  V30 17 C -2.056843 -0.011403 3.725303 0
M  V30 18 C -2.572380 -1.070903 4.471515 0
M  V30 19 C -3.148780 -2.166496 3.869552 0
M  V30 20 C -3.213494 -2.208339 2.491507 0
M  V30 21 C -2.714742 -1.180159 1.720606 0
M  V30 22 C -2.719786 -1.097044 0.263653 0
M  V30 23 O -2.246777 -0.149429 -0.417589 0
M  V30 24 N -3.297929 -2.156496 -0.448951 0
M  V30 25 C -3.215026 -1.903386 -1.918197 0
M  V30 26 N -2.375968 -2.210167 -2.608312 0
M  V30 27 C -2.193861 -2.045642 -3.901463 0
M  V30 28 C -3.243997 -1.363921 -4.509854 0
M  V30 29 S -4.352459 -1.043314 -3.178950 0
M  V30 30 C -3.435850 -0.970581 -5.944563 0
M  V30 31 N -2.559128 -1.709346 -6.776222 0
M  V30 32 C -3.128363 -2.012052 -8.049583 0
M  V30 33 C -1.815653 -2.764039 -6.185521 0
M  V30 34 C -1.137999 -2.405175 -4.902276 0
M  V30 35 C -2.147068 -0.103620 2.358111 0
M  V30 36 H 2.968230 -0.706518 7.588897 0
M  V30 37 H 1.463233 -1.201945 6.841356 0
M  V30 38 H 1.784513 0.565484 7.354392 0
M  V30 39 H 4.449211 1.320116 1.162820 0
M  V30 40 H 6.419213 1.536499 -0.357420 0
M  V30 41 H 8.981613 0.000526 2.680471 0
M  V30 42 H 7.007671 -0.221254 4.219117 0
M  V30 43 H 0.029400 0.332427 5.839251 0
M  V30 44 H -1.561874 2.050902 4.060488 0
M  V30 45 H -2.068582 1.187094 5.514912 0
M  V30 46 H -2.577033 -1.146921 5.565709 0
M  V30 47 H -3.564456 -3.016678 4.412640 0
M  V30 48 H -3.647946 -3.030169 1.960353 0
M  V30 49 H -3.732480 -3.010596 -0.072080 0
M  V30 50 H -3.285204 0.118069 -6.086039 0
M  V30 51 H -4.516993 -1.183866 -6.169562 0
M  V30 52 H -3.560737 -3.029575 -8.133026 0
M  V30 53 H -4.009534 -1.319848 -8.187149 0
M  V30 54 H -2.455604 -1.746724 -8.903821 0
M  V30 55 H -0.983265 -3.012533 -6.908063 0
M  V30 56 H -2.365998 -3.723347 -6.069365 0
M  V30 57 H -0.558905 -3.312760 -4.580512 0
M  V30 58 H -0.463342 -1.546569 -5.007705 0
M  V30 59 H -1.744067 0.737109 1.832599 0
M  V30 END ATOM
M  V30 BEGIN BOND
M  V30 1 1 1 2
M  V30 2 1 2 3
M  V30 3 1 3 4
M  V30 4 1 4 5
M  V30 5 2 5 6
M  V30 6 1 6 7
M  V30 7 2 7 8
M  V30 8 1 8 9
M  V30 9 2 9 10
M  V30 10 2 4 11
M  V30 11 1 11 12
M  V30 12 1 12 13
M  V30 13 2 13 14
M  V30 14 1 13 15
M  V30 15 1 15 16
M  V30 16 1 16 17
M  V30 17 2 17 18
M  V30 18 1 18 19
M  V30 19 2 19 20
M  V30 20 1 20 21
M  V30 21 1 21 22
M  V30 22 2 22 23
M  V30 23 1 22 24
M  V30 24 1 24 25
M  V30 25 2 25 26
M  V30 26 1 26 27
M  V30 27 2 27 28
M  V30 28 1 28 29
M  V30 29 1 28 30
M  V30 30 1 30 31
M  V30 31 1 31 32
M  V30 32 1 31 33
M  V30 33 1 33 34
M  V30 34 2 21 35
M  V30 35 2 12 2
M  V30 36 1 35 17
M  V30 37 1 10 5
M  V30 38 1 29 25
M  V30 39 1 34 27
M  V30 40 1 1 36
M  V30 41 1 1 37
M  V30 42 1 1 38
M  V30 43 1 6 39
M  V30 44 1 7 40
M  V30 45 1 9 41
M  V30 46 1 10 42
M  V30 47 1 15 43
M  V30 48 1 16 44
M  V30 49 1 16 45
M  V30 50 1 18 46
M  V30 51 1 19 47
M  V30 52 1 20 48
M  V30 53 1 24 49
M  V30 54 1 30 50
M  V30 55 1 30 51
M  V30 56 1 32 52
M  V30 57 1 32 53
M  V30 58 1 32 54
M  V30 59 1 33 55
M  V30 60 1 33 56
M  V30 61 1 34 57
M  V30 62 1 34 58
M  V30 63 1 35 59
M  V30 END BOND
M  V30 END CTAB
M  END
>  <Dataset>  (330) 
ChEMBL_Kinases

>  <Ligand_Instance>  (330) 
nan

>  <PDB_ID>  (330) 
nan

>  <Standardized_SMILES>  (330) 
Cc1sc(-c2ccncc2)nc1C(=O)NCc1cccc(C(=O)Nc2nc3c(s2)CN(C)CC3)c1

>  <Name>  (330) 
nan

>  <Pocket>  (330) 
nan

>  <ATP_Site>  (330) 
nan

>  <Peripheral>  (330) 
nan

>  <Num_H_Atoms_ProtBoundConf>  (330) 
nan

>  <Num_Resolved_Atoms>  (330) 
nan

>  <Num_Not_Resolved_Atoms>  (330) 
nan

$$$$
CHEMBL3680730
     RDKit          3D

  0  0  0  0  0  0  0  0  0  0999 V3000
M  V30 BEGIN CTAB
M  V30 COUNTS 61 65 0 0 0
M  V30 BEGIN ATOM
M  V30 1 C 5.272776 -2.654611 3.236931 0
M  V30 2 N 6.318570 -2.259772 2.310239 0
M  V30 3 C 7.209799 -1.377115 2.984981 0
M  V30 4 C 7.219434 0.038223 2.521771 0
M  V30 5 C 5.928082 0.557870 2.066186 0
M  V30 6 C 5.465170 1.838490 2.275404 0
M  V30 7 C 4.228305 2.248156 1.809136 0
M  V30 8 C 3.425767 1.365556 1.115699 0
M  V30 9 N 2.140439 1.712100 0.604137 0
M  V30 10 C 0.815440 1.658456 1.117487 0
M  V30 11 O 0.766719 1.201630 2.288513 0
M  V30 12 C -0.254275 2.123575 0.243912 0
M  V30 13 C -0.181371 2.616829 -1.026399 0
M  V30 14 C -1.326847 2.998377 -1.667952 0
M  V30 15 C -2.549335 2.895219 -1.059736 0
M  V30 16 C -2.658941 2.399515 0.227183 0
M  V30 17 C -4.024480 2.341211 0.761146 0
M  V30 18 N -4.672776 1.067270 0.465674 0
M  V30 19 C -3.967687 0.071810 -0.251590 0
M  V30 20 O -2.803833 0.154534 -0.682506 0
M  V30 21 C -4.717557 -1.197788 -0.504655 0
M  V30 22 C -5.950560 -1.567714 -0.172315 0
M  V30 23 C -6.382219 -2.779153 -0.528089 0
M  V30 24 C -5.541394 -3.556731 -1.204068 0
M  V30 25 C -5.691161 -4.954796 -1.753480 0
M  V30 26 C -4.667591 -5.549100 -2.419935 0
M  V30 27 C -4.805003 -6.828046 -2.922716 0
M  V30 28 C -6.041841 -7.441746 -2.697948 0
M  V30 29 N -7.028823 -6.814353 -2.031666 0
M  V30 30 C -6.902321 -5.569881 -1.539575 0
M  V30 31 S -4.110859 -2.585318 -1.352978 0
M  V30 32 C -1.483062 2.011215 0.877367 0
M  V30 33 C 3.890217 0.066455 0.900956 0
M  V30 34 C 5.129190 -0.329138 1.373045 0
M  V30 35 C 5.652712 -1.715691 1.157116 0
M  V30 36 H 5.522292 -2.322510 4.283077 0
M  V30 37 H 5.101798 -3.747040 3.258157 0
M  V30 38 H 4.287235 -2.197534 3.019094 0
M  V30 39 H 7.074835 -1.449181 4.077936 0
M  V30 40 H 8.251509 -1.772369 2.800326 0
M  V30 41 H 8.020231 0.251334 1.771452 0
M  V30 42 H 7.511300 0.665013 3.406685 0
M  V30 43 H 6.126104 2.499106 2.823823 0
M  V30 44 H 3.879180 3.256782 1.981564 0
M  V30 45 H 2.441121 2.048983 -0.334924 0
M  V30 46 H 0.823438 2.659321 -1.419011 0
M  V30 47 H -1.212812 3.379855 -2.666724 0
M  V30 48 H -3.397970 3.219595 -1.640769 0
M  V30 49 H -4.018963 2.426542 1.864243 0
M  V30 50 H -4.617059 3.207838 0.398586 0
M  V30 51 H -5.640502 0.951154 0.803506 0
M  V30 52 H -6.583642 -0.855183 0.392042 0
M  V30 53 H -7.381514 -3.204140 -0.313318 0
M  V30 54 H -3.777507 -4.975806 -2.524259 0
M  V30 55 H -3.979891 -7.289509 -3.452200 0
M  V30 56 H -6.114599 -8.447637 -3.107433 0
M  V30 57 H -7.710313 -5.091999 -1.009631 0
M  V30 58 H -1.693428 1.637437 1.884087 0
M  V30 59 H 3.270919 -0.631628 0.360133 0
M  V30 60 H 6.348886 -1.727317 0.310809 0
M  V30 61 H 4.740856 -2.337260 0.946904 0
M  V30 END ATOM
M  V30 BEGIN BOND
M  V30 1 1 1 2
M  V30 2 1 2 3
M  V30 3 1 3 4
M  V30 4 1 4 5
M  V30 5 2 5 6
M  V30 6 1 6 7
M  V30 7 2 7 8
M  V30 8 1 8 9
M  V30 9 1 9 10
M  V30 10 2 10 11
M  V30 11 1 10 12
M  V30 12 2 12 13
M  V30 13 1 13 14
M  V30 14 2 14 15
M  V30 15 1 15 16
M  V30 16 1 16 17
M  V30 17 1 17 18
M  V30 18 1 18 19
M  V30 19 2 19 20
M  V30 20 1 19 21
M  V30 21 2 21 22
M  V30 22 1 22 23
M  V30 23 2 23 24
M  V30 24 1 24 25
M  V30 25 2 25 26
M  V30 26 1 26 27
M  V30 27 2 27 28
M  V30 28 1 28 29
M  V30 29 2 29 30
M  V30 30 1 24 31
M  V30 31 2 16 32
M  V30 32 1 8 33
M  V30 33 2 33 34
M  V30 34 1 34 35
M  V30 35 1 35 2
M  V30 36 1 34 5
M  V30 37 1 32 12
M  V30 38 1 31 21
M  V30 39 1 30 25
M  V30 40 1 1 36
M  V30 41 1 1 37
M  V30 42 1 1 38
M  V30 43 1 3 39
M  V30 44 1 3 40
M  V30 45 1 4 41
M  V30 46 1 4 42
M  V30 47 1 6 43
M  V30 48 1 7 44
M  V30 49 1 9 45
M  V30 50 1 13 46
M  V30 51 1 14 47
M  V30 52 1 15 48
M  V30 53 1 17 49
M  V30 54 1 17 50
M  V30 55 1 18 51
M  V30 56 1 22 52
M  V30 57 1 23 53
M  V30 58 1 26 54
M  V30 59 1 27 55
M  V30 60 1 28 56
M  V30 61 1 30 57
M  V30 62 1 32 58
M  V30 63 1 33 59
M  V30 64 1 35 60
M  V30 65 1 35 61
M  V30 END BOND
M  V30 END CTAB
M  END
>  <Dataset>  (331) 
ChEMBL_Kinases

>  <Ligand_Instance>  (331) 
nan

>  <PDB_ID>  (331) 
nan

>  <Standardized_SMILES>  (331) 
CN1CCc2ccc(NC(=O)c3cccc(CNC(=O)c4ccc(-c5cccnc5)s4)c3)cc2C1

>  <Name>  (331) 
nan

>  <Pocket>  (331) 
nan

>  <ATP_Site>  (331) 
nan

>  <Peripheral>  (331) 
nan

>  <Num_H_Atoms_ProtBoundConf>  (331) 
nan

>  <Num_Resolved_Atoms>  (331) 
nan

>  <Num_Not_Resolved_Atoms>  (331) 
nan

$$$$
CHEMBL3680731
     RDKit          3D

  0  0  0  0  0  0  0  0  0  0999 V3000
M  V30 BEGIN CTAB
M  V30 COUNTS 58 62 0 0 0
M  V30 BEGIN ATOM
M  V30 1 C 4.217277 -2.441059 6.206883 0
M  V30 2 N 3.767241 -2.846861 4.897605 0
M  V30 3 C 4.844645 -3.205564 4.026521 0
M  V30 4 C 5.696779 -2.012295 3.600138 0
M  V30 5 C 4.773340 -0.975441 3.043184 0
M  V30 6 C 5.269457 -0.032673 2.171603 0
M  V30 7 C 4.465060 0.945894 1.627559 0
M  V30 8 C 3.126278 0.975341 1.970597 0
M  V30 9 N 2.185895 1.936998 1.473700 0
M  V30 10 C 1.630304 1.384951 0.286190 0
M  V30 11 O 2.121315 0.233981 0.028459 0
M  V30 12 C 0.610814 2.062242 -0.544254 0
M  V30 13 C 0.074621 3.303970 -0.282002 0
M  V30 14 C -0.867414 3.797394 -1.155595 0
M  V30 15 C -1.255350 3.063140 -2.256275 0
M  V30 16 C -0.743411 1.831362 -2.543224 0
M  V30 17 C -1.111508 0.971869 -3.711644 0
M  V30 18 N -2.202978 0.080488 -3.371752 0
M  V30 19 C -3.538822 0.479098 -3.287912 0
M  V30 20 O -3.936038 1.628025 -3.494012 0
M  V30 21 C -4.519362 -0.571691 -2.925513 0
M  V30 22 C -5.906099 -0.440313 -2.775521 0
M  V30 23 C -6.576969 -1.569648 -2.435546 0
M  V30 24 C -5.909319 -2.727531 -2.262311 0
M  V30 25 C -6.360584 -4.046936 -1.904902 0
M  V30 26 C -7.631590 -4.443612 -1.642890 0
M  V30 27 N -7.654399 -5.774528 -1.340991 0
M  V30 28 C -6.346173 -6.148369 -1.435210 0
M  V30 29 O -5.604528 -5.109152 -1.769375 0
M  V30 30 S -4.228856 -2.291670 -2.577668 0
M  V30 31 C 0.209039 1.325819 -1.665292 0
M  V30 32 C 2.639693 0.015060 2.853308 0
M  V30 33 C 3.436748 -0.982780 3.414310 0
M  V30 34 C 2.799214 -1.950671 4.342751 0
M  V30 35 H 4.322218 -1.334945 6.271995 0
M  V30 36 H 5.219798 -2.843789 6.462298 0
M  V30 37 H 3.483544 -2.769410 6.973384 0
M  V30 38 H 4.438922 -3.686907 3.117955 0
M  V30 39 H 5.475111 -3.933253 4.575479 0
M  V30 40 H 6.406879 -2.388989 2.833306 0
M  V30 41 H 6.282840 -1.602717 4.430818 0
M  V30 42 H 6.321867 -0.044932 1.894030 0
M  V30 43 H 4.812234 1.705062 0.939933 0
M  V30 44 H 1.850770 2.884621 1.780161 0
M  V30 45 H 0.432672 3.808127 0.597136 0
M  V30 46 H -1.296214 4.770673 -0.961557 0
M  V30 47 H -1.986440 3.462350 -2.925973 0
M  V30 48 H -1.404487 1.617876 -4.566917 0
M  V30 49 H -0.200954 0.413253 -4.006587 0
M  V30 50 H -1.926863 -0.929601 -3.182124 0
M  V30 51 H -6.335261 0.538285 -2.939617 0
M  V30 52 H -7.652802 -1.576367 -2.294695 0
M  V30 53 H -8.531995 -3.828648 -1.658160 0
M  V30 54 H -5.977168 -7.164037 -1.257443 0
M  V30 55 H 0.631759 0.348049 -1.870573 0
M  V30 56 H 1.589416 0.036226 3.123435 0
M  V30 57 H 2.027845 -2.551118 3.805797 0
M  V30 58 H 2.286596 -1.432499 5.184266 0
M  V30 END ATOM
M  V30 BEGIN BOND
M  V30 1 1 1 2
M  V30 2 1 2 3
M  V30 3 1 3 4
M  V30 4 1 4 5
M  V30 5 2 5 6
M  V30 6 1 6 7
M  V30 7 2 7 8
M  V30 8 1 8 9
M  V30 9 1 9 10
M  V30 10 2 10 11
M  V30 11 1 10 12
M  V30 12 2 12 13
M  V30 13 1 13 14
M  V30 14 2 14 15
M  V30 15 1 15 16
M  V30 16 1 16 17
M  V30 17 1 17 18
M  V30 18 1 18 19
M  V30 19 2 19 20
M  V30 20 1 19 21
M  V30 21 2 21 22
M  V30 22 1 22 23
M  V30 23 2 23 24
M  V30 24 1 24 25
M  V30 25 2 25 26
M  V30 26 1 26 27
M  V30 27 2 27 28
M  V30 28 1 28 29
M  V30 29 1 24 30
M  V30 30 2 16 31
M  V30 31 1 8 32
M  V30 32 2 32 33
M  V30 33 1 33 34
M  V30 34 1 34 2
M  V30 35 1 33 5
M  V30 36 1 31 12
M  V30 37 1 30 21
M  V30 38 1 29 25
M  V30 39 1 1 35
M  V30 40 1 1 36
M  V30 41 1 1 37
M  V30 42 1 3 38
M  V30 43 1 3 39
M  V30 44 1 4 40
M  V30 45 1 4 41
M  V30 46 1 6 42
M  V30 47 1 7 43
M  V30 48 1 9 44
M  V30 49 1 13 45
M  V30 50 1 14 46
M  V30 51 1 15 47
M  V30 52 1 17 48
M  V30 53 1 17 49
M  V30 54 1 18 50
M  V30 55 1 22 51
M  V30 56 1 23 52
M  V30 57 1 26 53
M  V30 58 1 28 54
M  V30 59 1 31 55
M  V30 60 1 32 56
M  V30 61 1 34 57
M  V30 62 1 34 58
M  V30 END BOND
M  V30 END CTAB
M  END
>  <Dataset>  (332) 
ChEMBL_Kinases

>  <Ligand_Instance>  (332) 
nan

>  <PDB_ID>  (332) 
nan

>  <Standardized_SMILES>  (332) 
CN1CCc2ccc(NC(=O)c3cccc(CNC(=O)c4ccc(-c5cnco5)s4)c3)cc2C1

>  <Name>  (332) 
nan

>  <Pocket>  (332) 
nan

>  <ATP_Site>  (332) 
nan

>  <Peripheral>  (332) 
nan

>  <Num_H_Atoms_ProtBoundConf>  (332) 
nan

>  <Num_Resolved_Atoms>  (332) 
nan

>  <Num_Not_Resolved_Atoms>  (332) 
nan

$$$$
CHEMBL3680732
     RDKit          3D

  0  0  0  0  0  0  0  0  0  0999 V3000
M  V30 BEGIN CTAB
M  V30 COUNTS 55 59 0 0 0
M  V30 BEGIN ATOM
M  V30 1 C 7.993768 -1.382152 3.965842 0
M  V30 2 N 7.220826 -0.729259 2.978182 0
M  V30 3 C 7.409937 0.636342 2.750909 0
M  V30 4 C 6.843054 1.065523 1.414824 0
M  V30 5 C 5.373732 0.729525 1.515679 0
M  V30 6 N 4.043459 0.497034 1.581175 0
M  V30 7 C 3.279711 1.478302 1.206657 0
M  V30 8 N 1.905475 1.795695 1.087110 0
M  V30 9 C 1.033606 1.583986 0.007442 0
M  V30 10 O 1.557705 1.031210 -0.991981 0
M  V30 11 C -0.376252 1.987761 0.073177 0
M  V30 12 C -0.867074 2.651645 1.183315 0
M  V30 13 C -2.203208 3.001100 1.192983 0
M  V30 14 C -2.965049 2.662179 0.086867 0
M  V30 15 C -2.461257 2.000701 -1.010948 0
M  V30 16 C -3.497353 1.763420 -2.053410 0
M  V30 17 N -4.127019 0.485352 -1.725568 0
M  V30 18 C -3.592624 -0.830251 -1.950018 0
M  V30 19 O -2.463122 -0.965077 -2.481996 0
M  V30 20 C -4.361770 -2.004399 -1.561061 0
M  V30 21 C -5.622395 -2.007773 -0.950977 0
M  V30 22 N -5.981612 -3.286633 -0.765526 0
M  V30 23 C -7.113179 -3.814324 -0.213965 0
M  V30 24 C -7.212138 -5.180308 -0.154598 0
M  V30 25 C -6.217880 -6.001731 -0.628508 0
M  V30 26 C -6.285888 -7.424630 -0.584546 0
M  V30 27 N -6.329497 -8.597918 -0.535809 0
M  V30 28 C -5.057623 -5.469001 -1.193943 0
M  V30 29 C -4.990067 -4.075166 -1.238313 0
M  V30 30 N -4.001440 -3.270372 -1.723890 0
M  V30 31 C -1.147043 1.656419 -1.022609 0
M  V30 32 S 3.277661 -0.256498 1.848584 0
M  V30 33 C 5.078901 -0.562883 1.988886 0
M  V30 34 C 6.202040 -1.426680 2.330447 0
M  V30 35 H 8.368788 -0.620248 4.676734 0
M  V30 36 H 8.793831 -2.043007 3.579474 0
M  V30 37 H 7.315221 -2.065204 4.555200 0
M  V30 38 H 8.450316 0.983561 2.914193 0
M  V30 39 H 6.789158 1.197964 3.510784 0
M  V30 40 H 7.058870 2.110963 1.238468 0
M  V30 41 H 7.331221 0.454950 0.615678 0
M  V30 42 H 1.614948 2.244036 1.982793 0
M  V30 43 H -0.278034 2.907949 2.027647 0
M  V30 44 H -2.604188 3.524214 2.059054 0
M  V30 45 H -4.014847 2.985217 0.193848 0
M  V30 46 H -4.286316 2.518993 -2.071472 0
M  V30 47 H -3.039305 1.710402 -3.068841 0
M  V30 48 H -5.088454 0.494278 -1.267794 0
M  V30 49 H -6.189450 -1.130325 -0.683507 0
M  V30 50 H -7.915759 -3.205131 0.168552 0
M  V30 51 H -8.091646 -5.651346 0.274027 0
M  V30 52 H -4.220162 -6.023145 -1.595200 0
M  V30 53 H -0.814159 1.144976 -1.906783 0
M  V30 54 H 6.571776 -1.980514 1.448031 0
M  V30 55 H 5.846889 -2.240660 3.031947 0
M  V30 END ATOM
M  V30 BEGIN BOND
M  V30 1 1 1 2
M  V30 2 1 2 3
M  V30 3 1 3 4
M  V30 4 1 4 5
M  V30 5 1 5 6
M  V30 6 2 6 7
M  V30 7 1 7 8
M  V30 8 1 8 9
M  V30 9 2 9 10
M  V30 10 1 9 11
M  V30 11 2 11 12
M  V30 12 1 12 13
M  V30 13 2 13 14
M  V30 14 1 14 15
M  V30 15 1 15 16
M  V30 16 1 16 17
M  V30 17 1 17 18
M  V30 18 2 18 19
M  V30 19 1 18 20
M  V30 20 2 20 21
M  V30 21 1 21 22
M  V30 22 1 22 23
M  V30 23 2 23 24
M  V30 24 1 24 25
M  V30 25 1 25 26
M  V30 26 3 26 27
M  V30 27 2 25 28
M  V30 28 1 28 29
M  V30 29 2 29 30
M  V30 30 2 15 31
M  V30 31 1 7 32
M  V30 32 1 32 33
M  V30 33 1 33 34
M  V30 34 1 34 2
M  V30 35 2 33 5
M  V30 36 1 31 11
M  V30 37 1 30 20
M  V30 38 1 29 22
M  V30 39 1 1 35
M  V30 40 1 1 36
M  V30 41 1 1 37
M  V30 42 1 3 38
M  V30 43 1 3 39
M  V30 44 1 4 40
M  V30 45 1 4 41
M  V30 46 1 8 42
M  V30 47 1 12 43
M  V30 48 1 13 44
M  V30 49 1 14 45
M  V30 50 1 16 46
M  V30 51 1 16 47
M  V30 52 1 17 48
M  V30 53 1 21 49
M  V30 54 1 23 50
M  V30 55 1 24 51
M  V30 56 1 28 52
M  V30 57 1 31 53
M  V30 58 1 34 54
M  V30 59 1 34 55
M  V30 END BOND
M  V30 END CTAB
M  END
>  <Dataset>  (333) 
ChEMBL_Kinases

>  <Ligand_Instance>  (333) 
nan

>  <PDB_ID>  (333) 
nan

>  <Standardized_SMILES>  (333) 
CN1CCc2nc(NC(=O)c3cccc(CNC(=O)c4cn5ccc(C#N)cc5n4)c3)sc2C1

>  <Name>  (333) 
nan

>  <Pocket>  (333) 
nan

>  <ATP_Site>  (333) 
nan

>  <Peripheral>  (333) 
nan

>  <Num_H_Atoms_ProtBoundConf>  (333) 
nan

>  <Num_Resolved_Atoms>  (333) 
nan

>  <Num_Not_Resolved_Atoms>  (333) 
nan

$$$$
CHEMBL3680733
     RDKit          3D

  0  0  0  0  0  0  0  0  0  0999 V3000
M  V30 BEGIN CTAB
M  V30 COUNTS 61 65 0 0 0
M  V30 BEGIN ATOM
M  V30 1 C 5.276958 -1.165861 7.722638 0
M  V30 2 C 5.685023 -0.069116 6.805230 0
M  V30 3 N 6.871417 0.561939 6.791612 0
M  V30 4 C 6.871398 1.494612 5.823884 0
M  V30 5 C 5.649658 1.414732 5.246525 0
M  V30 6 C 4.936251 2.128858 4.120024 0
M  V30 7 C 5.478815 3.164735 3.336662 0
M  V30 8 C 4.657418 3.653619 2.385294 0
M  V30 9 C 3.417840 3.164544 2.224286 0
M  V30 10 C 2.382477 3.570911 1.243536 0
M  V30 11 O 2.450544 4.456058 0.360518 0
M  V30 12 N 1.148880 2.875078 1.301110 0
M  V30 13 C 0.132751 3.268244 0.344276 0
M  V30 14 C -1.055809 2.406244 0.596658 0
M  V30 15 C -1.966894 2.923973 1.519575 0
M  V30 16 C -3.084041 2.171624 1.792560 0
M  V30 17 C -3.346383 0.937857 1.202342 0
M  V30 18 C -2.427185 0.461911 0.299926 0
M  V30 19 C -2.514755 -0.810370 -0.429865 0
M  V30 20 O -1.687651 -1.269171 -1.260480 0
M  V30 21 N -3.626291 -1.699744 -0.246002 0
M  V30 22 C -3.476322 -2.858185 -1.062412 0
M  V30 23 C -2.787359 -3.892808 -0.419746 0
M  V30 24 C -2.571476 -5.071912 -1.094072 0
M  V30 25 C -3.028723 -5.225497 -2.381279 0
M  V30 26 C -3.704936 -4.184481 -2.985902 0
M  V30 27 C -3.945634 -2.982649 -2.349590 0
M  V30 28 C -4.190945 -4.375856 -4.383007 0
M  V30 29 N -3.047120 -4.817246 -5.154729 0
M  V30 30 C -2.172840 -3.708488 -5.480092 0
M  V30 31 C -2.342334 -5.929043 -4.579875 0
M  V30 32 C -2.898003 -6.411514 -3.273141 0
M  V30 33 C -1.276029 1.189371 -0.010975 0
M  V30 34 S 3.281157 1.924757 3.438620 0
M  V30 35 O 4.960358 0.475176 5.848883 0
M  V30 36 H 4.192329 -1.068631 8.021330 0
M  V30 37 H 5.831894 -1.158421 8.665654 0
M  V30 38 H 5.316827 -2.126379 7.174193 0
M  V30 39 H 7.514880 2.253970 5.383872 0
M  V30 40 H 6.492895 3.487195 3.549089 0
M  V30 41 H 4.995629 4.469022 1.720622 0
M  V30 42 H 1.004788 2.115993 2.012269 0
M  V30 43 H 0.449317 3.129058 -0.693118 0
M  V30 44 H -0.132595 4.347334 0.459975 0
M  V30 45 H -1.855896 3.873171 2.033674 0
M  V30 46 H -3.837150 2.509243 2.499539 0
M  V30 47 H -4.197838 0.331615 1.390094 0
M  V30 48 H -4.398870 -1.450957 0.418587 0
M  V30 49 H -2.407744 -3.824806 0.587991 0
M  V30 50 H -2.048063 -5.954146 -0.704329 0
M  V30 51 H -4.459630 -2.162838 -2.779970 0
M  V30 52 H -4.976953 -5.135187 -4.474775 0
M  V30 53 H -4.488587 -3.397157 -4.836346 0
M  V30 54 H -1.335616 -4.071998 -6.079331 0
M  V30 55 H -1.796745 -3.242151 -4.539577 0
M  V30 56 H -2.796752 -2.942690 -5.985710 0
M  V30 57 H -1.303825 -5.552797 -4.348025 0
M  V30 58 H -2.177065 -6.747464 -5.310942 0
M  V30 59 H -3.936501 -6.788500 -3.420870 0
M  V30 60 H -2.211395 -7.172553 -2.875692 0
M  V30 61 H -0.515364 0.847158 -0.725764 0
M  V30 END ATOM
M  V30 BEGIN BOND
M  V30 1 1 1 2
M  V30 2 2 2 3
M  V30 3 1 3 4
M  V30 4 2 4 5
M  V30 5 1 5 6
M  V30 6 2 6 7
M  V30 7 1 7 8
M  V30 8 2 8 9
M  V30 9 1 9 10
M  V30 10 2 10 11
M  V30 11 1 10 12
M  V30 12 1 12 13
M  V30 13 1 13 14
M  V30 14 2 14 15
M  V30 15 1 15 16
M  V30 16 2 16 17
M  V30 17 1 17 18
M  V30 18 1 18 19
M  V30 19 2 19 20
M  V30 20 1 19 21
M  V30 21 1 21 22
M  V30 22 2 22 23
M  V30 23 1 23 24
M  V30 24 2 24 25
M  V30 25 1 25 26
M  V30 26 2 26 27
M  V30 27 1 26 28
M  V30 28 1 28 29
M  V30 29 1 29 30
M  V30 30 1 29 31
M  V30 31 1 31 32
M  V30 32 2 18 33
M  V30 33 1 9 34
M  V30 34 1 5 35
M  V30 35 1 35 2
M  V30 36 1 34 6
M  V30 37 1 33 14
M  V30 38 1 27 22
M  V30 39 1 32 25
M  V30 40 1 1 36
M  V30 41 1 1 37
M  V30 42 1 1 38
M  V30 43 1 4 39
M  V30 44 1 7 40
M  V30 45 1 8 41
M  V30 46 1 12 42
M  V30 47 1 13 43
M  V30 48 1 13 44
M  V30 49 1 15 45
M  V30 50 1 16 46
M  V30 51 1 17 47
M  V30 52 1 21 48
M  V30 53 1 23 49
M  V30 54 1 24 50
M  V30 55 1 27 51
M  V30 56 1 28 52
M  V30 57 1 28 53
M  V30 58 1 30 54
M  V30 59 1 30 55
M  V30 60 1 30 56
M  V30 61 1 31 57
M  V30 62 1 31 58
M  V30 63 1 32 59
M  V30 64 1 32 60
M  V30 65 1 33 61
M  V30 END BOND
M  V30 END CTAB
M  END
>  <Dataset>  (334) 
ChEMBL_Kinases

>  <Ligand_Instance>  (334) 
nan

>  <PDB_ID>  (334) 
nan

>  <Standardized_SMILES>  (334) 
Cc1ncc(-c2ccc(C(=O)NCc3cccc(C(=O)Nc4ccc5c(c4)CN(C)CC5)c3)s2)o1

>  <Name>  (334) 
nan

>  <Pocket>  (334) 
nan

>  <ATP_Site>  (334) 
nan

>  <Peripheral>  (334) 
nan

>  <Num_H_Atoms_ProtBoundConf>  (334) 
nan

>  <Num_Resolved_Atoms>  (334) 
nan

>  <Num_Not_Resolved_Atoms>  (334) 
nan

$$$$
CHEMBL3680734
     RDKit          3D

  0  0  0  0  0  0  0  0  0  0999 V3000
M  V30 BEGIN CTAB
M  V30 COUNTS 64 68 0 0 0
M  V30 BEGIN ATOM
M  V30 1 C 3.650215 0.674213 5.011509 0
M  V30 2 N 4.829862 1.458471 4.694259 0
M  V30 3 C 5.832206 0.627049 4.104461 0
M  V30 4 C 5.966670 0.757153 2.610774 0
M  V30 5 C 4.661109 0.978257 1.938408 0
M  V30 6 C 4.160161 0.403158 0.800804 0
M  V30 7 C 2.911686 0.743393 0.330477 0
M  V30 8 C 2.127866 1.686881 1.008431 0
M  V30 9 N 0.855261 1.961494 0.442992 0
M  V30 10 C 0.348796 2.873910 -0.518602 0
M  V30 11 O 1.068675 3.713327 -1.112286 0
M  V30 12 C -1.072588 2.830382 -0.828249 0
M  V30 13 C -1.517844 3.693951 -1.797397 0
M  V30 14 C -2.870343 3.698054 -2.136121 0
M  V30 15 C -3.773767 2.839361 -1.505513 0
M  V30 16 C -3.310208 1.967201 -0.523066 0
M  V30 17 C -4.318467 1.082579 0.111517 0
M  V30 18 N -4.494662 -0.179444 -0.539206 0
M  V30 19 C -3.658706 -1.299710 -0.477479 0
M  V30 20 O -2.617806 -1.217512 0.228832 0
M  V30 21 C -3.923010 -2.559265 -1.184067 0
M  V30 22 C -5.017008 -2.773285 -2.014124 0
M  V30 23 C -5.203933 -3.978916 -2.641285 0
M  V30 24 C -4.323080 -5.029972 -2.480813 0
M  V30 25 C -3.221880 -4.853282 -1.661315 0
M  V30 26 C -2.217380 -5.891677 -1.410189 0
M  V30 27 C -1.804008 -6.874769 -2.273736 0
M  V30 28 C -0.844580 -7.780432 -1.879784 0
M  V30 29 N -0.278633 -7.746652 -0.657157 0
M  V30 30 C -0.664223 -6.784703 0.226857 0
M  V30 31 C -1.620289 -5.874824 -0.153147 0
M  V30 32 C -3.084858 -3.621373 -1.057177 0
M  V30 33 C -1.983197 1.995440 -0.222813 0
M  V30 34 C 2.630323 2.267562 2.154286 0
M  V30 35 C 3.882603 1.905128 2.598004 0
M  V30 36 C 4.390568 2.549421 3.838217 0
M  V30 37 H 3.526837 -0.060525 4.191846 0
M  V30 38 H 2.781554 1.333094 5.136223 0
M  V30 39 H 3.789713 0.164918 6.002187 0
M  V30 40 H 6.791521 0.866482 4.604625 0
M  V30 41 H 5.629797 -0.439951 4.357425 0
M  V30 42 H 6.636628 1.635210 2.395320 0
M  V30 43 H 6.450680 -0.147751 2.202597 0
M  V30 44 H 4.836489 -0.314702 0.343544 0
M  V30 45 H 2.561069 0.251077 -0.585536 0
M  V30 46 H 0.317151 1.242432 0.970387 0
M  V30 47 H -0.873516 4.384741 -2.324901 0
M  V30 48 H -3.221893 4.391194 -2.912639 0
M  V30 49 H -4.814393 2.925084 -1.848319 0
M  V30 50 H -3.915784 0.841607 1.140895 0
M  V30 51 H -5.244367 1.641373 0.272571 0
M  V30 52 H -5.363614 -0.234932 -1.122420 0
M  V30 53 H -5.721340 -1.953690 -2.151146 0
M  V30 54 H -6.084333 -4.092739 -3.285145 0
M  V30 55 H -4.457900 -5.985140 -2.968628 0
M  V30 56 H -2.281960 -6.865577 -3.240389 0
M  V30 57 H -0.550144 -8.537167 -2.593065 0
M  V30 58 H -0.165712 -6.829486 1.174220 0
M  V30 59 H -1.821863 -5.169661 0.661899 0
M  V30 60 H -2.213353 -3.480527 -0.409034 0
M  V30 61 H -1.650495 1.322939 0.531283 0
M  V30 62 H 1.973009 2.988063 2.628400 0
M  V30 63 H 5.220029 3.216284 3.557824 0
M  V30 64 H 3.581125 3.081401 4.377384 0
M  V30 END ATOM
M  V30 BEGIN BOND
M  V30 1 1 1 2
M  V30 2 1 2 3
M  V30 3 1 3 4
M  V30 4 1 4 5
M  V30 5 2 5 6
M  V30 6 1 6 7
M  V30 7 2 7 8
M  V30 8 1 8 9
M  V30 9 1 9 10
M  V30 10 2 10 11
M  V30 11 1 10 12
M  V30 12 2 12 13
M  V30 13 1 13 14
M  V30 14 2 14 15
M  V30 15 1 15 16
M  V30 16 1 16 17
M  V30 17 1 17 18
M  V30 18 1 18 19
M  V30 19 2 19 20
M  V30 20 1 19 21
M  V30 21 2 21 22
M  V30 22 1 22 23
M  V30 23 2 23 24
M  V30 24 1 24 25
M  V30 25 1 25 26
M  V30 26 2 26 27
M  V30 27 1 27 28
M  V30 28 2 28 29
M  V30 29 1 29 30
M  V30 30 2 30 31
M  V30 31 2 25 32
M  V30 32 2 16 33
M  V30 33 1 8 34
M  V30 34 2 34 35
M  V30 35 1 35 36
M  V30 36 1 36 2
M  V30 37 1 35 5
M  V30 38 1 33 12
M  V30 39 1 32 21
M  V30 40 1 31 26
M  V30 41 1 1 37
M  V30 42 1 1 38
M  V30 43 1 1 39
M  V30 44 1 3 40
M  V30 45 1 3 41
M  V30 46 1 4 42
M  V30 47 1 4 43
M  V30 48 1 6 44
M  V30 49 1 7 45
M  V30 50 1 9 46
M  V30 51 1 13 47
M  V30 52 1 14 48
M  V30 53 1 15 49
M  V30 54 1 17 50
M  V30 55 1 17 51
M  V30 56 1 18 52
M  V30 57 1 22 53
M  V30 58 1 23 54
M  V30 59 1 24 55
M  V30 60 1 27 56
M  V30 61 1 28 57
M  V30 62 1 30 58
M  V30 63 1 31 59
M  V30 64 1 32 60
M  V30 65 1 33 61
M  V30 66 1 34 62
M  V30 67 1 36 63
M  V30 68 1 36 64
M  V30 END BOND
M  V30 END CTAB
M  END
>  <Dataset>  (335) 
ChEMBL_Kinases

>  <Ligand_Instance>  (335) 
nan

>  <PDB_ID>  (335) 
nan

>  <Standardized_SMILES>  (335) 
CN1CCc2ccc(NC(=O)c3cccc(CNC(=O)c4cccc(-c5ccncc5)c4)c3)cc2C1

>  <Name>  (335) 
nan

>  <Pocket>  (335) 
nan

>  <ATP_Site>  (335) 
nan

>  <Peripheral>  (335) 
nan

>  <Num_H_Atoms_ProtBoundConf>  (335) 
nan

>  <Num_Resolved_Atoms>  (335) 
nan

>  <Num_Not_Resolved_Atoms>  (335) 
nan

$$$$
CHEMBL3680735
     RDKit          3D

  0  0  0  0  0  0  0  0  0  0999 V3000
M  V30 BEGIN CTAB
M  V30 COUNTS 61 65 0 0 0
M  V30 BEGIN ATOM
M  V30 1 C 5.291809 -2.215041 4.239588 0
M  V30 2 N 6.399819 -1.713879 3.449551 0
M  V30 3 C 7.120622 -0.756535 4.223482 0
M  V30 4 C 7.229806 0.609637 3.637546 0
M  V30 5 C 5.995603 1.036676 2.953642 0
M  V30 6 C 5.473554 2.308611 2.989696 0
M  V30 7 C 4.327737 2.662553 2.337205 0
M  V30 8 C 3.628122 1.719224 1.590678 0
M  V30 9 N 2.424972 1.887655 0.847311 0
M  V30 10 C 1.063863 1.722031 1.202753 0
M  V30 11 O 0.763775 1.356356 2.381449 0
M  V30 12 C 0.063162 1.984856 0.177248 0
M  V30 13 C 0.298656 2.417057 -1.103636 0
M  V30 14 C -0.726967 2.629020 -1.983554 0
M  V30 15 C -2.007835 2.407428 -1.583008 0
M  V30 16 C -2.356982 1.973256 -0.321777 0
M  V30 17 C -3.715806 1.704422 0.198708 0
M  V30 18 N -4.142523 0.326531 -0.002273 0
M  V30 19 C -4.573707 -0.107112 -1.276296 0
M  V30 20 O -4.654816 0.543711 -2.327478 0
M  V30 21 C -4.968156 -1.517771 -1.317210 0
M  V30 22 C -4.997499 -2.507024 -0.348505 0
M  V30 23 C -5.435080 -3.741272 -0.762431 0
M  V30 24 C -5.802765 -3.920505 -2.054058 0
M  V30 25 C -6.292546 -5.091261 -2.747299 0
M  V30 26 C -6.593645 -4.969434 -4.083803 0
M  V30 27 C -7.059268 -6.147610 -4.675322 0
M  V30 28 N -7.220000 -7.325996 -4.046663 0
M  V30 29 C -6.913563 -7.407298 -2.732697 0
M  V30 30 C -6.449934 -6.286977 -2.086540 0
M  V30 31 S -5.568447 -2.369630 -2.810654 0
M  V30 32 C -1.270601 1.772325 0.537958 0
M  V30 33 C 4.146021 0.421737 1.544383 0
M  V30 34 C 5.305634 0.103462 2.216946 0
M  V30 35 C 5.891266 -1.268467 2.198361 0
M  V30 36 H 5.136352 -1.552260 5.113964 0
M  V30 37 H 5.442397 -3.271076 4.544096 0
M  V30 38 H 4.333073 -2.181320 3.657991 0
M  V30 39 H 6.733865 -0.702907 5.274965 0
M  V30 40 H 8.170011 -1.157351 4.318902 0
M  V30 41 H 8.083808 0.640649 2.927290 0
M  V30 42 H 7.472043 1.327359 4.454557 0
M  V30 43 H 5.995466 3.060201 3.560576 0
M  V30 44 H 3.873338 3.637296 2.328935 0
M  V30 45 H 2.807146 2.175481 -0.062964 0
M  V30 46 H 1.309735 2.579567 -1.381109 0
M  V30 47 H -0.512450 2.969919 -2.986933 0
M  V30 48 H -2.826895 2.573013 -2.265158 0
M  V30 49 H -3.759404 1.978547 1.251818 0
M  V30 50 H -4.432569 2.393254 -0.326069 0
M  V30 51 H -4.105979 -0.293313 0.837332 0
M  V30 52 H -4.681620 -2.255653 0.652952 0
M  V30 53 H -5.497749 -4.586046 -0.088114 0
M  V30 54 H -6.502667 -4.081213 -4.678037 0
M  V30 55 H -7.311189 -6.100085 -5.733285 0
M  V30 56 H -7.075249 -8.392099 -2.316153 0
M  V30 57 H -6.217177 -6.395225 -1.038733 0
M  V30 58 H -1.495540 1.425274 1.558154 0
M  V30 59 H 3.668434 -0.374878 0.989477 0
M  V30 60 H 6.678989 -1.382857 1.424628 0
M  V30 61 H 5.011733 -1.935627 1.953050 0
M  V30 END ATOM
M  V30 BEGIN BOND
M  V30 1 1 1 2
M  V30 2 1 2 3
M  V30 3 1 3 4
M  V30 4 1 4 5
M  V30 5 2 5 6
M  V30 6 1 6 7
M  V30 7 2 7 8
M  V30 8 1 8 9
M  V30 9 1 9 10
M  V30 10 2 10 11
M  V30 11 1 10 12
M  V30 12 2 12 13
M  V30 13 1 13 14
M  V30 14 2 14 15
M  V30 15 1 15 16
M  V30 16 1 16 17
M  V30 17 1 17 18
M  V30 18 1 18 19
M  V30 19 2 19 20
M  V30 20 1 19 21
M  V30 21 2 21 22
M  V30 22 1 22 23
M  V30 23 2 23 24
M  V30 24 1 24 25
M  V30 25 2 25 26
M  V30 26 1 26 27
M  V30 27 2 27 28
M  V30 28 1 28 29
M  V30 29 2 29 30
M  V30 30 1 24 31
M  V30 31 2 16 32
M  V30 32 1 8 33
M  V30 33 2 33 34
M  V30 34 1 34 35
M  V30 35 1 35 2
M  V30 36 1 34 5
M  V30 37 1 32 12
M  V30 38 1 31 21
M  V30 39 1 30 25
M  V30 40 1 1 36
M  V30 41 1 1 37
M  V30 42 1 1 38
M  V30 43 1 3 39
M  V30 44 1 3 40
M  V30 45 1 4 41
M  V30 46 1 4 42
M  V30 47 1 6 43
M  V30 48 1 7 44
M  V30 49 1 9 45
M  V30 50 1 13 46
M  V30 51 1 14 47
M  V30 52 1 15 48
M  V30 53 1 17 49
M  V30 54 1 17 50
M  V30 55 1 18 51
M  V30 56 1 22 52
M  V30 57 1 23 53
M  V30 58 1 26 54
M  V30 59 1 27 55
M  V30 60 1 29 56
M  V30 61 1 30 57
M  V30 62 1 32 58
M  V30 63 1 33 59
M  V30 64 1 35 60
M  V30 65 1 35 61
M  V30 END BOND
M  V30 END CTAB
M  END
>  <Dataset>  (336) 
ChEMBL_Kinases

>  <Ligand_Instance>  (336) 
nan

>  <PDB_ID>  (336) 
nan

>  <Standardized_SMILES>  (336) 
CN1CCc2ccc(NC(=O)c3cccc(CNC(=O)c4ccc(-c5ccncc5)s4)c3)cc2C1

>  <Name>  (336) 
nan

>  <Pocket>  (336) 
nan

>  <ATP_Site>  (336) 
nan

>  <Peripheral>  (336) 
nan

>  <Num_H_Atoms_ProtBoundConf>  (336) 
nan

>  <Num_Resolved_Atoms>  (336) 
nan

>  <Num_Not_Resolved_Atoms>  (336) 
nan

$$$$
CHEMBL3680736
     RDKit          3D

  0  0  0  0  0  0  0  0  0  0999 V3000
M  V30 BEGIN CTAB
M  V30 COUNTS 57 61 0 0 0
M  V30 BEGIN ATOM
M  V30 1 C 6.277479 -2.687382 5.415889 0
M  V30 2 N 5.286527 -2.083498 4.579611 0
M  V30 3 C 4.697815 -0.911992 5.184001 0
M  V30 4 C 5.285718 0.303969 4.495972 0
M  V30 5 C 4.615183 0.345986 3.142180 0
M  V30 6 N 3.874534 1.222781 2.496375 0
M  V30 7 C 3.430787 1.014530 1.363880 0
M  V30 8 N 2.594633 1.887789 0.518775 0
M  V30 9 C 1.227126 1.603413 0.790954 0
M  V30 10 O 1.074711 0.705507 1.659324 0
M  V30 11 C 0.193771 2.360549 0.055470 0
M  V30 12 C 0.418216 3.324827 -0.865246 0
M  V30 13 C -0.680193 3.937521 -1.468817 0
M  V30 14 C -1.945573 3.529340 -1.096414 0
M  V30 15 C -2.180518 2.547288 -0.158782 0
M  V30 16 C -3.619710 2.280181 0.076369 0
M  V30 17 N -4.045357 1.253661 -0.859021 0
M  V30 18 C -3.799737 -0.121931 -0.790635 0
M  V30 19 O -3.141236 -0.610766 0.161122 0
M  V30 20 C -4.275979 -1.068851 -1.791952 0
M  V30 21 C -4.051475 -2.435117 -1.748245 0
M  V30 22 C -4.635025 -3.040229 -2.846544 0
M  V30 23 C -4.627964 -4.461245 -3.173176 0
M  V30 24 C -5.274332 -4.872795 -4.330278 0
M  V30 25 C -5.272607 -6.194280 -4.641202 0
M  V30 26 N -4.653246 -7.098981 -3.840984 0
M  V30 27 C -4.029670 -6.693907 -2.722769 0
M  V30 28 C -3.998272 -5.364937 -2.355720 0
M  V30 29 N -5.201883 -2.043810 -3.537953 0
M  V30 30 N -4.996363 -0.873128 -2.924200 0
M  V30 31 C -1.083549 1.953239 0.426975 0
M  V30 32 S 4.026492 -0.624373 0.934130 0
M  V30 33 C 4.905195 -0.855219 2.522667 0
M  V30 34 C 5.734898 -1.861294 3.230633 0
M  V30 35 H 6.752388 -1.977030 6.146641 0
M  V30 36 H 7.043818 -3.157508 4.751356 0
M  V30 37 H 5.765632 -3.454119 6.057635 0
M  V30 38 H 4.926337 -0.927723 6.260273 0
M  V30 39 H 3.596092 -0.908786 4.982992 0
M  V30 40 H 5.023479 1.207041 5.081447 0
M  V30 41 H 6.366792 0.200357 4.317000 0
M  V30 42 H 2.938352 2.578881 -0.147919 0
M  V30 43 H 1.436490 3.576394 -1.091032 0
M  V30 44 H -0.448677 4.698419 -2.194394 0
M  V30 45 H -2.708365 4.080272 -1.635791 0
M  V30 46 H -3.732199 1.847319 1.100756 0
M  V30 47 H -4.219914 3.188671 0.001904 0
M  V30 48 H -4.598304 1.583200 -1.675219 0
M  V30 49 H -3.515942 -3.005337 -1.006052 0
M  V30 50 H -5.790038 -4.198471 -5.015232 0
M  V30 51 H -5.743433 -6.635112 -5.517720 0
M  V30 52 H -3.536656 -7.452381 -2.094761 0
M  V30 53 H -3.491365 -5.021156 -1.443091 0
M  V30 54 H -5.311889 0.076636 -3.215396 0
M  V30 55 H -1.331306 1.190584 1.156079 0
M  V30 56 H 6.793163 -1.534151 3.265916 0
M  V30 57 H 5.717159 -2.836596 2.703303 0
M  V30 END ATOM
M  V30 BEGIN BOND
M  V30 1 1 1 2
M  V30 2 1 2 3
M  V30 3 1 3 4
M  V30 4 1 4 5
M  V30 5 1 5 6
M  V30 6 2 6 7
M  V30 7 1 7 8
M  V30 8 1 8 9
M  V30 9 2 9 10
M  V30 10 1 9 11
M  V30 11 2 11 12
M  V30 12 1 12 13
M  V30 13 2 13 14
M  V30 14 1 14 15
M  V30 15 1 15 16
M  V30 16 1 16 17
M  V30 17 1 17 18
M  V30 18 2 18 19
M  V30 19 1 18 20
M  V30 20 2 20 21
M  V30 21 1 21 22
M  V30 22 1 22 23
M  V30 23 2 23 24
M  V30 24 1 24 25
M  V30 25 2 25 26
M  V30 26 1 26 27
M  V30 27 2 27 28
M  V30 28 2 22 29
M  V30 29 1 29 30
M  V30 30 2 15 31
M  V30 31 1 7 32
M  V30 32 1 32 33
M  V30 33 1 33 34
M  V30 34 1 34 2
M  V30 35 2 33 5
M  V30 36 1 31 11
M  V30 37 1 30 20
M  V30 38 1 28 23
M  V30 39 1 1 35
M  V30 40 1 1 36
M  V30 41 1 1 37
M  V30 42 1 3 38
M  V30 43 1 3 39
M  V30 44 1 4 40
M  V30 45 1 4 41
M  V30 46 1 8 42
M  V30 47 1 12 43
M  V30 48 1 13 44
M  V30 49 1 14 45
M  V30 50 1 16 46
M  V30 51 1 16 47
M  V30 52 1 17 48
M  V30 53 1 21 49
M  V30 54 1 24 50
M  V30 55 1 25 51
M  V30 56 1 27 52
M  V30 57 1 28 53
M  V30 58 1 30 54
M  V30 59 1 31 55
M  V30 60 1 34 56
M  V30 61 1 34 57
M  V30 END BOND
M  V30 END CTAB
M  END
>  <Dataset>  (337) 
ChEMBL_Kinases

>  <Ligand_Instance>  (337) 
nan

>  <PDB_ID>  (337) 
nan

>  <Standardized_SMILES>  (337) 
CN1CCc2nc(NC(=O)c3cccc(CNC(=O)c4cc(-c5ccncc5)n[nH]4)c3)sc2C1

>  <Name>  (337) 
nan

>  <Pocket>  (337) 
nan

>  <ATP_Site>  (337) 
nan

>  <Peripheral>  (337) 
nan

>  <Num_H_Atoms_ProtBoundConf>  (337) 
nan

>  <Num_Resolved_Atoms>  (337) 
nan

>  <Num_Not_Resolved_Atoms>  (337) 
nan

$$$$
CHEMBL3680746
     RDKit          3D

  0  0  0  0  0  0  0  0  0  0999 V3000
M  V30 BEGIN CTAB
M  V30 COUNTS 63 67 0 0 0
M  V30 BEGIN ATOM
M  V30 1 C -2.612957 2.631992 5.739494 0
M  V30 2 C -1.176397 2.369874 5.470117 0
M  V30 3 N -0.287985 2.322622 6.445444 0
M  V30 4 C 0.960164 2.083464 6.090102 0
M  V30 5 C 2.186222 1.959651 6.850446 0
M  V30 6 C 2.142789 2.107197 8.219835 0
M  V30 7 C 3.344810 1.975502 8.868676 0
M  V30 8 N 4.533831 1.722860 8.315541 0
M  V30 9 C 4.573286 1.577892 6.963853 0
M  V30 10 C 3.387655 1.700325 6.251810 0
M  V30 11 S 0.904220 1.903635 4.203707 0
M  V30 12 C -0.876874 2.181383 4.075107 0
M  V30 13 C -1.458108 2.149056 2.787119 0
M  V30 14 O -0.663845 1.926722 1.837457 0
M  V30 15 N -2.804477 2.330760 2.411383 0
M  V30 16 C -3.384830 2.295527 1.091223 0
M  V30 17 C -3.505392 0.883953 0.645869 0
M  V30 18 C -4.715902 0.312210 1.021983 0
M  V30 19 C -5.026758 -0.992453 0.700750 0
M  V30 20 C -4.144773 -1.767161 -0.003095 0
M  V30 21 C -2.934576 -1.193400 -0.378081 0
M  V30 22 C -1.845159 -1.846399 -1.137632 0
M  V30 23 O -0.725776 -1.336733 -1.466268 0
M  V30 24 N -1.940224 -3.171081 -1.599942 0
M  V30 25 C -0.717370 -3.491141 -2.292998 0
M  V30 26 C 0.401265 -4.054960 -1.702330 0
M  V30 27 C 1.517313 -4.296093 -2.516427 0
M  V30 28 C 1.507376 -3.980997 -3.874637 0
M  V30 29 C 0.366166 -3.421768 -4.408754 0
M  V30 30 C -0.743442 -3.174259 -3.634216 0
M  V30 31 C 0.571304 -3.158437 -5.879337 0
M  V30 32 N 1.975162 -2.909035 -6.144902 0
M  V30 33 C 2.114504 -2.507976 -7.530087 0
M  V30 34 C 2.790380 -4.060013 -5.918839 0
M  V30 35 C 2.828466 -4.354358 -4.438324 0
M  V30 36 C -2.630646 0.114508 -0.052450 0
M  V30 37 H -3.183196 1.751156 5.397242 0
M  V30 38 H -2.949669 3.565685 5.226080 0
M  V30 39 H -2.819396 2.828450 6.814568 0
M  V30 40 H 1.186774 2.309212 8.654463 0
M  V30 41 H 3.319640 2.091458 9.957971 0
M  V30 42 H 5.488211 1.369888 6.401711 0
M  V30 43 H 3.410789 1.586109 5.176199 0
M  V30 44 H -3.476549 2.514940 3.181429 0
M  V30 45 H -4.340584 2.839724 1.031565 0
M  V30 46 H -2.664689 2.836338 0.424498 0
M  V30 47 H -5.508658 0.820133 1.586722 0
M  V30 48 H -5.963548 -1.489680 0.972188 0
M  V30 49 H -4.263861 -2.788383 -0.314452 0
M  V30 50 H -2.813649 -3.750696 -1.412340 0
M  V30 51 H 0.308467 -4.257432 -0.666222 0
M  V30 52 H 2.307985 -4.740566 -1.901872 0
M  V30 53 H -1.556018 -2.734939 -4.194370 0
M  V30 54 H 0.125781 -3.936178 -6.514766 0
M  V30 55 H 0.032456 -2.210724 -6.086403 0
M  V30 56 H 1.636508 -1.492657 -7.604845 0
M  V30 57 H 1.688618 -3.219929 -8.242851 0
M  V30 58 H 3.197316 -2.317795 -7.742010 0
M  V30 59 H 2.442600 -4.988544 -6.434758 0
M  V30 60 H 3.831463 -3.802298 -6.204587 0
M  V30 61 H 3.635211 -3.746203 -3.935133 0
M  V30 62 H 3.075758 -5.419995 -4.245772 0
M  V30 63 H -1.712644 0.617492 -0.315555 0
M  V30 END ATOM
M  V30 BEGIN BOND
M  V30 1 1 1 2
M  V30 2 1 2 3
M  V30 3 2 3 4
M  V30 4 1 4 5
M  V30 5 2 5 6
M  V30 6 1 6 7
M  V30 7 2 7 8
M  V30 8 1 8 9
M  V30 9 2 9 10
M  V30 10 1 4 11
M  V30 11 1 11 12
M  V30 12 1 12 13
M  V30 13 2 13 14
M  V30 14 1 13 15
M  V30 15 1 15 16
M  V30 16 1 16 17
M  V30 17 2 17 18
M  V30 18 1 18 19
M  V30 19 2 19 20
M  V30 20 1 20 21
M  V30 21 1 21 22
M  V30 22 2 22 23
M  V30 23 1 22 24
M  V30 24 1 24 25
M  V30 25 2 25 26
M  V30 26 1 26 27
M  V30 27 2 27 28
M  V30 28 1 28 29
M  V30 29 2 29 30
M  V30 30 1 29 31
M  V30 31 1 31 32
M  V30 32 1 32 33
M  V30 33 1 32 34
M  V30 34 1 34 35
M  V30 35 2 21 36
M  V30 36 2 12 2
M  V30 37 1 36 17
M  V30 38 1 10 5
M  V30 39 1 30 25
M  V30 40 1 35 28
M  V30 41 1 1 37
M  V30 42 1 1 38
M  V30 43 1 1 39
M  V30 44 1 6 40
M  V30 45 1 7 41
M  V30 46 1 9 42
M  V30 47 1 10 43
M  V30 48 1 15 44
M  V30 49 1 16 45
M  V30 50 1 16 46
M  V30 51 1 18 47
M  V30 52 1 19 48
M  V30 53 1 20 49
M  V30 54 1 24 50
M  V30 55 1 26 51
M  V30 56 1 27 52
M  V30 57 1 30 53
M  V30 58 1 31 54
M  V30 59 1 31 55
M  V30 60 1 33 56
M  V30 61 1 33 57
M  V30 62 1 33 58
M  V30 63 1 34 59
M  V30 64 1 34 60
M  V30 65 1 35 61
M  V30 66 1 35 62
M  V30 67 1 36 63
M  V30 END BOND
M  V30 END CTAB
M  END
>  <Dataset>  (338) 
ChEMBL_Kinases

>  <Ligand_Instance>  (338) 
nan

>  <PDB_ID>  (338) 
nan

>  <Standardized_SMILES>  (338) 
Cc1nc(-c2ccncc2)sc1C(=O)NCc1cccc(C(=O)Nc2ccc3c(c2)CN(C)CC3)c1

>  <Name>  (338) 
nan

>  <Pocket>  (338) 
nan

>  <ATP_Site>  (338) 
nan

>  <Peripheral>  (338) 
nan

>  <Num_H_Atoms_ProtBoundConf>  (338) 
nan

>  <Num_Resolved_Atoms>  (338) 
nan

>  <Num_Not_Resolved_Atoms>  (338) 
nan

$$$$
CHEMBL3680738
     RDKit          3D

  0  0  0  0  0  0  0  0  0  0999 V3000
M  V30 BEGIN CTAB
M  V30 COUNTS 59 63 0 0 0
M  V30 BEGIN ATOM
M  V30 1 C 6.787189 1.589715 4.665536 0
M  V30 2 N 5.963472 1.115010 3.598925 0
M  V30 3 C 6.362151 -0.141842 3.055444 0
M  V30 4 C 6.670210 -0.090581 1.561004 0
M  V30 5 C 5.411081 0.367267 0.912075 0
M  V30 6 C 4.754933 -0.223850 -0.147804 0
M  V30 7 C 3.588142 0.360605 -0.609144 0
M  V30 8 C 3.081954 1.508172 -0.031334 0
M  V30 9 N 1.858046 2.014226 -0.607973 0
M  V30 10 C 0.779462 1.415831 0.081230 0
M  V30 11 O 1.154055 0.613254 1.001057 0
M  V30 12 C -0.641607 1.682415 -0.220908 0
M  V30 13 C -1.026289 2.550123 -1.221189 0
M  V30 14 C -2.386575 2.699257 -1.388779 0
M  V30 15 C -3.323213 2.038480 -0.623003 0
M  V30 16 C -2.920951 1.174000 0.373351 0
M  V30 17 C -3.814561 0.391724 1.272841 0
M  V30 18 N -4.133308 -0.921635 0.757043 0
M  V30 19 C -5.076065 -1.149506 -0.284143 0
M  V30 20 O -5.717453 -0.225259 -0.847722 0
M  V30 21 C -5.302036 -2.524292 -0.711035 0
M  V30 22 C -6.124818 -2.964843 -1.652566 0
M  V30 23 C -6.222546 -4.301217 -1.937246 0
M  V30 24 C -5.398230 -5.140055 -1.166311 0
M  V30 25 C -5.189430 -6.593906 -1.139132 0
M  V30 26 C -4.335624 -7.244067 -0.312601 0
M  V30 27 N -4.485993 -8.528833 -0.647740 0
M  V30 28 N -5.388560 -8.648532 -1.630629 0
M  V30 29 C -5.865027 -7.417518 -1.974228 0
M  V30 30 S -4.509927 -3.961918 -0.055155 0
M  V30 31 C -1.564816 0.994417 0.576272 0
M  V30 32 C 3.745525 2.111580 1.045203 0
M  V30 33 C 4.906243 1.513515 1.489747 0
M  V30 34 C 5.633174 2.128366 2.628941 0
M  V30 35 H 6.771598 2.686662 4.755033 0
M  V30 36 H 7.845885 1.235264 4.609417 0
M  V30 37 H 6.378954 1.168080 5.631059 0
M  V30 38 H 5.626746 -0.926937 3.289180 0
M  V30 39 H 7.321188 -0.418129 3.535952 0
M  V30 40 H 6.900865 -1.155256 1.271189 0
M  V30 41 H 7.523920 0.563385 1.369209 0
M  V30 42 H 5.223107 -1.116444 -0.535176 0
M  V30 43 H 3.092142 -0.119409 -1.439712 0
M  V30 44 H 1.655943 2.684420 -1.375540 0
M  V30 45 H -0.298384 3.059092 -1.811155 0
M  V30 46 H -2.728879 3.366210 -2.157936 0
M  V30 47 H -4.385510 2.162564 -0.759351 0
M  V30 48 H -4.762013 0.945694 1.472058 0
M  V30 49 H -3.349930 0.259933 2.269034 0
M  V30 50 H -3.642922 -1.761848 1.170463 0
M  V30 51 H -6.758549 -2.279851 -2.239814 0
M  V30 52 H -6.831338 -4.821299 -2.660051 0
M  V30 53 H -3.688524 -6.799312 0.440747 0
M  V30 54 H -5.678588 -9.570422 -2.066257 0
M  V30 55 H -6.589899 -7.178595 -2.718260 0
M  V30 56 H -1.198749 0.313260 1.361185 0
M  V30 57 H 3.304848 3.007817 1.458731 0
M  V30 58 H 5.075814 2.958358 3.086177 0
M  V30 59 H 6.592532 2.531723 2.243342 0
M  V30 END ATOM
M  V30 BEGIN BOND
M  V30 1 1 1 2
M  V30 2 1 2 3
M  V30 3 1 3 4
M  V30 4 1 4 5
M  V30 5 2 5 6
M  V30 6 1 6 7
M  V30 7 2 7 8
M  V30 8 1 8 9
M  V30 9 1 9 10
M  V30 10 2 10 11
M  V30 11 1 10 12
M  V30 12 2 12 13
M  V30 13 1 13 14
M  V30 14 2 14 15
M  V30 15 1 15 16
M  V30 16 1 16 17
M  V30 17 1 17 18
M  V30 18 1 18 19
M  V30 19 2 19 20
M  V30 20 1 19 21
M  V30 21 2 21 22
M  V30 22 1 22 23
M  V30 23 2 23 24
M  V30 24 1 24 25
M  V30 25 1 25 26
M  V30 26 2 26 27
M  V30 27 1 27 28
M  V30 28 1 28 29
M  V30 29 1 24 30
M  V30 30 2 16 31
M  V30 31 1 8 32
M  V30 32 2 32 33
M  V30 33 1 33 34
M  V30 34 1 34 2
M  V30 35 1 33 5
M  V30 36 1 31 12
M  V30 37 1 30 21
M  V30 38 2 29 25
M  V30 39 1 1 35
M  V30 40 1 1 36
M  V30 41 1 1 37
M  V30 42 1 3 38
M  V30 43 1 3 39
M  V30 44 1 4 40
M  V30 45 1 4 41
M  V30 46 1 6 42
M  V30 47 1 7 43
M  V30 48 1 9 44
M  V30 49 1 13 45
M  V30 50 1 14 46
M  V30 51 1 15 47
M  V30 52 1 17 48
M  V30 53 1 17 49
M  V30 54 1 18 50
M  V30 55 1 22 51
M  V30 56 1 23 52
M  V30 57 1 26 53
M  V30 58 1 28 54
M  V30 59 1 29 55
M  V30 60 1 31 56
M  V30 61 1 32 57
M  V30 62 1 34 58
M  V30 63 1 34 59
M  V30 END BOND
M  V30 END CTAB
M  END
>  <Dataset>  (339) 
ChEMBL_Kinases

>  <Ligand_Instance>  (339) 
nan

>  <PDB_ID>  (339) 
nan

>  <Standardized_SMILES>  (339) 
CN1CCc2ccc(NC(=O)c3cccc(CNC(=O)c4ccc(-c5cn[nH]c5)s4)c3)cc2C1

>  <Name>  (339) 
nan

>  <Pocket>  (339) 
nan

>  <ATP_Site>  (339) 
nan

>  <Peripheral>  (339) 
nan

>  <Num_H_Atoms_ProtBoundConf>  (339) 
nan

>  <Num_Resolved_Atoms>  (339) 
nan

>  <Num_Not_Resolved_Atoms>  (339) 
nan

$$$$
CHEMBL3680739
     RDKit          3D

  0  0  0  0  0  0  0  0  0  0999 V3000
M  V30 BEGIN CTAB
M  V30 COUNTS 60 64 0 0 0
M  V30 BEGIN ATOM
M  V30 1 C 6.023849 -1.646351 3.793328 0
M  V30 2 N 6.435606 -0.570247 2.936606 0
M  V30 3 C 6.661156 0.596725 3.744302 0
M  V30 4 C 6.496397 1.900975 2.968136 0
M  V30 5 C 5.046988 1.959740 2.564135 0
M  V30 6 C 4.271238 3.084248 2.719801 0
M  V30 7 C 2.954237 3.022361 2.315944 0
M  V30 8 C 2.438769 1.863464 1.773082 0
M  V30 9 N 1.101794 1.678914 1.321011 0
M  V30 10 C 0.918868 2.007687 -0.044097 0
M  V30 11 O 1.951890 2.407957 -0.638652 0
M  V30 12 C -0.337821 1.919382 -0.786656 0
M  V30 13 C -0.285416 2.303623 -2.121384 0
M  V30 14 C -1.448436 2.236563 -2.870616 0
M  V30 15 C -2.597568 1.790982 -2.249348 0
M  V30 16 C -2.684472 1.402202 -0.927999 0
M  V30 17 C -3.971221 0.933882 -0.345043 0
M  V30 18 N -4.195265 -0.471367 -0.429286 0
M  V30 19 C -4.576509 -1.244526 -1.545646 0
M  V30 20 O -4.750562 -0.629192 -2.646558 0
M  V30 21 C -4.778027 -2.689763 -1.502587 0
M  V30 22 C -4.623131 -3.467644 -0.350951 0
M  V30 23 C -4.914988 -4.768073 -0.777920 0
M  V30 24 C -4.934631 -5.985424 -0.091416 0
M  V30 25 C -5.268737 -7.154512 -0.778021 0
M  V30 26 C -5.305808 -8.432991 -0.122514 0
M  V30 27 N -5.343610 -9.479200 0.407396 0
M  V30 28 C -5.581749 -7.143996 -2.121039 0
M  V30 29 C -5.557218 -5.933817 -2.781659 0
M  V30 30 C -5.231248 -4.753268 -2.137591 0
M  V30 31 N -5.134924 -3.468762 -2.536376 0
M  V30 32 C -1.506634 1.479151 -0.201288 0
M  V30 33 C 3.266926 0.741292 1.633258 0
M  V30 34 C 4.598792 0.763958 2.028265 0
M  V30 35 C 5.488053 -0.415458 1.884748 0
M  V30 36 H 5.374976 -1.179650 4.582410 0
M  V30 37 H 5.355296 -2.315409 3.214281 0
M  V30 38 H 6.877247 -2.194719 4.241525 0
M  V30 39 H 5.966688 0.626040 4.607748 0
M  V30 40 H 7.714997 0.515557 4.127549 0
M  V30 41 H 6.682522 2.717112 3.684422 0
M  V30 42 H 7.154045 1.920245 2.087807 0
M  V30 43 H 4.698237 3.975640 3.146260 0
M  V30 44 H 2.283583 3.865522 2.406962 0
M  V30 45 H 0.242013 1.338888 1.845841 0
M  V30 46 H 0.616134 2.650639 -2.600721 0
M  V30 47 H -1.415049 2.534280 -3.910206 0
M  V30 48 H -3.459780 1.772988 -2.911858 0
M  V30 49 H -4.048766 1.239733 0.718442 0
M  V30 50 H -4.842035 1.427358 -0.840296 0
M  V30 51 H -4.073191 -1.074139 0.440806 0
M  V30 52 H -4.344828 -3.185449 0.658795 0
M  V30 53 H -4.695790 -6.033009 0.959710 0
M  V30 54 H -5.840864 -8.073436 -2.638002 0
M  V30 55 H -5.802370 -5.939987 -3.825490 0
M  V30 56 H -5.322251 -3.192181 -3.510760 0
M  V30 57 H -1.527138 1.182777 0.844178 0
M  V30 58 H 2.880495 -0.193634 1.203648 0
M  V30 59 H 6.028752 -0.275010 0.908091 0
M  V30 60 H 4.827163 -1.293635 1.740359 0
M  V30 END ATOM
M  V30 BEGIN BOND
M  V30 1 1 1 2
M  V30 2 1 2 3
M  V30 3 1 3 4
M  V30 4 1 4 5
M  V30 5 2 5 6
M  V30 6 1 6 7
M  V30 7 2 7 8
M  V30 8 1 8 9
M  V30 9 1 9 10
M  V30 10 2 10 11
M  V30 11 1 10 12
M  V30 12 2 12 13
M  V30 13 1 13 14
M  V30 14 2 14 15
M  V30 15 1 15 16
M  V30 16 1 16 17
M  V30 17 1 17 18
M  V30 18 1 18 19
M  V30 19 2 19 20
M  V30 20 1 19 21
M  V30 21 2 21 22
M  V30 22 1 22 23
M  V30 23 2 23 24
M  V30 24 1 24 25
M  V30 25 1 25 26
M  V30 26 3 26 27
M  V30 27 2 25 28
M  V30 28 1 28 29
M  V30 29 2 29 30
M  V30 30 1 30 31
M  V30 31 2 16 32
M  V30 32 1 8 33
M  V30 33 2 33 34
M  V30 34 1 34 35
M  V30 35 1 35 2
M  V30 36 1 34 5
M  V30 37 1 32 12
M  V30 38 1 31 21
M  V30 39 1 30 23
M  V30 40 1 1 36
M  V30 41 1 1 37
M  V30 42 1 1 38
M  V30 43 1 3 39
M  V30 44 1 3 40
M  V30 45 1 4 41
M  V30 46 1 4 42
M  V30 47 1 6 43
M  V30 48 1 7 44
M  V30 49 1 9 45
M  V30 50 1 13 46
M  V30 51 1 14 47
M  V30 52 1 15 48
M  V30 53 1 17 49
M  V30 54 1 17 50
M  V30 55 1 18 51
M  V30 56 1 22 52
M  V30 57 1 24 53
M  V30 58 1 28 54
M  V30 59 1 29 55
M  V30 60 1 31 56
M  V30 61 1 32 57
M  V30 62 1 33 58
M  V30 63 1 35 59
M  V30 64 1 35 60
M  V30 END BOND
M  V30 END CTAB
M  END
>  <Dataset>  (340) 
ChEMBL_Kinases

>  <Ligand_Instance>  (340) 
nan

>  <PDB_ID>  (340) 
nan

>  <Standardized_SMILES>  (340) 
CN1CCc2ccc(NC(=O)c3cccc(CNC(=O)c4cc5cc(C#N)ccc5[nH]4)c3)cc2C1

>  <Name>  (340) 
nan

>  <Pocket>  (340) 
nan

>  <ATP_Site>  (340) 
nan

>  <Peripheral>  (340) 
nan

>  <Num_H_Atoms_ProtBoundConf>  (340) 
nan

>  <Num_Resolved_Atoms>  (340) 
nan

>  <Num_Not_Resolved_Atoms>  (340) 
nan

$$$$
CHEMBL3680740
     RDKit          3D

  0  0  0  0  0  0  0  0  0  0999 V3000
M  V30 BEGIN CTAB
M  V30 COUNTS 66 70 0 0 0
M  V30 BEGIN ATOM
M  V30 1 C 3.903014 0.125223 6.364001 0
M  V30 2 N 5.193533 0.781608 6.354983 0
M  V30 3 C 6.289575 -0.111813 6.079140 0
M  V30 4 C 6.255376 -0.676665 4.699310 0
M  V30 5 C 5.412218 0.164874 3.834089 0
M  V30 6 C 5.225634 -0.463658 2.599166 0
M  V30 7 C 4.455480 0.135006 1.595030 0
M  V30 8 C 3.894416 1.347179 1.857919 0
M  V30 9 N 3.073985 2.082051 0.922401 0
M  V30 10 C 1.743735 1.667503 1.150358 0
M  V30 11 O 1.639368 0.804868 2.070361 0
M  V30 12 C 0.562439 2.160161 0.417320 0
M  V30 13 C 0.693300 3.107454 -0.588123 0
M  V30 14 C -0.482811 3.487107 -1.197720 0
M  V30 15 C -1.719336 2.988818 -0.865269 0
M  V30 16 C -1.837358 2.060967 0.120874 0
M  V30 17 C -3.074593 1.384739 0.637138 0
M  V30 18 N -3.326179 0.140045 -0.055135 0
M  V30 19 C -3.873440 -0.036743 -1.344541 0
M  V30 20 O -4.146244 1.077468 -1.878437 0
M  V30 21 C -4.135889 -1.259484 -2.066379 0
M  V30 22 C -4.692695 -1.151502 -3.326938 0
M  V30 23 C -4.860644 -2.436701 -3.841450 0
M  V30 24 C -5.341483 -3.007304 -4.998284 0
M  V30 25 C -5.378719 -4.365586 -5.222232 0
M  V30 26 C -4.915587 -5.223835 -4.251444 0
M  V30 27 C -4.911094 -6.673019 -4.390885 0
M  V30 28 N -5.393077 -7.300631 -5.570026 0
M  V30 29 O -4.492231 -7.461201 -3.503924 0
M  V30 30 C -4.433440 -4.661505 -3.092486 0
M  V30 31 C -4.398808 -3.294391 -2.874181 0
M  V30 32 N -3.978125 -2.570746 -1.840014 0
M  V30 33 C -3.420272 -3.074887 -0.624079 0
M  V30 34 C -0.667189 1.643487 0.770696 0
M  V30 35 C 4.054323 2.000152 3.062483 0
M  V30 36 C 4.816546 1.391297 4.035483 0
M  V30 37 C 5.139613 1.888985 5.421042 0
M  V30 38 H 3.197159 0.782822 6.931503 0
M  V30 39 H 3.881986 -0.853047 6.841688 0
M  V30 40 H 3.450332 0.084079 5.330805 0
M  V30 41 H 6.239247 -0.903907 6.873891 0
M  V30 42 H 7.214643 0.467596 6.216604 0
M  V30 43 H 5.909062 -1.751854 4.694525 0
M  V30 44 H 7.302111 -0.682635 4.286045 0
M  V30 45 H 5.625650 -1.436519 2.271039 0
M  V30 46 H 4.286131 -0.315637 0.627282 0
M  V30 47 H 3.246573 2.797605 0.174311 0
M  V30 48 H 1.655288 3.513642 -0.867052 0
M  V30 49 H -0.457160 4.230654 -1.999804 0
M  V30 50 H -2.647672 3.280661 -1.331987 0
M  V30 51 H -3.004653 1.200023 1.720446 0
M  V30 52 H -3.960690 2.058960 0.507965 0
M  V30 53 H -3.069947 -0.730332 0.464742 0
M  V30 54 H -5.016348 -0.340260 -3.982968 0
M  V30 55 H -5.709845 -2.348509 -5.772659 0
M  V30 56 H -5.760570 -4.756465 -6.135735 0
M  V30 57 H -6.135859 -7.113696 -6.291082 0
M  V30 58 H -5.022409 -8.192692 -5.968287 0
M  V30 59 H -4.054771 -5.300152 -2.291769 0
M  V30 60 H -3.383869 -4.206477 -0.691676 0
M  V30 61 H -2.356181 -2.747983 -0.529583 0
M  V30 62 H -4.039927 -2.871440 0.258553 0
M  V30 63 H -0.693102 0.897234 1.575927 0
M  V30 64 H 3.659220 2.955087 3.379654 0
M  V30 65 H 4.283904 2.527692 5.718568 0
M  V30 66 H 6.045137 2.511924 5.446044 0
M  V30 END ATOM
M  V30 BEGIN BOND
M  V30 1 1 1 2
M  V30 2 1 2 3
M  V30 3 1 3 4
M  V30 4 1 4 5
M  V30 5 2 5 6
M  V30 6 1 6 7
M  V30 7 2 7 8
M  V30 8 1 8 9
M  V30 9 1 9 10
M  V30 10 2 10 11
M  V30 11 1 10 12
M  V30 12 2 12 13
M  V30 13 1 13 14
M  V30 14 2 14 15
M  V30 15 1 15 16
M  V30 16 1 16 17
M  V30 17 1 17 18
M  V30 18 1 18 19
M  V30 19 2 19 20
M  V30 20 1 19 21
M  V30 21 2 21 22
M  V30 22 1 22 23
M  V30 23 2 23 24
M  V30 24 1 24 25
M  V30 25 2 25 26
M  V30 26 1 26 27
M  V30 27 1 27 28
M  V30 28 2 27 29
M  V30 29 1 26 30
M  V30 30 2 30 31
M  V30 31 1 31 32
M  V30 32 1 32 33
M  V30 33 2 16 34
M  V30 34 1 8 35
M  V30 35 2 35 36
M  V30 36 1 36 37
M  V30 37 1 37 2
M  V30 38 1 36 5
M  V30 39 1 34 12
M  V30 40 1 32 21
M  V30 41 1 31 23
M  V30 42 1 1 38
M  V30 43 1 1 39
M  V30 44 1 1 40
M  V30 45 1 3 41
M  V30 46 1 3 42
M  V30 47 1 4 43
M  V30 48 1 4 44
M  V30 49 1 6 45
M  V30 50 1 7 46
M  V30 51 1 9 47
M  V30 52 1 13 48
M  V30 53 1 14 49
M  V30 54 1 15 50
M  V30 55 1 17 51
M  V30 56 1 17 52
M  V30 57 1 18 53
M  V30 58 1 22 54
M  V30 59 1 24 55
M  V30 60 1 25 56
M  V30 61 1 28 57
M  V30 62 1 28 58
M  V30 63 1 30 59
M  V30 64 1 33 60
M  V30 65 1 33 61
M  V30 66 1 33 62
M  V30 67 1 34 63
M  V30 68 1 35 64
M  V30 69 1 37 65
M  V30 70 1 37 66
M  V30 END BOND
M  V30 END CTAB
M  END
>  <Dataset>  (341) 
ChEMBL_Kinases

>  <Ligand_Instance>  (341) 
nan

>  <PDB_ID>  (341) 
nan

>  <Standardized_SMILES>  (341) 
CN1CCc2ccc(NC(=O)c3cccc(CNC(=O)c4cc5ccc(C(N)=O)cc5n4C)c3)cc2C1

>  <Name>  (341) 
nan

>  <Pocket>  (341) 
nan

>  <ATP_Site>  (341) 
nan

>  <Peripheral>  (341) 
nan

>  <Num_H_Atoms_ProtBoundConf>  (341) 
nan

>  <Num_Resolved_Atoms>  (341) 
nan

>  <Num_Not_Resolved_Atoms>  (341) 
nan

$$$$
CHEMBL3680741
     RDKit          3D

  0  0  0  0  0  0  0  0  0  0999 V3000
M  V30 BEGIN CTAB
M  V30 COUNTS 63 67 0 0 0
M  V30 BEGIN ATOM
M  V30 1 C 6.234388 -0.832355 0.300100 0
M  V30 2 N 6.676576 0.565059 0.329563 0
M  V30 3 C 7.174915 0.970016 -0.944467 0
M  V30 4 C 6.672765 2.316366 -1.418325 0
M  V30 5 C 5.193659 2.338463 -1.300299 0
M  V30 6 C 4.323224 2.794339 -2.266485 0
M  V30 7 C 2.971419 2.747410 -2.005543 0
M  V30 8 C 2.422964 2.275856 -0.843973 0
M  V30 9 N 1.046061 2.203679 -0.523762 0
M  V30 10 C -0.081488 2.587029 -1.279351 0
M  V30 11 O 0.103152 3.076051 -2.421386 0
M  V30 12 C -1.469774 2.466151 -0.850179 0
M  V30 13 C -2.455406 2.894629 -1.712039 0
M  V30 14 C -3.809312 2.805557 -1.366445 0
M  V30 15 C -4.182596 2.282966 -0.147259 0
M  V30 16 C -3.206245 1.843642 0.740020 0
M  V30 17 C -3.529077 1.253855 2.089283 0
M  V30 18 N -3.666732 -0.168545 2.034687 0
M  V30 19 C -4.768278 -0.909023 1.530597 0
M  V30 20 O -5.759055 -0.312095 1.070589 0
M  V30 21 C -4.751646 -2.388945 1.545487 0
M  V30 22 C -3.716214 -3.181780 2.037095 0
M  V30 23 C -4.140139 -4.481485 1.840411 0
M  V30 24 C -3.484871 -5.662874 2.153029 0
M  V30 25 C -4.044340 -6.897910 1.891661 0
M  V30 26 C -3.417909 -8.176027 2.191657 0
M  V30 27 N -2.134542 -8.144499 2.803749 0
M  V30 28 O -3.942137 -9.292623 1.942789 0
M  V30 29 C -5.292183 -6.869335 1.301735 0
M  V30 30 C -5.970400 -5.712624 0.978311 0
M  V30 31 C -5.389565 -4.489395 1.249881 0
M  V30 32 N -5.733654 -3.183031 1.083602 0
M  V30 33 C -1.903252 1.954368 0.351363 0
M  V30 34 C 3.322954 1.830035 0.095413 0
M  V30 35 C 4.670438 1.857633 -0.119634 0
M  V30 36 C 5.632153 1.384189 0.879219 0
M  V30 37 H 7.094970 -1.514220 0.276622 0
M  V30 38 H 5.493514 -1.016163 -0.500987 0
M  V30 39 H 5.668876 -1.015728 1.259079 0
M  V30 40 H 8.287063 1.045638 -0.873276 0
M  V30 41 H 6.981419 0.204308 -1.741436 0
M  V30 42 H 7.162188 3.152104 -0.898478 0
M  V30 43 H 6.955615 2.411576 -2.487126 0
M  V30 44 H 4.738846 3.169485 -3.188632 0
M  V30 45 H 2.340305 3.110773 -2.782270 0
M  V30 46 H 0.751242 1.816930 0.398894 0
M  V30 47 H -2.257167 3.319259 -2.691855 0
M  V30 48 H -4.574821 3.155557 -2.074631 0
M  V30 49 H -5.222018 2.206765 0.139317 0
M  V30 50 H -4.411333 1.789808 2.492919 0
M  V30 51 H -2.696029 1.522470 2.767801 0
M  V30 52 H -2.871751 -0.772745 2.405229 0
M  V30 53 H -2.794053 -2.823434 2.471938 0
M  V30 54 H -2.515158 -5.635219 2.611380 0
M  V30 55 H -1.563146 -7.887249 3.638643 0
M  V30 56 H -1.455549 -8.569980 2.106080 0
M  V30 57 H -5.758972 -7.836610 1.083296 0
M  V30 58 H -6.957138 -5.727626 0.511623 0
M  V30 59 H -6.631676 -2.888078 0.658383 0
M  V30 60 H -1.156277 1.612792 1.042822 0
M  V30 61 H 2.971982 1.437204 1.051043 0
M  V30 62 H 5.084261 0.805659 1.653895 0
M  V30 63 H 6.083485 2.249405 1.448927 0
M  V30 END ATOM
M  V30 BEGIN BOND
M  V30 1 1 1 2
M  V30 2 1 2 3
M  V30 3 1 3 4
M  V30 4 1 4 5
M  V30 5 2 5 6
M  V30 6 1 6 7
M  V30 7 2 7 8
M  V30 8 1 8 9
M  V30 9 1 9 10
M  V30 10 2 10 11
M  V30 11 1 10 12
M  V30 12 2 12 13
M  V30 13 1 13 14
M  V30 14 2 14 15
M  V30 15 1 15 16
M  V30 16 1 16 17
M  V30 17 1 17 18
M  V30 18 1 18 19
M  V30 19 2 19 20
M  V30 20 1 19 21
M  V30 21 2 21 22
M  V30 22 1 22 23
M  V30 23 2 23 24
M  V30 24 1 24 25
M  V30 25 1 25 26
M  V30 26 1 26 27
M  V30 27 2 26 28
M  V30 28 2 25 29
M  V30 29 1 29 30
M  V30 30 2 30 31
M  V30 31 1 31 32
M  V30 32 2 16 33
M  V30 33 1 8 34
M  V30 34 2 34 35
M  V30 35 1 35 36
M  V30 36 1 36 2
M  V30 37 1 35 5
M  V30 38 1 33 12
M  V30 39 1 32 21
M  V30 40 1 31 23
M  V30 41 1 1 37
M  V30 42 1 1 38
M  V30 43 1 1 39
M  V30 44 1 3 40
M  V30 45 1 3 41
M  V30 46 1 4 42
M  V30 47 1 4 43
M  V30 48 1 6 44
M  V30 49 1 7 45
M  V30 50 1 9 46
M  V30 51 1 13 47
M  V30 52 1 14 48
M  V30 53 1 15 49
M  V30 54 1 17 50
M  V30 55 1 17 51
M  V30 56 1 18 52
M  V30 57 1 22 53
M  V30 58 1 24 54
M  V30 59 1 27 55
M  V30 60 1 27 56
M  V30 61 1 29 57
M  V30 62 1 30 58
M  V30 63 1 32 59
M  V30 64 1 33 60
M  V30 65 1 34 61
M  V30 66 1 36 62
M  V30 67 1 36 63
M  V30 END BOND
M  V30 END CTAB
M  END
>  <Dataset>  (342) 
ChEMBL_Kinases

>  <Ligand_Instance>  (342) 
nan

>  <PDB_ID>  (342) 
nan

>  <Standardized_SMILES>  (342) 
CN1CCc2ccc(NC(=O)c3cccc(CNC(=O)c4cc5cc(C(N)=O)ccc5[nH]4)c3)cc2C1

>  <Name>  (342) 
nan

>  <Pocket>  (342) 
nan

>  <ATP_Site>  (342) 
nan

>  <Peripheral>  (342) 
nan

>  <Num_H_Atoms_ProtBoundConf>  (342) 
nan

>  <Num_Resolved_Atoms>  (342) 
nan

>  <Num_Not_Resolved_Atoms>  (342) 
nan

$$$$
CHEMBL3680742
     RDKit          3D

  0  0  0  0  0  0  0  0  0  0999 V3000
M  V30 BEGIN CTAB
M  V30 COUNTS 55 59 0 0 0
M  V30 BEGIN ATOM
M  V30 1 C 7.974367 -2.308874 1.319286 0
M  V30 2 N 6.798197 -1.630565 0.865990 0
M  V30 3 C 6.876041 -1.124529 -0.477765 0
M  V30 4 C 6.746823 0.402441 -0.461662 0
M  V30 5 C 5.412177 0.763164 0.078558 0
M  V30 6 N 4.408679 1.498612 -0.377406 0
M  V30 7 C 3.415301 1.713671 0.125734 0
M  V30 8 N 2.096247 2.411302 0.022458 0
M  V30 9 C 1.172882 1.540367 -0.578801 0
M  V30 10 O 1.579305 0.376554 -0.917297 0
M  V30 11 C -0.210840 1.959870 -0.806951 0
M  V30 12 C -0.721916 3.200030 -0.479638 0
M  V30 13 C -2.046110 3.491550 -0.734386 0
M  V30 14 C -2.911284 2.589442 -1.313278 0
M  V30 15 C -2.421182 1.343631 -1.648515 0
M  V30 16 C -3.210518 0.231710 -2.277745 0
M  V30 17 N -3.790159 -0.623313 -1.277519 0
M  V30 18 C -4.909494 -0.415831 -0.444038 0
M  V30 19 O -5.499149 0.703886 -0.603017 0
M  V30 20 C -5.340513 -1.421205 0.520178 0
M  V30 21 C -4.742748 -2.660030 0.729188 0
M  V30 22 N -5.473025 -3.256145 1.716804 0
M  V30 23 C -5.291384 -4.476658 2.278722 0
M  V30 24 C -6.133642 -4.930726 3.281244 0
M  V30 25 C -5.881648 -6.232777 3.830711 0
M  V30 26 N -5.697656 -7.281696 4.278715 0
M  V30 27 C -7.159729 -4.103799 3.688134 0
M  V30 28 C -7.346439 -2.858288 3.116028 0
M  V30 29 C -6.468910 -2.451018 2.110178 0
M  V30 30 N -6.372234 -1.323681 1.361598 0
M  V30 31 C -1.077795 1.034645 -1.395092 0
M  V30 32 S 3.601987 0.737614 1.772173 0
M  V30 33 C 5.248212 0.186511 1.300200 0
M  V30 34 C 6.370498 -0.651118 1.833921 0
M  V30 35 H 8.033711 -2.169816 2.416333 0
M  V30 36 H 8.854271 -1.852185 0.852006 0
M  V30 37 H 7.897065 -3.404948 1.120237 0
M  V30 38 H 7.879539 -1.341289 -0.872891 0
M  V30 39 H 6.053691 -1.557758 -1.080435 0
M  V30 40 H 7.531074 0.817478 0.197782 0
M  V30 41 H 6.956019 0.751518 -1.469069 0
M  V30 42 H 1.877842 3.362450 0.330807 0
M  V30 43 H -0.051713 3.915932 -0.024582 0
M  V30 44 H -2.465485 4.466847 -0.481522 0
M  V30 45 H -3.951608 2.771427 -1.531771 0
M  V30 46 H -4.019005 0.750172 -2.839497 0
M  V30 47 H -2.637706 -0.335083 -3.013271 0
M  V30 48 H -3.308866 -1.552981 -1.139844 0
M  V30 49 H -3.878881 -3.085479 0.226627 0
M  V30 50 H -4.473097 -5.130454 1.950598 0
M  V30 51 H -7.814450 -4.453845 4.465760 0
M  V30 52 H -8.158808 -2.194931 3.433061 0
M  V30 53 H -0.670169 0.046696 -1.656137 0
M  V30 54 H 6.071583 -1.198935 2.737374 0
M  V30 55 H 7.225736 0.019506 2.048970 0
M  V30 END ATOM
M  V30 BEGIN BOND
M  V30 1 1 1 2
M  V30 2 1 2 3
M  V30 3 1 3 4
M  V30 4 1 4 5
M  V30 5 1 5 6
M  V30 6 2 6 7
M  V30 7 1 7 8
M  V30 8 1 8 9
M  V30 9 2 9 10
M  V30 10 1 9 11
M  V30 11 2 11 12
M  V30 12 1 12 13
M  V30 13 2 13 14
M  V30 14 1 14 15
M  V30 15 1 15 16
M  V30 16 1 16 17
M  V30 17 1 17 18
M  V30 18 2 18 19
M  V30 19 1 18 20
M  V30 20 2 20 21
M  V30 21 1 21 22
M  V30 22 1 22 23
M  V30 23 2 23 24
M  V30 24 1 24 25
M  V30 25 3 25 26
M  V30 26 1 24 27
M  V30 27 2 27 28
M  V30 28 1 28 29
M  V30 29 2 29 30
M  V30 30 2 15 31
M  V30 31 1 7 32
M  V30 32 1 32 33
M  V30 33 1 33 34
M  V30 34 1 34 2
M  V30 35 2 33 5
M  V30 36 1 31 11
M  V30 37 1 30 20
M  V30 38 1 29 22
M  V30 39 1 1 35
M  V30 40 1 1 36
M  V30 41 1 1 37
M  V30 42 1 3 38
M  V30 43 1 3 39
M  V30 44 1 4 40
M  V30 45 1 4 41
M  V30 46 1 8 42
M  V30 47 1 12 43
M  V30 48 1 13 44
M  V30 49 1 14 45
M  V30 50 1 16 46
M  V30 51 1 16 47
M  V30 52 1 17 48
M  V30 53 1 21 49
M  V30 54 1 23 50
M  V30 55 1 27 51
M  V30 56 1 28 52
M  V30 57 1 31 53
M  V30 58 1 34 54
M  V30 59 1 34 55
M  V30 END BOND
M  V30 END CTAB
M  END
>  <Dataset>  (343) 
ChEMBL_Kinases

>  <Ligand_Instance>  (343) 
nan

>  <PDB_ID>  (343) 
nan

>  <Standardized_SMILES>  (343) 
CN1CCc2nc(NC(=O)c3cccc(CNC(=O)c4cn5cc(C#N)ccc5n4)c3)sc2C1

>  <Name>  (343) 
nan

>  <Pocket>  (343) 
nan

>  <ATP_Site>  (343) 
nan

>  <Peripheral>  (343) 
nan

>  <Num_H_Atoms_ProtBoundConf>  (343) 
nan

>  <Num_Resolved_Atoms>  (343) 
nan

>  <Num_Not_Resolved_Atoms>  (343) 
nan

$$$$
CHEMBL3680743
     RDKit          3D

  0  0  0  0  0  0  0  0  0  0999 V3000
M  V30 BEGIN CTAB
M  V30 COUNTS 58 62 0 0 0
M  V30 BEGIN ATOM
M  V30 1 C 4.587680 1.158419 6.489076 0
M  V30 2 N 5.531560 0.266117 5.893323 0
M  V30 3 C 5.093646 -1.090951 5.749395 0
M  V30 4 C 3.715063 -1.255352 5.211104 0
M  V30 5 C 3.540399 -0.203173 4.145005 0
M  V30 6 N 2.365899 -0.222661 3.530277 0
M  V30 7 C 2.159406 0.652283 2.607675 0
M  V30 8 N 1.046111 0.950489 1.730386 0
M  V30 9 C 1.108989 1.998399 0.780550 0
M  V30 10 O 2.148940 2.668883 0.710205 0
M  V30 11 C -0.017977 2.289302 -0.098821 0
M  V30 12 C 0.174181 3.328451 -0.988160 0
M  V30 13 C -0.849103 3.675516 -1.868311 0
M  V30 14 C -2.008832 2.922174 -1.770707 0
M  V30 15 C -2.197132 1.884011 -0.880135 0
M  V30 16 C -3.525186 1.224687 -0.962012 0
M  V30 17 N -3.580245 0.120220 -1.867167 0
M  V30 18 C -3.045425 -1.162616 -1.585859 0
M  V30 19 O -2.466407 -1.462483 -0.509859 0
M  V30 20 N -3.171235 -2.171791 -2.579815 0
M  V30 21 C -3.786068 -2.061382 -3.890975 0
M  V30 22 C -4.408118 -3.426615 -4.047922 0
M  V30 23 C -3.432792 -4.311924 -3.348622 0
M  V30 24 C -3.257052 -5.681886 -3.517862 0
M  V30 25 C -4.054478 -6.416980 -4.445046 0
M  V30 26 N -4.696670 -7.012492 -5.184494 0
M  V30 27 C -2.274706 -6.274765 -2.741149 0
M  V30 28 C -1.546814 -5.494279 -1.868234 0
M  V30 29 C -1.733324 -4.128621 -1.710251 0
M  V30 30 C -2.699951 -3.521408 -2.468616 0
M  V30 31 C -1.186757 1.561363 -0.030195 0
M  V30 32 S 3.689461 1.619441 2.535502 0
M  V30 33 C 4.496457 0.682129 3.839682 0
M  V30 34 C 5.814081 0.719794 4.520310 0
M  V30 35 H 3.598199 0.712705 6.711175 0
M  V30 36 H 4.372469 2.057072 5.846859 0
M  V30 37 H 5.043355 1.602352 7.417407 0
M  V30 38 H 5.179241 -1.619447 6.730967 0
M  V30 39 H 5.821026 -1.573011 5.037186 0
M  V30 40 H 3.599968 -2.284307 4.811903 0
M  V30 41 H 3.002309 -1.121680 6.050414 0
M  V30 42 H 0.235979 0.344363 1.864869 0
M  V30 43 H 1.096153 3.901279 -1.040507 0
M  V30 44 H -0.733501 4.483038 -2.577160 0
M  V30 45 H -2.783024 3.237939 -2.487731 0
M  V30 46 H -3.702836 0.807612 0.070104 0
M  V30 47 H -4.321832 1.968237 -1.111544 0
M  V30 48 H -4.049365 0.307738 -2.777851 0
M  V30 49 H -4.628849 -1.318136 -3.900735 0
M  V30 50 H -3.014826 -1.839777 -4.643435 0
M  V30 51 H -5.360005 -3.424694 -3.467337 0
M  V30 52 H -4.524877 -3.734701 -5.097390 0
M  V30 53 H -2.107885 -7.343218 -2.844914 0
M  V30 54 H -0.787748 -5.992026 -1.277118 0
M  V30 55 H -1.166874 -3.518513 -1.030445 0
M  V30 56 H -1.340717 0.758340 0.654537 0
M  V30 57 H 6.258298 1.715008 4.518355 0
M  V30 58 H 6.526351 0.013673 4.051379 0
M  V30 END ATOM
M  V30 BEGIN BOND
M  V30 1 1 1 2
M  V30 2 1 2 3
M  V30 3 1 3 4
M  V30 4 1 4 5
M  V30 5 1 5 6
M  V30 6 2 6 7
M  V30 7 1 7 8
M  V30 8 1 8 9
M  V30 9 2 9 10
M  V30 10 1 9 11
M  V30 11 2 11 12
M  V30 12 1 12 13
M  V30 13 2 13 14
M  V30 14 1 14 15
M  V30 15 1 15 16
M  V30 16 1 16 17
M  V30 17 1 17 18
M  V30 18 2 18 19
M  V30 19 1 18 20
M  V30 20 1 20 21
M  V30 21 1 21 22
M  V30 22 1 22 23
M  V30 23 2 23 24
M  V30 24 1 24 25
M  V30 25 3 25 26
M  V30 26 1 24 27
M  V30 27 2 27 28
M  V30 28 1 28 29
M  V30 29 2 29 30
M  V30 30 2 15 31
M  V30 31 1 7 32
M  V30 32 1 32 33
M  V30 33 1 33 34
M  V30 34 1 34 2
M  V30 35 2 33 5
M  V30 36 1 31 11
M  V30 37 1 30 20
M  V30 38 1 30 23
M  V30 39 1 1 35
M  V30 40 1 1 36
M  V30 41 1 1 37
M  V30 42 1 3 38
M  V30 43 1 3 39
M  V30 44 1 4 40
M  V30 45 1 4 41
M  V30 46 1 8 42
M  V30 47 1 12 43
M  V30 48 1 13 44
M  V30 49 1 14 45
M  V30 50 1 16 46
M  V30 51 1 16 47
M  V30 52 1 17 48
M  V30 53 1 21 49
M  V30 54 1 21 50
M  V30 55 1 22 51
M  V30 56 1 22 52
M  V30 57 1 27 53
M  V30 58 1 28 54
M  V30 59 1 29 55
M  V30 60 1 31 56
M  V30 61 1 34 57
M  V30 62 1 34 58
M  V30 END BOND
M  V30 END CTAB
M  END
>  <Dataset>  (344) 
ChEMBL_Kinases

>  <Ligand_Instance>  (344) 
nan

>  <PDB_ID>  (344) 
nan

>  <Standardized_SMILES>  (344) 
CN1CCc2nc(NC(=O)c3cccc(CNC(=O)N4CCc5c(C#N)cccc54)c3)sc2C1

>  <Name>  (344) 
nan

>  <Pocket>  (344) 
nan

>  <ATP_Site>  (344) 
nan

>  <Peripheral>  (344) 
nan

>  <Num_H_Atoms_ProtBoundConf>  (344) 
nan

>  <Num_Resolved_Atoms>  (344) 
nan

>  <Num_Not_Resolved_Atoms>  (344) 
nan

$$$$
CHEMBL3680744
     RDKit          3D

  0  0  0  0  0  0  0  0  0  0999 V3000
M  V30 BEGIN CTAB
M  V30 COUNTS 63 67 0 0 0
M  V30 BEGIN ATOM
M  V30 1 C 5.195610 2.528118 5.398539 0
M  V30 2 N 5.822221 3.427076 4.454058 0
M  V30 3 C 6.947328 2.845882 3.784637 0
M  V30 4 C 6.874002 2.828245 2.285568 0
M  V30 5 C 5.520163 2.569784 1.773948 0
M  V30 6 C 5.180451 1.764275 0.708613 0
M  V30 7 C 3.855122 1.631812 0.364135 0
M  V30 8 C 2.808100 2.241944 0.996853 0
M  V30 9 N 1.435102 2.131593 0.676180 0
M  V30 10 C 0.800715 1.392907 -0.339423 0
M  V30 11 O 1.526984 0.713217 -1.101234 0
M  V30 12 C -0.637753 1.374706 -0.551849 0
M  V30 13 C -1.558730 2.072124 0.190086 0
M  V30 14 C -2.919934 2.048850 -0.016364 0
M  V30 15 C -3.389451 1.257739 -1.055683 0
M  V30 16 C -2.545787 0.529479 -1.845499 0
M  V30 17 C -2.934137 -0.354436 -2.975430 0
M  V30 18 N -3.140443 -1.722617 -2.602725 0
M  V30 19 C -4.260032 -2.280413 -1.945624 0
M  V30 20 O -5.133778 -1.381879 -1.701460 0
M  V30 21 C -4.524146 -3.642436 -1.543002 0
M  V30 22 C -5.746713 -3.893887 -0.913265 0
M  V30 23 C -5.782902 -5.256476 -0.617504 0
M  V30 24 C -6.663479 -6.129257 -0.022825 0
M  V30 25 C -6.413884 -7.475934 0.134196 0
M  V30 26 C -5.235456 -8.007374 -0.314476 0
M  V30 27 C -5.006950 -9.422473 -0.134146 0
M  V30 28 N -4.830004 -10.541112 -0.009377 0
M  V30 29 C -4.317597 -7.168723 -0.919771 0
M  V30 30 C -4.609664 -5.814656 -1.058228 0
M  V30 31 N -3.895236 -4.820710 -1.599415 0
M  V30 32 C -2.582918 -4.947391 -2.193424 0
M  V30 33 C -1.187172 0.613952 -1.563844 0
M  V30 34 C 3.181793 3.038538 2.055202 0
M  V30 35 C 4.491754 3.203649 2.439071 0
M  V30 36 C 4.876763 4.061321 3.577337 0
M  V30 37 H 5.827991 1.628234 5.520185 0
M  V30 38 H 4.208719 2.161342 5.039242 0
M  V30 39 H 5.072597 2.980734 6.403719 0
M  V30 40 H 7.099268 1.825425 4.210289 0
M  V30 41 H 7.842753 3.438134 4.073218 0
M  V30 42 H 7.529079 2.002540 1.926586 0
M  V30 43 H 7.260527 3.757863 1.823227 0
M  V30 44 H 5.986923 1.268397 0.188763 0
M  V30 45 H 3.677240 0.988835 -0.473641 0
M  V30 46 H 0.755272 2.665205 1.259753 0
M  V30 47 H -1.236297 2.691444 0.998272 0
M  V30 48 H -3.615752 2.610067 0.586991 0
M  V30 49 H -4.448114 1.209560 -1.260293 0
M  V30 50 H -2.169327 -0.295118 -3.765758 0
M  V30 51 H -3.921201 0.038544 -3.317779 0
M  V30 52 H -2.385398 -2.390200 -2.836652 0
M  V30 53 H -6.625877 -3.322556 -0.614068 0
M  V30 54 H -7.605501 -5.739241 0.342544 0
M  V30 55 H -7.145162 -8.125601 0.612451 0
M  V30 56 H -3.378022 -7.577931 -1.280601 0
M  V30 57 H -2.584120 -4.699661 -3.258588 0
M  V30 58 H -1.837355 -4.340624 -1.638080 0
M  V30 59 H -2.294111 -6.034573 -2.154343 0
M  V30 60 H -0.480075 0.041463 -2.179276 0
M  V30 61 H 2.419740 3.577469 2.635144 0
M  V30 62 H 5.222819 5.028106 3.180491 0
M  V30 63 H 3.967977 4.264140 4.184641 0
M  V30 END ATOM
M  V30 BEGIN BOND
M  V30 1 1 1 2
M  V30 2 1 2 3
M  V30 3 1 3 4
M  V30 4 1 4 5
M  V30 5 2 5 6
M  V30 6 1 6 7
M  V30 7 2 7 8
M  V30 8 1 8 9
M  V30 9 1 9 10
M  V30 10 2 10 11
M  V30 11 1 10 12
M  V30 12 2 12 13
M  V30 13 1 13 14
M  V30 14 2 14 15
M  V30 15 1 15 16
M  V30 16 1 16 17
M  V30 17 1 17 18
M  V30 18 1 18 19
M  V30 19 2 19 20
M  V30 20 1 19 21
M  V30 21 2 21 22
M  V30 22 1 22 23
M  V30 23 2 23 24
M  V30 24 1 24 25
M  V30 25 2 25 26
M  V30 26 1 26 27
M  V30 27 3 27 28
M  V30 28 1 26 29
M  V30 29 2 29 30
M  V30 30 1 30 31
M  V30 31 1 31 32
M  V30 32 2 16 33
M  V30 33 1 8 34
M  V30 34 2 34 35
M  V30 35 1 35 36
M  V30 36 1 36 2
M  V30 37 1 35 5
M  V30 38 1 33 12
M  V30 39 1 31 21
M  V30 40 1 30 23
M  V30 41 1 1 37
M  V30 42 1 1 38
M  V30 43 1 1 39
M  V30 44 1 3 40
M  V30 45 1 3 41
M  V30 46 1 4 42
M  V30 47 1 4 43
M  V30 48 1 6 44
M  V30 49 1 7 45
M  V30 50 1 9 46
M  V30 51 1 13 47
M  V30 52 1 14 48
M  V30 53 1 15 49
M  V30 54 1 17 50
M  V30 55 1 17 51
M  V30 56 1 18 52
M  V30 57 1 22 53
M  V30 58 1 24 54
M  V30 59 1 25 55
M  V30 60 1 29 56
M  V30 61 1 32 57
M  V30 62 1 32 58
M  V30 63 1 32 59
M  V30 64 1 33 60
M  V30 65 1 34 61
M  V30 66 1 36 62
M  V30 67 1 36 63
M  V30 END BOND
M  V30 END CTAB
M  END
>  <Dataset>  (345) 
ChEMBL_Kinases

>  <Ligand_Instance>  (345) 
nan

>  <PDB_ID>  (345) 
nan

>  <Standardized_SMILES>  (345) 
CN1CCc2ccc(NC(=O)c3cccc(CNC(=O)c4cc5ccc(C#N)cc5n4C)c3)cc2C1

>  <Name>  (345) 
nan

>  <Pocket>  (345) 
nan

>  <ATP_Site>  (345) 
nan

>  <Peripheral>  (345) 
nan

>  <Num_H_Atoms_ProtBoundConf>  (345) 
nan

>  <Num_Resolved_Atoms>  (345) 
nan

>  <Num_Not_Resolved_Atoms>  (345) 
nan

$$$$
CHEMBL3680745
     RDKit          3D

  0  0  0  0  0  0  0  0  0  0999 V3000
M  V30 BEGIN CTAB
M  V30 COUNTS 63 67 0 0 0
M  V30 BEGIN ATOM
M  V30 1 C 6.018596 -1.563839 2.113717 0
M  V30 2 N 6.427251 -0.203664 1.864138 0
M  V30 3 C 7.245080 -0.066681 0.690830 0
M  V30 4 C 7.073981 1.259532 -0.005178 0
M  V30 5 C 5.645134 1.382662 -0.398889 0
M  V30 6 C 5.207787 1.717214 -1.639647 0
M  V30 7 C 3.831543 1.794724 -1.863510 0
M  V30 8 C 2.922410 1.539353 -0.854338 0
M  V30 9 N 1.526539 1.620906 -1.099292 0
M  V30 10 C 0.516506 2.617126 -1.033582 0
M  V30 11 O 0.770305 3.786581 -0.682096 0
M  V30 12 C -0.838454 2.229605 -1.392183 0
M  V30 13 C -1.766930 3.247344 -1.317681 0
M  V30 14 C -3.096367 2.963426 -1.644561 0
M  V30 15 C -3.456341 1.690628 -2.031075 0
M  V30 16 C -2.555290 0.666057 -2.112818 0
M  V30 17 C -2.830122 -0.742553 -2.513896 0
M  V30 18 N -3.153505 -1.567611 -1.364363 0
M  V30 19 C -4.397164 -1.581514 -0.677731 0
M  V30 20 O -5.330857 -0.839984 -1.052822 0
M  V30 21 C -4.555888 -2.477441 0.469082 0
M  V30 22 C -3.606658 -3.332178 0.990159 0
M  V30 23 C -4.120299 -4.015033 2.063806 0
M  V30 24 C -3.542376 -4.962126 2.884808 0
M  V30 25 C -4.352595 -5.460890 3.892299 0
M  V30 26 C -3.819080 -6.455212 4.790508 0
M  V30 27 N -3.382974 -7.232962 5.511466 0
M  V30 28 C -5.667261 -5.060179 4.097455 0
M  V30 29 C -6.142716 -4.111997 3.222486 0
M  V30 30 C -5.429170 -3.546568 2.185936 0
M  V30 31 N -5.671801 -2.633782 1.231029 0
M  V30 32 C -6.915805 -1.925703 1.036726 0
M  V30 33 C -1.234458 0.970805 -1.782164 0
M  V30 34 C 3.398008 1.196880 0.414661 0
M  V30 35 C 4.772059 1.115091 0.654413 0
M  V30 36 C 5.370034 0.761854 1.954680 0
M  V30 37 H 6.763863 -2.214237 1.577379 0
M  V30 38 H 5.039414 -1.822215 1.704957 0
M  V30 39 H 6.049966 -1.824019 3.184355 0
M  V30 40 H 7.073032 -0.902820 -0.030370 0
M  V30 41 H 8.305742 -0.130709 1.010512 0
M  V30 42 H 7.373307 2.046579 0.692630 0
M  V30 43 H 7.670806 1.218016 -0.942033 0
M  V30 44 H 5.952710 1.910140 -2.404181 0
M  V30 45 H 3.511198 2.063376 -2.862076 0
M  V30 46 H 1.428124 0.621473 -1.377196 0
M  V30 47 H -1.542290 4.256866 -1.022949 0
M  V30 48 H -3.862259 3.726882 -1.602464 0
M  V30 49 H -4.478856 1.451454 -2.289466 0
M  V30 50 H -1.933928 -1.140669 -3.017969 0
M  V30 51 H -3.704874 -0.755676 -3.211562 0
M  V30 52 H -2.408595 -2.210499 -1.004729 0
M  V30 53 H -2.604352 -3.448967 0.611041 0
M  V30 54 H -2.525924 -5.274259 2.729630 0
M  V30 55 H -6.273593 -5.469965 4.894432 0
M  V30 56 H -7.167086 -3.788145 3.367172 0
M  V30 57 H -6.649584 -0.843673 0.928131 0
M  V30 58 H -7.429645 -2.218309 0.098419 0
M  V30 59 H -7.605137 -2.142457 1.856368 0
M  V30 60 H -0.490689 0.199117 -1.830783 0
M  V30 61 H 2.723013 0.985301 1.246440 0
M  V30 62 H 4.566793 0.324114 2.584006 0
M  V30 63 H 5.704256 1.670860 2.528228 0
M  V30 END ATOM
M  V30 BEGIN BOND
M  V30 1 1 1 2
M  V30 2 1 2 3
M  V30 3 1 3 4
M  V30 4 1 4 5
M  V30 5 2 5 6
M  V30 6 1 6 7
M  V30 7 2 7 8
M  V30 8 1 8 9
M  V30 9 1 9 10
M  V30 10 2 10 11
M  V30 11 1 10 12
M  V30 12 2 12 13
M  V30 13 1 13 14
M  V30 14 2 14 15
M  V30 15 1 15 16
M  V30 16 1 16 17
M  V30 17 1 17 18
M  V30 18 1 18 19
M  V30 19 2 19 20
M  V30 20 1 19 21
M  V30 21 2 21 22
M  V30 22 1 22 23
M  V30 23 2 23 24
M  V30 24 1 24 25
M  V30 25 1 25 26
M  V30 26 3 26 27
M  V30 27 2 25 28
M  V30 28 1 28 29
M  V30 29 2 29 30
M  V30 30 1 30 31
M  V30 31 1 31 32
M  V30 32 2 16 33
M  V30 33 1 8 34
M  V30 34 2 34 35
M  V30 35 1 35 36
M  V30 36 1 36 2
M  V30 37 1 35 5
M  V30 38 1 33 12
M  V30 39 1 31 21
M  V30 40 1 30 23
M  V30 41 1 1 37
M  V30 42 1 1 38
M  V30 43 1 1 39
M  V30 44 1 3 40
M  V30 45 1 3 41
M  V30 46 1 4 42
M  V30 47 1 4 43
M  V30 48 1 6 44
M  V30 49 1 7 45
M  V30 50 1 9 46
M  V30 51 1 13 47
M  V30 52 1 14 48
M  V30 53 1 15 49
M  V30 54 1 17 50
M  V30 55 1 17 51
M  V30 56 1 18 52
M  V30 57 1 22 53
M  V30 58 1 24 54
M  V30 59 1 28 55
M  V30 60 1 29 56
M  V30 61 1 32 57
M  V30 62 1 32 58
M  V30 63 1 32 59
M  V30 64 1 33 60
M  V30 65 1 34 61
M  V30 66 1 36 62
M  V30 67 1 36 63
M  V30 END BOND
M  V30 END CTAB
M  END
>  <Dataset>  (346) 
ChEMBL_Kinases

>  <Ligand_Instance>  (346) 
nan

>  <PDB_ID>  (346) 
nan

>  <Standardized_SMILES>  (346) 
CN1CCc2ccc(NC(=O)c3cccc(CNC(=O)c4cc5cc(C#N)ccc5n4C)c3)cc2C1

>  <Name>  (346) 
nan

>  <Pocket>  (346) 
nan

>  <ATP_Site>  (346) 
nan

>  <Peripheral>  (346) 
nan

>  <Num_H_Atoms_ProtBoundConf>  (346) 
nan

>  <Num_Resolved_Atoms>  (346) 
nan

>  <Num_Not_Resolved_Atoms>  (346) 
nan

$$$$
CHEMBL3680737
     RDKit          3D

  0  0  0  0  0  0  0  0  0  0999 V3000
M  V30 BEGIN CTAB
M  V30 COUNTS 59 63 0 0 0
M  V30 BEGIN ATOM
M  V30 1 C 2.597690 -0.018920 6.458912 0
M  V30 2 C 3.296563 0.245042 5.172394 0
M  V30 3 N 4.570007 0.047121 4.902119 0
M  V30 4 C 5.145701 0.237337 3.923291 0
M  V30 5 C 6.471288 0.143164 3.304690 0
M  V30 6 C 6.729749 0.519726 2.005882 0
M  V30 7 C 8.029317 0.364121 1.581135 0
M  V30 8 N 8.975215 -0.124663 2.391141 0
M  V30 9 C 8.708563 -0.488343 3.657472 0
M  V30 10 C 7.404899 -0.355371 4.152245 0
M  V30 11 S 3.738033 0.907771 2.839254 0
M  V30 12 C 2.522571 0.741411 4.185504 0
M  V30 13 C 1.177293 1.152034 3.851213 0
M  V30 14 O 0.966977 1.584215 2.665780 0
M  V30 15 N 0.017932 1.153337 4.650398 0
M  V30 16 C -1.308086 1.557168 4.314808 0
M  V30 17 C -1.951980 0.487174 3.511495 0
M  V30 18 C -2.614493 -0.477509 4.273100 0
M  V30 19 C -3.285227 -1.556119 3.750439 0
M  V30 20 C -3.311582 -1.704977 2.374318 0
M  V30 21 C -2.664684 -0.764376 1.608433 0
M  V30 22 C -2.628271 -0.810728 0.145740 0
M  V30 23 O -2.013488 0.012796 -0.611820 0
M  V30 24 N -3.288693 -1.798697 -0.598595 0
M  V30 25 C -3.227888 -1.810359 -2.065201 0
M  V30 26 N -2.540656 -2.299883 -2.837516 0
M  V30 27 C -2.559310 -2.258593 -4.150669 0
M  V30 28 C -3.638494 -1.453142 -4.656918 0
M  V30 29 S -4.453754 -0.884009 -3.189551 0
M  V30 30 C -4.060055 -1.111808 -6.054465 0
M  V30 31 N -3.429754 -2.024041 -6.947215 0
M  V30 32 C -4.386392 -2.411701 -7.954640 0
M  V30 33 C -2.843479 -3.182329 -6.335166 0
M  V30 34 C -1.778391 -2.812813 -5.316219 0
M  V30 35 C -1.995112 0.313663 2.148432 0
M  V30 36 H 2.198264 0.896511 6.934980 0
M  V30 37 H 3.286611 -0.459522 7.217097 0
M  V30 38 H 1.833281 -0.814584 6.292225 0
M  V30 39 H 5.935597 0.907022 1.394825 0
M  V30 40 H 8.236253 0.662082 0.551953 0
M  V30 41 H 9.561529 -0.870949 4.214351 0
M  V30 42 H 7.232948 -0.653684 5.158925 0
M  V30 43 H 0.210961 0.794389 5.629825 0
M  V30 44 H -1.344323 2.531934 3.770543 0
M  V30 45 H -1.871573 1.744858 5.259185 0
M  V30 46 H -2.643523 -0.435976 5.371375 0
M  V30 47 H -3.787300 -2.284552 4.363579 0
M  V30 48 H -3.820094 -2.529123 1.899575 0
M  V30 49 H -3.844834 -2.557089 -0.132362 0
M  V30 50 H -3.854504 -0.046639 -6.283091 0
M  V30 51 H -5.163142 -1.262468 -6.082554 0
M  V30 52 H -3.942870 -2.598208 -8.946141 0
M  V30 53 H -5.111895 -1.584095 -8.088360 0
M  V30 54 H -4.970028 -3.273283 -7.571782 0
M  V30 55 H -2.419326 -3.844574 -7.097301 0
M  V30 56 H -3.635184 -3.767078 -5.797999 0
M  V30 57 H -1.102741 -2.061868 -5.732684 0
M  V30 58 H -1.210432 -3.705015 -5.057624 0
M  V30 59 H -1.476811 1.079272 1.590785 0
M  V30 END ATOM
M  V30 BEGIN BOND
M  V30 1 1 1 2
M  V30 2 1 2 3
M  V30 3 2 3 4
M  V30 4 1 4 5
M  V30 5 2 5 6
M  V30 6 1 6 7
M  V30 7 2 7 8
M  V30 8 1 8 9
M  V30 9 2 9 10
M  V30 10 1 4 11
M  V30 11 1 11 12
M  V30 12 1 12 13
M  V30 13 2 13 14
M  V30 14 1 13 15
M  V30 15 1 15 16
M  V30 16 1 16 17
M  V30 17 2 17 18
M  V30 18 1 18 19
M  V30 19 2 19 20
M  V30 20 1 20 21
M  V30 21 1 21 22
M  V30 22 2 22 23
M  V30 23 1 22 24
M  V30 24 1 24 25
M  V30 25 2 25 26
M  V30 26 1 26 27
M  V30 27 2 27 28
M  V30 28 1 28 29
M  V30 29 1 28 30
M  V30 30 1 30 31
M  V30 31 1 31 32
M  V30 32 1 31 33
M  V30 33 1 33 34
M  V30 34 2 21 35
M  V30 35 2 12 2
M  V30 36 1 35 17
M  V30 37 1 10 5
M  V30 38 1 29 25
M  V30 39 1 34 27
M  V30 40 1 1 36
M  V30 41 1 1 37
M  V30 42 1 1 38
M  V30 43 1 6 39
M  V30 44 1 7 40
M  V30 45 1 9 41
M  V30 46 1 10 42
M  V30 47 1 15 43
M  V30 48 1 16 44
M  V30 49 1 16 45
M  V30 50 1 18 46
M  V30 51 1 19 47
M  V30 52 1 20 48
M  V30 53 1 24 49
M  V30 54 1 30 50
M  V30 55 1 30 51
M  V30 56 1 32 52
M  V30 57 1 32 53
M  V30 58 1 32 54
M  V30 59 1 33 55
M  V30 60 1 33 56
M  V30 61 1 34 57
M  V30 62 1 34 58
M  V30 63 1 35 59
M  V30 END BOND
M  V30 END CTAB
M  END
>  <Dataset>  (347) 
ChEMBL_Kinases

>  <Ligand_Instance>  (347) 
nan

>  <PDB_ID>  (347) 
nan

>  <Standardized_SMILES>  (347) 
Cc1nc(-c2ccncc2)sc1C(=O)NCc1cccc(C(=O)Nc2nc3c(s2)CN(C)CC3)c1

>  <Name>  (347) 
nan

>  <Pocket>  (347) 
nan

>  <ATP_Site>  (347) 
nan

>  <Peripheral>  (347) 
nan

>  <Num_H_Atoms_ProtBoundConf>  (347) 
nan

>  <Num_Resolved_Atoms>  (347) 
nan

>  <Num_Not_Resolved_Atoms>  (347) 
nan

$$$$
CHEMBL3680546
     RDKit          3D

  0  0  0  0  0  0  0  0  0  0999 V3000
M  V30 BEGIN CTAB
M  V30 COUNTS 53 57 0 0 0
M  V30 BEGIN ATOM
M  V30 1 N -8.979244 -0.710879 -3.545653 0
M  V30 2 C -8.116289 -0.110960 -2.586466 0
M  V30 3 O -8.460205 0.979765 -2.061539 0
M  V30 4 C -6.847123 -0.777459 -2.232358 0
M  V30 5 C -6.482536 -1.987438 -2.825242 0
M  V30 6 C -5.264929 -2.540168 -2.426630 0
M  V30 7 C -4.467853 -1.915820 -1.493194 0
M  V30 8 C -4.830078 -0.737175 -0.920173 0
M  V30 9 C -3.999281 -0.150314 0.009123 0
M  V30 10 N -2.755948 -0.689023 0.433575 0
M  V30 11 C -1.979797 0.032368 1.419705 0
M  V30 12 C -0.707338 -0.650242 1.764298 0
M  V30 13 C -0.557528 -1.579479 2.777459 0
M  V30 14 C 0.673957 -2.152620 3.010546 0
M  V30 15 C 1.784477 -1.830238 2.259176 0
M  V30 16 C 1.696493 -0.917130 1.243230 0
M  V30 17 N 2.757752 -0.495640 0.394999 0
M  V30 18 C 3.679707 0.566778 0.538847 0
M  V30 19 O 3.637855 1.319487 1.545549 0
M  V30 20 C 4.691920 0.823335 -0.454296 0
M  V30 21 C 5.559487 1.890826 -0.230504 0
M  V30 22 C 6.548100 2.153696 -1.185153 0
M  V30 23 C 6.689838 1.397268 -2.329429 0
M  V30 24 C 7.541438 1.412565 -3.419693 0
M  V30 25 C 7.201657 0.391285 -4.272578 0
M  V30 26 N 6.150332 -0.250234 -3.716512 0
M  V30 27 C 5.832820 0.340927 -2.552813 0
M  V30 28 C 4.860829 0.090065 -1.604572 0
M  V30 29 C 0.442025 -0.352357 1.027641 0
M  V30 30 N -4.445333 1.010781 0.516759 0
M  V30 31 C -5.614922 1.564303 0.149284 0
M  V30 32 N -6.425145 0.989592 -0.758636 0
M  V30 33 C -6.030049 -0.165602 -1.294706 0
M  V30 34 H -8.579512 -0.612712 -4.504379 0
M  V30 35 H -8.557482 -0.600743 -4.506013 0
M  V30 36 H -7.167249 -2.408763 -3.548660 0
M  V30 37 H -5.022572 -3.485978 -2.917207 0
M  V30 38 H -3.558525 -2.397246 -1.242302 0
M  V30 39 H -2.322705 -1.575383 0.105094 0
M  V30 40 H -2.598052 0.266568 2.290313 0
M  V30 41 H -1.706363 1.022772 0.965978 0
M  V30 42 H -1.443486 -1.821323 3.359293 0
M  V30 43 H 0.772264 -2.886715 3.817818 0
M  V30 44 H 2.756825 -2.264236 2.421979 0
M  V30 45 H 2.757528 -1.142018 -0.422261 0
M  V30 46 H 5.509665 2.517845 0.629829 0
M  V30 47 H 7.250922 2.973028 -1.061437 0
M  V30 48 H 8.325868 2.148162 -3.508659 0
M  V30 49 H 7.760671 0.239853 -5.193134 0
M  V30 50 H 5.707387 -1.069175 -4.178279 0
M  V30 51 H 4.204984 -0.738118 -1.800590 0
M  V30 52 H 0.330637 0.386950 0.218883 0
M  V30 53 H -5.863123 2.492429 0.624101 0
M  V30 END ATOM
M  V30 BEGIN BOND
M  V30 1 1 1 2
M  V30 2 2 2 3
M  V30 3 1 2 4
M  V30 4 2 4 5
M  V30 5 1 5 6
M  V30 6 2 6 7
M  V30 7 1 7 8
M  V30 8 2 8 9
M  V30 9 1 9 10
M  V30 10 1 10 11
M  V30 11 1 11 12
M  V30 12 2 12 13
M  V30 13 1 13 14
M  V30 14 2 14 15
M  V30 15 1 15 16
M  V30 16 1 16 17
M  V30 17 1 17 18
M  V30 18 2 18 19
M  V30 19 1 18 20
M  V30 20 2 20 21
M  V30 21 1 21 22
M  V30 22 2 22 23
M  V30 23 1 23 24
M  V30 24 2 24 25
M  V30 25 1 25 26
M  V30 26 1 26 27
M  V30 27 2 27 28
M  V30 28 2 16 29
M  V30 29 1 9 30
M  V30 30 2 30 31
M  V30 31 1 31 32
M  V30 32 2 32 33
M  V30 33 1 33 4
M  V30 34 1 33 8
M  V30 35 1 29 12
M  V30 36 1 28 20
M  V30 37 1 27 23
M  V30 38 1 1 34
M  V30 39 1 1 35
M  V30 40 1 5 36
M  V30 41 1 6 37
M  V30 42 1 7 38
M  V30 43 1 10 39
M  V30 44 1 11 40
M  V30 45 1 11 41
M  V30 46 1 13 42
M  V30 47 1 14 43
M  V30 48 1 15 44
M  V30 49 1 17 45
M  V30 50 1 21 46
M  V30 51 1 22 47
M  V30 52 1 24 48
M  V30 53 1 25 49
M  V30 54 1 26 50
M  V30 55 1 28 51
M  V30 56 1 29 52
M  V30 57 1 31 53
M  V30 END BOND
M  V30 END CTAB
M  END
>  <Dataset>  (348) 
ChEMBL_Kinases

>  <Ligand_Instance>  (348) 
nan

>  <PDB_ID>  (348) 
nan

>  <Standardized_SMILES>  (348) 
NC(=O)c1cccc2c(NCc3cccc(NC(=O)c4ccc5cc[nH]c5c4)c3)ncnc12

>  <Name>  (348) 
nan

>  <Pocket>  (348) 
nan

>  <ATP_Site>  (348) 
nan

>  <Peripheral>  (348) 
nan

>  <Num_H_Atoms_ProtBoundConf>  (348) 
nan

>  <Num_Resolved_Atoms>  (348) 
nan

>  <Num_Not_Resolved_Atoms>  (348) 
nan

$$$$
CHEMBL3680545
     RDKit          3D

  0  0  0  0  0  0  0  0  0  0999 V3000
M  V30 BEGIN CTAB
M  V30 COUNTS 63 66 0 0 0
M  V30 BEGIN ATOM
M  V30 1 C 6.825612 -1.232084 6.014102 0
M  V30 2 O 6.621241 -1.058486 4.621072 0
M  V30 3 C 5.465704 -0.465543 4.121632 0
M  V30 4 C 5.219864 -0.275183 2.785327 0
M  V30 5 C 4.071239 0.314196 2.287348 0
M  V30 6 C 3.110738 0.740561 3.146167 0
M  V30 7 C 1.839446 1.379286 2.829954 0
M  V30 8 O 0.937735 1.787764 3.605988 0
M  V30 9 N 1.538196 1.588116 1.463288 0
M  V30 10 C 0.482780 2.141214 0.680673 0
M  V30 11 C 0.458077 3.472303 0.323794 0
M  V30 12 C -0.618560 3.925463 -0.447589 0
M  V30 13 C -1.632663 3.047956 -0.838812 0
M  V30 14 C -1.617806 1.691400 -0.480941 0
M  V30 15 C -2.774072 0.943609 -1.009718 0
M  V30 16 C -3.425529 1.597643 -2.211948 0
M  V30 17 C -4.579519 0.651423 -2.587985 0
M  V30 18 C -5.317542 1.209853 -3.800252 0
M  V30 19 O -6.361797 0.389243 -4.170487 0
M  V30 20 N -2.336003 -0.378191 -1.415748 0
M  V30 21 C -2.183237 -1.485826 -0.529370 0
M  V30 22 N -2.469549 -1.480994 0.782875 0
M  V30 23 C -2.361433 -2.512915 1.613746 0
M  V30 24 N -1.932714 -3.704370 1.174055 0
M  V30 25 C -1.623503 -3.802017 -0.123787 0
M  V30 26 C -1.183414 -5.029204 -0.566510 0
M  V30 27 C -1.071219 -6.140502 0.346756 0
M  V30 28 N -0.622769 -7.426680 -0.058205 0
M  V30 29 O -1.364779 -6.042346 1.568534 0
M  V30 30 C -0.837883 -5.239944 -1.881842 0
M  V30 31 C -0.955625 -4.155054 -2.735983 0
M  V30 32 C -1.400122 -2.940228 -2.257413 0
M  V30 33 C -1.747022 -2.711208 -0.959649 0
M  V30 34 C -0.545709 1.332016 0.263065 0
M  V30 35 C 3.300831 0.576531 4.503545 0
M  V30 36 C 4.461323 -0.017128 4.969967 0
M  V30 37 H 7.719656 -1.884036 6.124313 0
M  V30 38 H 5.950754 -1.748458 6.486930 0
M  V30 39 H 7.027581 -0.285701 6.537564 0
M  V30 40 H 5.946185 -0.594206 2.069541 0
M  V30 41 H 3.876071 0.463875 1.250158 0
M  V30 42 H 2.138666 1.329682 0.646299 0
M  V30 43 H 1.274091 4.093002 0.660706 0
M  V30 44 H -0.521480 4.977736 -0.659118 0
M  V30 45 H -2.331391 3.637011 -1.415960 0
M  V30 46 H -3.561868 0.815140 -0.197363 0
M  V30 47 H -2.753244 1.624070 -3.083031 0
M  V30 48 H -3.906028 2.559572 -1.991914 0
M  V30 49 H -4.206188 -0.351108 -2.880567 0
M  V30 50 H -5.252579 0.554856 -1.725320 0
M  V30 51 H -4.624723 1.424907 -4.620460 0
M  V30 52 H -5.759537 2.195367 -3.478658 0
M  V30 53 H -6.640960 -0.107623 -3.361036 0
M  V30 54 H -2.131987 -0.477372 -2.407116 0
M  V30 55 H -2.652151 -2.263099 2.629414 0
M  V30 56 H -1.123657 -8.328545 -0.178474 0
M  V30 57 H 0.393979 -7.562742 -0.295664 0
M  V30 58 H -0.500060 -6.192473 -2.208435 0
M  V30 59 H -0.677023 -4.340407 -3.777066 0
M  V30 60 H -1.444598 -2.195260 -3.008571 0
M  V30 61 H -0.493012 0.308143 0.547654 0
M  V30 62 H 2.598165 0.880108 5.289773 0
M  V30 63 H 4.629560 -0.155681 6.041043 0
M  V30 END ATOM
M  V30 BEGIN BOND
M  V30 1 1 1 2
M  V30 2 1 2 3
M  V30 3 2 3 4
M  V30 4 1 4 5
M  V30 5 2 5 6
M  V30 6 1 6 7
M  V30 7 2 7 8
M  V30 8 1 7 9
M  V30 9 1 9 10
M  V30 10 2 10 11
M  V30 11 1 11 12
M  V30 12 2 12 13
M  V30 13 1 13 14
M  V30 14 1 14 15
M  V30 15 1 15 16
M  V30 16 1 16 17
M  V30 17 1 17 18
M  V30 18 1 18 19
M  V30 19 1 15 20
M  V30 20 1 20 21
M  V30 21 2 21 22
M  V30 22 1 22 23
M  V30 23 2 23 24
M  V30 24 1 24 25
M  V30 25 2 25 26
M  V30 26 1 26 27
M  V30 27 1 27 28
M  V30 28 2 27 29
M  V30 29 1 26 30
M  V30 30 2 30 31
M  V30 31 1 31 32
M  V30 32 2 32 33
M  V30 33 2 14 34
M  V30 34 1 6 35
M  V30 35 2 35 36
M  V30 36 1 36 3
M  V30 37 1 34 10
M  V30 38 1 33 21
M  V30 39 1 33 25
M  V30 40 1 1 37
M  V30 41 1 1 38
M  V30 42 1 1 39
M  V30 43 1 4 40
M  V30 44 1 5 41
M  V30 45 1 9 42
M  V30 46 1 11 43
M  V30 47 1 12 44
M  V30 48 1 13 45
M  V30 49 1 15 46
M  V30 50 1 16 47
M  V30 51 1 16 48
M  V30 52 1 17 49
M  V30 53 1 17 50
M  V30 54 1 18 51
M  V30 55 1 18 52
M  V30 56 1 19 53
M  V30 57 1 20 54
M  V30 58 1 23 55
M  V30 59 1 28 56
M  V30 60 1 28 57
M  V30 61 1 30 58
M  V30 62 1 31 59
M  V30 63 1 32 60
M  V30 64 1 34 61
M  V30 65 1 35 62
M  V30 66 1 36 63
M  V30 END BOND
M  V30 END CTAB
M  END
>  <Dataset>  (349) 
ChEMBL_Kinases

>  <Ligand_Instance>  (349) 
nan

>  <PDB_ID>  (349) 
nan

>  <Standardized_SMILES>  (349) 
COc1ccc(C(=O)Nc2cccc(C(CCCO)Nc3ncnc4c(C(N)=O)cccc34)c2)cc1

>  <Name>  (349) 
nan

>  <Pocket>  (349) 
nan

>  <ATP_Site>  (349) 
nan

>  <Peripheral>  (349) 
nan

>  <Num_H_Atoms_ProtBoundConf>  (349) 
nan

>  <Num_Resolved_Atoms>  (349) 
nan

>  <Num_Not_Resolved_Atoms>  (349) 
nan

$$$$
CHEMBL3680543
     RDKit          3D

  0  0  0  0  0  0  0  0  0  0999 V3000
M  V30 BEGIN CTAB
M  V30 COUNTS 49 52 0 0 0
M  V30 BEGIN ATOM
M  V30 1 N 1.306705 -4.558461 3.595212 0
M  V30 2 C 2.568447 -3.981037 3.907737 0
M  V30 3 O 3.215246 -4.433743 4.887762 0
M  V30 4 C 3.109083 -2.884606 3.112485 0
M  V30 5 C 4.353723 -2.375881 3.482417 0
M  V30 6 C 4.834029 -1.330033 2.696460 0
M  V30 7 C 4.103600 -0.865253 1.645100 0
M  V30 8 C 2.887251 -1.364330 1.285971 0
M  V30 9 C 2.211071 -0.835702 0.206008 0
M  V30 10 N 2.720022 0.210718 -0.603310 0
M  V30 11 C 2.003385 0.783318 -1.741527 0
M  V30 12 C 0.824691 1.585744 -1.346479 0
M  V30 13 C 1.143322 2.908917 -1.079426 0
M  V30 14 C 0.220067 3.860377 -0.712307 0
M  V30 15 C -1.069429 3.406881 -0.624590 0
M  V30 16 C -1.500473 2.096496 -0.871036 0
M  V30 17 N -2.863719 1.755998 -0.772830 0
M  V30 18 C -3.583254 0.627564 -0.331575 0
M  V30 19 C -3.068154 -0.511274 0.241342 0
M  V30 20 C -3.840844 -1.557354 0.638863 0
M  V30 21 C -3.361125 -2.799343 1.264481 0
M  V30 22 F -2.333794 -2.527117 2.157715 0
M  V30 23 F -2.941061 -3.690086 0.315130 0
M  V30 24 F -4.353016 -3.417638 2.010188 0
M  V30 25 C -5.217480 -1.489836 0.465160 0
M  V30 26 C -5.716170 -0.349846 -0.106844 0
M  V30 27 N -4.931539 0.646062 -0.479772 0
M  V30 28 C -0.492643 1.232135 -1.230027 0
M  V30 29 N 1.027892 -1.418649 -0.035896 0
M  V30 30 C 0.516649 -2.428316 0.686760 0
M  V30 31 N 1.193663 -2.930020 1.738028 0
M  V30 32 C 2.386959 -2.397546 2.042946 0
M  V30 33 H 0.282741 -4.338317 3.507333 0
M  V30 34 H 0.314080 -4.215750 3.541749 0
M  V30 35 H 4.873500 -2.797630 4.330432 0
M  V30 36 H 5.800572 -0.951086 3.001345 0
M  V30 37 H 4.579259 -0.058305 1.116833 0
M  V30 38 H 3.628046 0.656824 -0.463649 0
M  V30 39 H 2.641064 1.400755 -2.393956 0
M  V30 40 H 1.663876 -0.056027 -2.423108 0
M  V30 41 H 2.163353 3.310652 -1.138227 0
M  V30 42 H 0.454375 4.885794 -0.503133 0
M  V30 43 H -1.853002 4.107351 -0.338118 0
M  V30 44 H -3.438765 2.576003 -1.134483 0
M  V30 45 H -2.017063 -0.565947 0.378428 0
M  V30 46 H -5.912201 -2.264694 0.746996 0
M  V30 47 H -6.793267 -0.255151 -0.260872 0
M  V30 48 H -0.709307 0.206204 -1.449899 0
M  V30 49 H -0.437465 -2.716268 0.283785 0
M  V30 END ATOM
M  V30 BEGIN BOND
M  V30 1 1 1 2
M  V30 2 2 2 3
M  V30 3 1 2 4
M  V30 4 2 4 5
M  V30 5 1 5 6
M  V30 6 2 6 7
M  V30 7 1 7 8
M  V30 8 2 8 9
M  V30 9 1 9 10
M  V30 10 1 10 11
M  V30 11 1 11 12
M  V30 12 2 12 13
M  V30 13 1 13 14
M  V30 14 2 14 15
M  V30 15 1 15 16
M  V30 16 1 16 17
M  V30 17 1 17 18
M  V30 18 2 18 19
M  V30 19 1 19 20
M  V30 20 1 20 21
M  V30 21 1 21 22
M  V30 22 1 21 23
M  V30 23 1 21 24
M  V30 24 2 20 25
M  V30 25 1 25 26
M  V30 26 2 26 27
M  V30 27 2 16 28
M  V30 28 1 9 29
M  V30 29 2 29 30
M  V30 30 1 30 31
M  V30 31 2 31 32
M  V30 32 1 32 4
M  V30 33 1 32 8
M  V30 34 1 28 12
M  V30 35 1 27 18
M  V30 36 1 1 33
M  V30 37 1 1 34
M  V30 38 1 5 35
M  V30 39 1 6 36
M  V30 40 1 7 37
M  V30 41 1 10 38
M  V30 42 1 11 39
M  V30 43 1 11 40
M  V30 44 1 13 41
M  V30 45 1 14 42
M  V30 46 1 15 43
M  V30 47 1 17 44
M  V30 48 1 19 45
M  V30 49 1 25 46
M  V30 50 1 26 47
M  V30 51 1 28 48
M  V30 52 1 30 49
M  V30 END BOND
M  V30 END CTAB
M  END
>  <Dataset>  (350) 
ChEMBL_Kinases

>  <Ligand_Instance>  (350) 
nan

>  <PDB_ID>  (350) 
nan

>  <Standardized_SMILES>  (350) 
NC(=O)c1cccc2c(NCc3cccc(Nc4cc(C(F)(F)F)ccn4)c3)ncnc12

>  <Name>  (350) 
nan

>  <Pocket>  (350) 
nan

>  <ATP_Site>  (350) 
nan

>  <Peripheral>  (350) 
nan

>  <Num_H_Atoms_ProtBoundConf>  (350) 
nan

>  <Num_Resolved_Atoms>  (350) 
nan

>  <Num_Not_Resolved_Atoms>  (350) 
nan

$$$$
CHEMBL3680541
     RDKit          3D

  0  0  0  0  0  0  0  0  0  0999 V3000
M  V30 BEGIN CTAB
M  V30 COUNTS 62 66 0 0 0
M  V30 BEGIN ATOM
M  V30 1 N 2.722940 2.636898 5.979235 0
M  V30 2 C 2.804506 1.210325 5.787270 0
M  V30 3 O 3.459881 1.435136 6.814162 0
M  V30 4 C 2.182748 0.483427 4.700218 0
M  V30 5 C 2.355508 -0.880173 4.699789 0
M  V30 6 C 1.758530 -1.572122 3.651834 0
M  V30 7 C 1.054791 -0.836404 2.718214 0
M  V30 8 C 0.914794 0.535789 2.770375 0
M  V30 9 C 0.187678 1.160179 1.780845 0
M  V30 10 N -0.425901 0.486308 0.666988 0
M  V30 11 C -1.178783 1.248106 -0.303524 0
M  V30 12 C -2.415009 1.800148 0.335972 0
M  V30 13 C -3.251507 2.609811 -0.634705 0
M  V30 14 O -2.537452 3.693819 -1.140100 0
M  V30 15 C -1.425303 0.446129 -1.493251 0
M  V30 16 C -1.292637 1.058535 -2.742619 0
M  V30 17 C -1.497210 0.432497 -3.947053 0
M  V30 18 C -1.857559 -0.892298 -3.888560 0
M  V30 19 C -2.020644 -1.611818 -2.699407 0
M  V30 20 N -2.409439 -2.958580 -2.711107 0
M  V30 21 C -2.566184 -3.816060 -1.559185 0
M  V30 22 O -3.361428 -3.182661 -0.633247 0
M  V30 23 C -1.318158 -4.383697 -1.066429 0
M  V30 24 C -0.063309 -3.870430 -0.883473 0
M  V30 25 C 0.853378 -4.787993 -0.380176 0
M  V30 26 C 2.285733 -4.635008 -0.055336 0
M  V30 27 C 3.121651 -3.866082 -1.062962 0
M  V30 28 C 2.749349 -3.272914 0.276737 0
M  V30 29 N 0.106915 -5.907815 -0.255267 0
M  V30 30 N -1.120655 -5.664015 -0.647402 0
M  V30 31 C -1.785106 -0.865324 -1.563351 0
M  V30 32 N 0.086905 2.474148 1.885086 0
M  V30 33 C 0.637188 3.196439 2.868360 0
M  V30 34 N 1.340326 2.558763 3.818108 0
M  V30 35 C 1.496786 1.241192 3.797888 0
M  V30 36 H 1.928356 3.329411 5.980466 0
M  V30 37 H 1.956312 3.349734 5.986645 0
M  V30 38 H 2.917154 -1.405338 5.457340 0
M  V30 39 H 1.875058 -2.638175 3.624060 0
M  V30 40 H 0.621490 -1.447274 1.942803 0
M  V30 41 H -0.371942 -0.540402 0.496810 0
M  V30 42 H -0.540940 2.122971 -0.586716 0
M  V30 43 H -3.013924 1.021052 0.838840 0
M  V30 44 H -2.115303 2.508194 1.130216 0
M  V30 45 H -4.099952 3.022608 -0.051816 0
M  V30 46 H -3.585927 2.015438 -1.506989 0
M  V30 47 H -2.796394 4.540288 -0.675625 0
M  V30 48 H -1.006947 2.107948 -2.783968 0
M  V30 49 H -1.384046 0.941064 -4.893478 0
M  V30 50 H -2.023468 -1.402546 -4.835397 0
M  V30 51 H -2.604394 -3.375965 -3.669433 0
M  V30 52 H -3.197337 -4.718121 -1.887340 0
M  V30 53 H -4.098239 -2.685717 -1.018005 0
M  V30 54 H 0.234872 -2.849666 -1.099377 0
M  V30 55 H 2.753605 -5.540178 0.391468 0
M  V30 56 H 2.589354 -3.467940 -1.925944 0
M  V30 57 H 4.186538 -4.216634 -1.155201 0
M  V30 58 H 3.540609 -3.216176 1.048066 0
M  V30 59 H 2.056786 -2.423287 0.314576 0
M  V30 60 H -1.820334 -6.464544 -0.601224 0
M  V30 61 H -1.895287 -1.369260 -0.592829 0
M  V30 62 H 0.499795 4.276022 2.871831 0
M  V30 END ATOM
M  V30 BEGIN BOND
M  V30 1 1 1 2
M  V30 2 2 2 3
M  V30 3 1 2 4
M  V30 4 2 4 5
M  V30 5 1 5 6
M  V30 6 2 6 7
M  V30 7 1 7 8
M  V30 8 2 8 9
M  V30 9 1 9 10
M  V30 10 1 10 11
M  V30 11 1 11 12
M  V30 12 1 12 13
M  V30 13 1 13 14
M  V30 14 1 11 15
M  V30 15 2 15 16
M  V30 16 1 16 17
M  V30 17 2 17 18
M  V30 18 1 18 19
M  V30 19 1 19 20
M  V30 20 1 20 21
M  V30 21 1 21 22
M  V30 22 1 21 23
M  V30 23 2 23 24
M  V30 24 1 24 25
M  V30 25 1 25 26
M  V30 26 1 26 27
M  V30 27 1 27 28
M  V30 28 2 25 29
M  V30 29 1 29 30
M  V30 30 2 19 31
M  V30 31 1 9 32
M  V30 32 2 32 33
M  V30 33 1 33 34
M  V30 34 2 34 35
M  V30 35 1 35 4
M  V30 36 1 35 8
M  V30 37 1 31 15
M  V30 38 1 30 23
M  V30 39 1 28 26
M  V30 40 1 1 36
M  V30 41 1 1 37
M  V30 42 1 5 38
M  V30 43 1 6 39
M  V30 44 1 7 40
M  V30 45 1 10 41
M  V30 46 1 11 42
M  V30 47 1 12 43
M  V30 48 1 12 44
M  V30 49 1 13 45
M  V30 50 1 13 46
M  V30 51 1 14 47
M  V30 52 1 16 48
M  V30 53 1 17 49
M  V30 54 1 18 50
M  V30 55 1 20 51
M  V30 56 1 21 52
M  V30 57 1 22 53
M  V30 58 1 24 54
M  V30 59 1 26 55
M  V30 60 1 27 56
M  V30 61 1 27 57
M  V30 62 1 28 58
M  V30 63 1 28 59
M  V30 64 1 30 60
M  V30 65 1 31 61
M  V30 66 1 33 62
M  V30 END BOND
M  V30 END CTAB
M  END
>  <Dataset>  (351) 
ChEMBL_Kinases

>  <Ligand_Instance>  (351) 
nan

>  <PDB_ID>  (351) 
nan

>  <Standardized_SMILES>  (351) 
NC(=O)c1cccc2c(NC(CCO)c3cccc(NC(O)c4cc(C5CC5)n[nH]4)c3)ncnc12

>  <Name>  (351) 
nan

>  <Pocket>  (351) 
nan

>  <ATP_Site>  (351) 
nan

>  <Peripheral>  (351) 
nan

>  <Num_H_Atoms_ProtBoundConf>  (351) 
nan

>  <Num_Resolved_Atoms>  (351) 
nan

>  <Num_Not_Resolved_Atoms>  (351) 
nan

$$$$
CHEMBL3680540
     RDKit          3D

  0  0  0  0  0  0  0  0  0  0999 V3000
M  V30 BEGIN CTAB
M  V30 COUNTS 49 52 0 0 0
M  V30 BEGIN ATOM
M  V30 1 C -0.797470 1.227351 -2.086097 0
M  V30 2 C -0.669882 0.121995 -1.037755 0 CFG=1
M  V30 3 N 0.116878 0.552190 0.104975 0
M  V30 4 C 1.477416 0.907378 -0.090958 0
M  V30 5 N 2.041110 0.841011 -1.307659 0
M  V30 6 C 3.319832 1.153109 -1.575614 0
M  V30 7 N 4.150313 1.570596 -0.592081 0
M  V30 8 C 3.636752 1.655834 0.650190 0
M  V30 9 C 4.493257 2.085300 1.657468 0
M  V30 10 C 5.907275 2.439026 1.409260 0
M  V30 11 N 6.397076 2.326257 0.078212 0
M  V30 12 O 6.615208 2.827199 2.401865 0
M  V30 13 C 3.957769 2.169430 2.925895 0
M  V30 14 C 2.647941 1.856829 3.238717 0
M  V30 15 C 1.852277 1.436548 2.188261 0
M  V30 16 C 2.320124 1.332595 0.915686 0
M  V30 17 C -2.021394 -0.341375 -0.682153 0
M  V30 18 C -3.243960 -0.077866 -1.261860 0
M  V30 19 C -4.406356 -0.624867 -0.761081 0
M  V30 20 C -4.403059 -1.460351 0.341589 0
M  V30 21 C -3.171982 -1.736397 0.939455 0
M  V30 22 N -3.146871 -2.606258 2.089330 0
M  V30 23 C -2.981310 -3.976961 1.704971 0
M  V30 24 O -2.879631 -4.272420 0.470911 0
M  V30 25 C -2.927206 -5.057908 2.740280 0
M  V30 26 C -3.471872 -6.426241 2.277598 0
M  V30 27 C -2.024632 -6.234600 2.455104 0
M  V30 28 F -1.190088 -6.066907 1.371261 0
M  V30 29 F -1.384769 -6.838705 3.538562 0
M  V30 30 C -1.989311 -1.184053 0.435470 0
M  V30 31 H -1.061111 0.811312 -3.073702 0
M  V30 32 H 0.083897 1.892552 -2.110828 0
M  V30 33 H -1.654785 1.905415 -1.804106 0
M  V30 34 H -0.062028 -0.710911 -1.506682 0
M  V30 35 H -0.401535 0.562110 0.989714 0
M  V30 36 H 3.684016 1.066131 -2.599059 0
M  V30 37 H 5.969746 3.102043 -0.508069 0
M  V30 38 H 7.020100 1.766821 -0.542903 0
M  V30 39 H 4.635836 2.503438 3.692087 0
M  V30 40 H 2.343856 1.964463 4.281740 0
M  V30 41 H 0.840444 1.195684 2.432006 0
M  V30 42 H -3.161713 0.580122 -2.115592 0
M  V30 43 H -5.331515 -0.375999 -1.264614 0
M  V30 44 H -5.327373 -1.879285 0.718930 0
M  V30 45 H -3.234187 -2.322929 3.095679 0
M  V30 46 H -3.020028 -4.779545 3.794423 0
M  V30 47 H -3.826230 -6.468056 1.212592 0
M  V30 48 H -4.033086 -7.038808 3.018803 0
M  V30 49 H -1.094842 -1.479747 0.995381 0
M  V30 END ATOM
M  V30 BEGIN BOND
M  V30 1 1 1 2
M  V30 2 1 2 3
M  V30 3 1 3 4
M  V30 4 2 4 5
M  V30 5 1 5 6
M  V30 6 2 6 7
M  V30 7 1 7 8
M  V30 8 2 8 9
M  V30 9 1 9 10
M  V30 10 1 10 11
M  V30 11 2 10 12
M  V30 12 1 9 13
M  V30 13 2 13 14
M  V30 14 1 14 15
M  V30 15 2 15 16
M  V30 16 1 2 17
M  V30 17 2 17 18
M  V30 18 1 18 19
M  V30 19 2 19 20
M  V30 20 1 20 21
M  V30 21 1 21 22
M  V30 22 1 22 23
M  V30 23 2 23 24
M  V30 24 1 23 25
M  V30 25 1 25 26
M  V30 26 1 26 27
M  V30 27 1 27 28
M  V30 28 1 27 29
M  V30 29 2 21 30
M  V30 30 1 16 4
M  V30 31 1 30 17
M  V30 32 1 16 8
M  V30 33 1 27 25
M  V30 34 1 1 31
M  V30 35 1 1 32
M  V30 36 1 1 33
M  V30 37 1 2 34 CFG=3
M  V30 38 1 3 35
M  V30 39 1 6 36
M  V30 40 1 11 37
M  V30 41 1 11 38
M  V30 42 1 13 39
M  V30 43 1 14 40
M  V30 44 1 15 41
M  V30 45 1 18 42
M  V30 46 1 19 43
M  V30 47 1 20 44
M  V30 48 1 22 45
M  V30 49 1 25 46
M  V30 50 1 26 47
M  V30 51 1 26 48
M  V30 52 1 30 49
M  V30 END BOND
M  V30 END CTAB
M  END
>  <Dataset>  (352) 
ChEMBL_Kinases

>  <Ligand_Instance>  (352) 
nan

>  <PDB_ID>  (352) 
nan

>  <Standardized_SMILES>  (352) 
C[C@@H](Nc1ncnc2c(C(N)=O)cccc12)c1cccc(NC(=O)C2CC2(F)F)c1

>  <Name>  (352) 
nan

>  <Pocket>  (352) 
nan

>  <ATP_Site>  (352) 
nan

>  <Peripheral>  (352) 
nan

>  <Num_H_Atoms_ProtBoundConf>  (352) 
nan

>  <Num_Resolved_Atoms>  (352) 
nan

>  <Num_Not_Resolved_Atoms>  (352) 
nan

$$$$
CHEMBL3680538
     RDKit          3D

  0  0  0  0  0  0  0  0  0  0999 V3000
M  V30 BEGIN CTAB
M  V30 COUNTS 55 58 0 0 0
M  V30 BEGIN ATOM
M  V30 1 C 2.392942 -2.879034 3.974709 0
M  V30 2 C 1.142165 -2.427686 3.250101 0 CFG=1
M  V30 3 N 0.980433 -0.978963 3.346938 0
M  V30 4 C 2.027510 -0.168080 2.809206 0
M  V30 5 N 3.108131 -0.726929 2.242191 0
M  V30 6 C 4.136508 -0.053308 1.713470 0
M  V30 7 N 4.115549 1.310241 1.736660 0
M  V30 8 C 3.067451 1.967426 2.287613 0
M  V30 9 C 2.971534 3.340957 2.350285 0
M  V30 10 C 4.050526 4.133474 1.796178 0
M  V30 11 N 4.085089 5.553054 1.795283 0
M  V30 12 O 5.152212 4.049381 1.219804 0
M  V30 13 C 1.936292 4.038977 2.895254 0
M  V30 14 C 0.914182 3.251217 3.419450 0
M  V30 15 C 0.974041 1.873257 3.375566 0
M  V30 16 C 2.042647 1.211462 2.813773 0
M  V30 17 C 1.092805 -2.888297 1.845245 0
M  V30 18 C 1.916880 -3.797399 1.215144 0
M  V30 19 C 1.760815 -4.136066 -0.102336 0
M  V30 20 C 0.743727 -3.545615 -0.819353 0
M  V30 21 C -0.101776 -2.630336 -0.221917 0
M  V30 22 N -1.091749 -2.122604 -1.109541 0
M  V30 23 C -2.358828 -2.712058 -1.285382 0
M  V30 24 O -2.446483 -3.742073 -0.529851 0
M  V30 25 C -3.429918 -2.281059 -2.155177 0
M  V30 26 C -4.586596 -3.072333 -2.116629 0
M  V30 27 C -5.678197 -2.763830 -2.900383 0
M  V30 28 C -5.683846 -1.676783 -3.747828 0
M  V30 29 C -6.826712 -1.284243 -4.622348 0
M  V30 30 F -7.440664 -0.204448 -4.021739 0
M  V30 31 F -6.327864 -0.889624 -5.848535 0
M  V30 32 F -7.703795 -2.343013 -4.753509 0
M  V30 33 N -4.567091 -0.930391 -3.771374 0
M  V30 34 C -3.504340 -1.231654 -3.007752 0
M  V30 35 O -2.497809 -0.510373 -3.066800 0
M  V30 36 C 0.071458 -2.300860 1.109680 0
M  V30 37 H 2.270629 -3.836841 4.493079 0
M  V30 38 H 2.664981 -2.136034 4.781985 0
M  V30 39 H 3.265481 -2.927331 3.289863 0
M  V30 40 H 0.299424 -2.903225 3.786870 0
M  V30 41 H 0.122654 -0.612609 3.796023 0
M  V30 42 H 4.980066 -0.536432 1.270350 0
M  V30 43 H 3.614659 6.278941 1.177443 0
M  V30 44 H 3.640767 6.285335 1.210279 0
M  V30 45 H 1.907320 5.111122 2.920280 0
M  V30 46 H 0.055497 3.767642 3.870862 0
M  V30 47 H 0.127474 1.364978 3.810480 0
M  V30 48 H 2.677465 -4.212601 1.829596 0
M  V30 49 H 2.480540 -4.865297 -0.470341 0
M  V30 50 H 0.682300 -3.859964 -1.848692 0
M  V30 51 H -0.866165 -1.266884 -1.659820 0
M  V30 52 H -4.654801 -3.954106 -1.465601 0
M  V30 53 H -6.564314 -3.381349 -2.861944 0
M  V30 54 H -4.540413 -0.114052 -4.392178 0
M  V30 55 H -0.655712 -1.574615 1.452612 0
M  V30 END ATOM
M  V30 BEGIN BOND
M  V30 1 1 1 2
M  V30 2 1 2 3
M  V30 3 1 3 4
M  V30 4 2 4 5
M  V30 5 1 5 6
M  V30 6 2 6 7
M  V30 7 1 7 8
M  V30 8 2 8 9
M  V30 9 1 9 10
M  V30 10 1 10 11
M  V30 11 2 10 12
M  V30 12 1 9 13
M  V30 13 2 13 14
M  V30 14 1 14 15
M  V30 15 2 15 16
M  V30 16 1 2 17
M  V30 17 2 17 18
M  V30 18 1 18 19
M  V30 19 2 19 20
M  V30 20 1 20 21
M  V30 21 1 21 22
M  V30 22 1 22 23
M  V30 23 2 23 24
M  V30 24 1 23 25
M  V30 25 2 25 26
M  V30 26 1 26 27
M  V30 27 2 27 28
M  V30 28 1 28 29
M  V30 29 1 29 30
M  V30 30 1 29 31
M  V30 31 1 29 32
M  V30 32 1 28 33
M  V30 33 1 33 34
M  V30 34 2 34 35
M  V30 35 2 21 36
M  V30 36 1 16 4
M  V30 37 1 36 17
M  V30 38 1 16 8
M  V30 39 1 34 25
M  V30 40 1 1 37
M  V30 41 1 1 38
M  V30 42 1 1 39
M  V30 43 1 2 40 CFG=1
M  V30 44 1 3 41
M  V30 45 1 6 42
M  V30 46 1 11 43
M  V30 47 1 11 44
M  V30 48 1 13 45
M  V30 49 1 14 46
M  V30 50 1 15 47
M  V30 51 1 18 48
M  V30 52 1 19 49
M  V30 53 1 20 50
M  V30 54 1 22 51
M  V30 55 1 26 52
M  V30 56 1 27 53
M  V30 57 1 33 54
M  V30 58 1 36 55
M  V30 END BOND
M  V30 END CTAB
M  END
>  <Dataset>  (353) 
ChEMBL_Kinases

>  <Ligand_Instance>  (353) 
nan

>  <PDB_ID>  (353) 
nan

>  <Standardized_SMILES>  (353) 
C[C@@H](Nc1ncnc2c(C(N)=O)cccc12)c1cccc(NC(=O)c2ccc(C(F)(F)F)[nH]c2=O)c1

>  <Name>  (353) 
nan

>  <Pocket>  (353) 
nan

>  <ATP_Site>  (353) 
nan

>  <Peripheral>  (353) 
nan

>  <Num_H_Atoms_ProtBoundConf>  (353) 
nan

>  <Num_Resolved_Atoms>  (353) 
nan

>  <Num_Not_Resolved_Atoms>  (353) 
nan

$$$$
CHEMBL3680516
     RDKit          3D

  0  0  0  0  0  0  0  0  0  0999 V3000
M  V30 BEGIN CTAB
M  V30 COUNTS 56 59 0 0 0
M  V30 BEGIN ATOM
M  V30 1 C 1.880322 -0.681127 4.121174 0
M  V30 2 N 1.677843 -2.045689 4.404779 0
M  V30 3 C 0.563471 -2.748598 3.891472 0
M  V30 4 C 0.635885 -2.944237 2.424581 0
M  V30 5 N 0.630396 -1.688757 1.718600 0
M  V30 6 C 1.084537 -1.651226 0.363649 0
M  V30 7 N 1.543937 -2.746813 -0.245367 0
M  V30 8 C 1.998989 -2.726279 -1.512613 0
M  V30 9 N 2.027962 -1.606835 -2.266412 0
M  V30 10 C 1.572988 -0.449131 -1.707751 0
M  V30 11 C 1.115625 -0.509587 -0.410398 0
M  V30 12 C 0.678284 0.634079 0.081026 0
M  V30 13 C 0.567273 2.030741 -0.464763 0
M  V30 14 C -0.888607 2.380084 -0.396946 0
M  V30 15 C -1.251177 3.344536 0.521434 0
M  V30 16 C -2.554574 3.762600 0.679087 0
M  V30 17 C -3.521925 3.171976 -0.133203 0
M  V30 18 C -4.895367 3.602433 0.020914 0
M  V30 19 N -5.987897 3.942152 0.125245 0
M  V30 20 C -3.134625 2.208084 -1.045849 0
M  V30 21 C -1.831001 1.786347 -1.206793 0
M  V30 22 C 1.079756 2.050714 -1.863566 0
M  V30 23 C 1.537767 0.714567 -2.321622 0
M  V30 24 C 2.018881 0.764716 -3.691279 0
M  V30 25 N 2.521328 -0.384170 -4.385796 0
M  V30 26 O 2.095382 1.720934 -4.488375 0
M  V30 27 C -0.420603 -3.865462 1.913479 0
M  V30 28 C -1.613039 -3.171593 1.778926 0
M  V30 29 C -2.755409 -3.836037 1.314631 0
M  V30 30 C -2.647248 -5.175734 1.004424 0
M  V30 31 C -1.459388 -5.862922 1.139328 0
M  V30 32 C -0.338291 -5.204125 1.596849 0
M  V30 33 H 2.362378 -0.461622 3.123672 0
M  V30 34 H 1.002730 -0.006503 4.248319 0
M  V30 35 H 2.657080 -0.285650 4.859428 0
M  V30 36 H 1.996535 -2.278607 5.357877 0
M  V30 37 H 0.555967 -3.767406 4.355085 0
M  V30 38 H -0.351728 -2.177645 4.194901 0
M  V30 39 H 1.602943 -3.491094 2.213906 0
M  V30 40 H 0.273629 -0.898997 2.238039 0
M  V30 41 H 2.383411 -3.582674 -2.052636 0
M  V30 42 H 0.295485 0.689919 1.088300 0
M  V30 43 H 1.135992 2.730976 0.183993 0
M  V30 44 H -0.517826 3.813772 1.161588 0
M  V30 45 H -2.845285 4.520263 1.401130 0
M  V30 46 H -3.919387 1.769699 -1.664080 0
M  V30 47 H -1.535305 1.031642 -1.925152 0
M  V30 48 H 1.840175 2.844135 -2.014841 0
M  V30 49 H 0.231652 2.312742 -2.557414 0
M  V30 50 H 2.483937 -1.371576 -4.691296 0
M  V30 51 H 2.763306 -1.284936 -4.835576 0
M  V30 52 H -1.816301 -2.128103 1.992829 0
M  V30 53 H -3.730053 -3.368621 1.179734 0
M  V30 54 H -3.522451 -5.704422 0.643028 0
M  V30 55 H -1.323883 -6.911377 0.908777 0
M  V30 56 H 0.669029 -5.615420 1.754369 0
M  V30 END ATOM
M  V30 BEGIN BOND
M  V30 1 1 1 2
M  V30 2 1 2 3
M  V30 3 1 3 4
M  V30 4 1 4 5
M  V30 5 1 5 6
M  V30 6 2 6 7
M  V30 7 1 7 8
M  V30 8 2 8 9
M  V30 9 1 9 10
M  V30 10 1 10 11
M  V30 11 2 11 12
M  V30 12 1 12 13
M  V30 13 1 13 14
M  V30 14 2 14 15
M  V30 15 1 15 16
M  V30 16 2 16 17
M  V30 17 1 17 18
M  V30 18 3 18 19
M  V30 19 1 17 20
M  V30 20 2 20 21
M  V30 21 1 13 22
M  V30 22 1 22 23
M  V30 23 1 23 24
M  V30 24 1 24 25
M  V30 25 2 24 26
M  V30 26 1 4 27
M  V30 27 2 27 28
M  V30 28 1 28 29
M  V30 29 2 29 30
M  V30 30 1 30 31
M  V30 31 2 31 32
M  V30 32 1 11 6
M  V30 33 1 21 14
M  V30 34 1 32 27
M  V30 35 2 23 10
M  V30 36 1 1 33
M  V30 37 1 1 34
M  V30 38 1 1 35
M  V30 39 1 2 36
M  V30 40 1 3 37
M  V30 41 1 3 38
M  V30 42 1 4 39
M  V30 43 1 5 40
M  V30 44 1 8 41
M  V30 45 1 12 42
M  V30 46 1 13 43
M  V30 47 1 15 44
M  V30 48 1 16 45
M  V30 49 1 20 46
M  V30 50 1 21 47
M  V30 51 1 22 48
M  V30 52 1 22 49
M  V30 53 1 25 50
M  V30 54 1 25 51
M  V30 55 1 28 52
M  V30 56 1 29 53
M  V30 57 1 30 54
M  V30 58 1 31 55
M  V30 59 1 32 56
M  V30 END BOND
M  V30 END CTAB
M  END
>  <Dataset>  (354) 
ChEMBL_Kinases

>  <Ligand_Instance>  (354) 
nan

>  <PDB_ID>  (354) 
nan

>  <Standardized_SMILES>  (354) 
CNCC(Nc1ncnc2c1=CC(c1ccc(C#N)cc1)CC=2C(N)=O)c1ccccc1

>  <Name>  (354) 
nan

>  <Pocket>  (354) 
nan

>  <ATP_Site>  (354) 
nan

>  <Peripheral>  (354) 
nan

>  <Num_H_Atoms_ProtBoundConf>  (354) 
nan

>  <Num_Resolved_Atoms>  (354) 
nan

>  <Num_Not_Resolved_Atoms>  (354) 
nan

$$$$
CHEMBL3680503
     RDKit          3D

  0  0  0  0  0  0  0  0  0  0999 V3000
M  V30 BEGIN CTAB
M  V30 COUNTS 59 62 0 0 0
M  V30 BEGIN ATOM
M  V30 1 C 6.763592 -3.602403 3.691086 0
M  V30 2 O 6.793525 -2.676297 2.648256 0
M  V30 3 C 5.758916 -1.917354 2.174597 0
M  V30 4 C 4.466122 -1.935484 2.659571 0
M  V30 5 C 3.512441 -1.117755 2.091221 0
M  V30 6 C 3.758246 -0.257291 1.044045 0
M  V30 7 C 2.775994 0.619651 0.420131 0
M  V30 8 O 3.158256 1.348942 -0.530352 0
M  V30 9 N 1.424020 0.707656 0.808786 0
M  V30 10 C 0.381479 1.510256 0.289587 0
M  V30 11 C 0.446968 2.401348 -0.733843 0
M  V30 12 C -0.593494 3.167276 -1.211510 0
M  V30 13 C -1.825766 3.032321 -0.608430 0
M  V30 14 C -1.943480 2.143341 0.431731 0
M  V30 15 C -3.259667 1.967159 1.109889 0 CFG=1
M  V30 16 C -4.360576 2.650168 0.327295 0
M  V30 17 N -3.529190 0.541719 1.314419 0
M  V30 18 C -3.567312 -0.290879 0.154216 0
M  V30 19 N -3.359261 0.221857 -1.066213 0
M  V30 20 C -3.389109 -0.536366 -2.149198 0
M  V30 21 N -3.629929 -1.869951 -2.096682 0
M  V30 22 C -3.850097 -2.469241 -0.909365 0
M  V30 23 C -4.099065 -3.812611 -0.793421 0
M  V30 24 C -4.128722 -4.628988 -1.986731 0
M  V30 25 N -3.902262 -4.056347 -3.285720 0
M  V30 26 O -4.344049 -5.861746 -2.016163 0
M  V30 27 C -4.323865 -4.420346 0.422492 0
M  V30 28 C -4.290391 -3.611938 1.560080 0
M  V30 29 C -4.035566 -2.259524 1.400352 0
M  V30 30 C -3.812024 -1.652849 0.195303 0
M  V30 31 C -0.866535 1.406635 0.863274 0
M  V30 32 C 5.061496 -0.274184 0.594301 0
M  V30 33 C 6.051268 -1.070937 1.126276 0
M  V30 34 C 7.429288 -1.000957 0.553250 0
M  V30 35 F 7.503699 -0.096026 -0.482245 0
M  V30 36 F 7.790591 -2.233644 0.094140 0
M  V30 37 F 8.324145 -0.543362 1.520930 0
M  V30 38 H 7.101045 -4.623043 3.345137 0
M  V30 39 H 7.502955 -3.349410 4.496969 0
M  V30 40 H 5.768773 -3.778271 4.132418 0
M  V30 41 H 4.237479 -2.599443 3.481454 0
M  V30 42 H 2.523167 -1.170273 2.505471 0
M  V30 43 H 1.213739 0.063627 1.602365 0
M  V30 44 H 1.383557 2.551380 -1.245926 0
M  V30 45 H -0.466172 3.858599 -2.033538 0
M  V30 46 H -2.642651 3.635944 -0.985133 0
M  V30 47 H -3.143931 2.422659 2.111192 0
M  V30 48 H -4.236880 2.396364 -0.731365 0
M  V30 49 H -5.314878 2.217198 0.654819 0
M  V30 50 H -4.274822 3.727920 0.539660 0
M  V30 51 H -3.677353 0.209783 2.272402 0
M  V30 52 H -3.229925 -0.192096 -3.169756 0
M  V30 53 H -4.729998 -3.726541 -3.802024 0
M  V30 54 H -2.907114 -4.006976 -3.633364 0
M  V30 55 H -4.518258 -5.468869 0.512812 0
M  V30 56 H -4.466644 -4.080278 2.528913 0
M  V30 57 H -4.031673 -1.727354 2.337923 0
M  V30 58 H -1.034574 0.713223 1.702561 0
M  V30 59 H 5.323342 0.389073 -0.238799 0
M  V30 END ATOM
M  V30 BEGIN BOND
M  V30 1 1 1 2
M  V30 2 1 2 3
M  V30 3 2 3 4
M  V30 4 1 4 5
M  V30 5 2 5 6
M  V30 6 1 6 7
M  V30 7 2 7 8
M  V30 8 1 7 9
M  V30 9 1 9 10
M  V30 10 2 10 11
M  V30 11 1 11 12
M  V30 12 2 12 13
M  V30 13 1 13 14
M  V30 14 1 14 15
M  V30 15 1 15 16
M  V30 16 1 15 17
M  V30 17 1 17 18
M  V30 18 2 18 19
M  V30 19 1 19 20
M  V30 20 2 20 21
M  V30 21 1 21 22
M  V30 22 2 22 23
M  V30 23 1 23 24
M  V30 24 1 24 25
M  V30 25 2 24 26
M  V30 26 1 23 27
M  V30 27 2 27 28
M  V30 28 1 28 29
M  V30 29 2 29 30
M  V30 30 2 14 31
M  V30 31 1 6 32
M  V30 32 2 32 33
M  V30 33 1 33 34
M  V30 34 1 34 35
M  V30 35 1 34 36
M  V30 36 1 34 37
M  V30 37 1 33 3
M  V30 38 1 31 10
M  V30 39 1 30 18
M  V30 40 1 30 22
M  V30 41 1 1 38
M  V30 42 1 1 39
M  V30 43 1 1 40
M  V30 44 1 4 41
M  V30 45 1 5 42
M  V30 46 1 9 43
M  V30 47 1 11 44
M  V30 48 1 12 45
M  V30 49 1 13 46
M  V30 50 1 15 47 CFG=1
M  V30 51 1 16 48
M  V30 52 1 16 49
M  V30 53 1 16 50
M  V30 54 1 17 51
M  V30 55 1 20 52
M  V30 56 1 25 53
M  V30 57 1 25 54
M  V30 58 1 27 55
M  V30 59 1 28 56
M  V30 60 1 29 57
M  V30 61 1 31 58
M  V30 62 1 32 59
M  V30 END BOND
M  V30 END CTAB
M  END
>  <Dataset>  (355) 
ChEMBL_Kinases

>  <Ligand_Instance>  (355) 
nan

>  <PDB_ID>  (355) 
nan

>  <Standardized_SMILES>  (355) 
COc1ccc(C(=O)Nc2cccc([C@@H](C)Nc3ncnc4c(C(N)=O)cccc34)c2)cc1C(F)(F)F

>  <Name>  (355) 
nan

>  <Pocket>  (355) 
nan

>  <ATP_Site>  (355) 
nan

>  <Peripheral>  (355) 
nan

>  <Num_H_Atoms_ProtBoundConf>  (355) 
nan

>  <Num_Resolved_Atoms>  (355) 
nan

>  <Num_Not_Resolved_Atoms>  (355) 
nan

$$$$
CHEMBL3680496
     RDKit          3D

  0  0  0  0  0  0  0  0  0  0999 V3000
M  V30 BEGIN CTAB
M  V30 COUNTS 44 46 0 0 0
M  V30 BEGIN ATOM
M  V30 1 C -1.860988 -1.942388 0.619549 0
M  V30 2 C -1.605079 -0.634364 1.333777 0 CFG=2
M  V30 3 N -0.938321 0.254224 0.410244 0
M  V30 4 C 0.224939 -0.078497 -0.361037 0
M  V30 5 N 0.817283 -1.280706 -0.328453 0
M  V30 6 C 1.894285 -1.597332 -1.059926 0
M  V30 7 N 2.484276 -0.730258 -1.900761 0
M  V30 8 C 1.929661 0.491641 -1.971941 0
M  V30 9 C 2.518302 1.396818 -2.827481 0
M  V30 10 C 3.691966 1.012673 -3.608035 0
M  V30 11 N 4.232705 -0.297481 -3.488596 0
M  V30 12 O 4.257175 1.802365 -4.396013 0
M  V30 13 C 2.033345 2.678916 -2.979746 0
M  V30 14 C 0.915886 3.008559 -2.221216 0
M  V30 15 C 0.352579 2.080465 -1.376330 0
M  V30 16 C 0.822887 0.816322 -1.219947 0
M  V30 17 C -0.978894 -0.745804 2.673125 0
M  V30 18 C 0.339284 -1.390581 2.776452 0
M  V30 19 C 0.756520 -1.808046 4.153600 0
M  V30 20 C -0.333026 -2.055349 5.129705 0
M  V30 21 C -1.468159 -1.059979 5.010064 0
M  V30 22 C -2.021946 -1.299240 3.620352 0
M  V30 23 H -0.966443 -2.594863 0.605723 0
M  V30 24 H -2.761452 -2.464203 1.024470 0
M  V30 25 H -2.094563 -1.688187 -0.433067 0
M  V30 26 H -2.661319 -0.189235 1.459008 0
M  V30 27 H -1.340511 1.202587 0.309322 0
M  V30 28 H 2.284393 -2.599734 -0.949386 0
M  V30 29 H 4.021855 -1.308816 -3.668154 0
M  V30 30 H 4.015664 -1.318082 -3.671642 0
M  V30 31 H 2.520478 3.359882 -3.658973 0
M  V30 32 H 0.556627 4.020051 -2.360109 0
M  V30 33 H -0.492993 2.466425 -0.859603 0
M  V30 34 H -0.837850 0.320434 3.031798 0
M  V30 35 H 1.170816 -0.777098 2.362185 0
M  V30 36 H 0.310188 -2.324944 2.177086 0
M  V30 37 H 1.398862 -0.996420 4.592544 0
M  V30 38 H 1.439496 -2.679968 4.094468 0
M  V30 39 H -0.014546 -2.133232 6.167312 0
M  V30 40 H -0.799694 -3.049505 4.885850 0
M  V30 41 H -2.195286 -1.307262 5.810204 0
M  V30 42 H -1.072746 -0.039125 5.091995 0
M  V30 43 H -2.178934 -2.392791 3.462363 0
M  V30 44 H -2.968833 -0.798692 3.416809 0
M  V30 END ATOM
M  V30 BEGIN BOND
M  V30 1 1 1 2
M  V30 2 1 2 3
M  V30 3 1 3 4
M  V30 4 2 4 5
M  V30 5 1 5 6
M  V30 6 2 6 7
M  V30 7 1 7 8
M  V30 8 2 8 9
M  V30 9 1 9 10
M  V30 10 1 10 11
M  V30 11 2 10 12
M  V30 12 1 9 13
M  V30 13 2 13 14
M  V30 14 1 14 15
M  V30 15 2 15 16
M  V30 16 1 2 17
M  V30 17 1 17 18
M  V30 18 1 18 19
M  V30 19 1 19 20
M  V30 20 1 20 21
M  V30 21 1 21 22
M  V30 22 1 16 4
M  V30 23 1 22 17
M  V30 24 1 16 8
M  V30 25 1 1 23
M  V30 26 1 1 24
M  V30 27 1 1 25
M  V30 28 1 2 26 CFG=1
M  V30 29 1 3 27
M  V30 30 1 6 28
M  V30 31 1 11 29
M  V30 32 1 11 30
M  V30 33 1 13 31
M  V30 34 1 14 32
M  V30 35 1 15 33
M  V30 36 1 17 34
M  V30 37 1 18 35
M  V30 38 1 18 36
M  V30 39 1 19 37
M  V30 40 1 19 38
M  V30 41 1 20 39
M  V30 42 1 20 40
M  V30 43 1 21 41
M  V30 44 1 21 42
M  V30 45 1 22 43
M  V30 46 1 22 44
M  V30 END BOND
M  V30 END CTAB
M  END
>  <Dataset>  (356) 
ChEMBL_Kinases

>  <Ligand_Instance>  (356) 
nan

>  <PDB_ID>  (356) 
nan

>  <Standardized_SMILES>  (356) 
C[C@H](Nc1ncnc2c(C(N)=O)cccc12)C1CCCCC1

>  <Name>  (356) 
nan

>  <Pocket>  (356) 
nan

>  <ATP_Site>  (356) 
nan

>  <Peripheral>  (356) 
nan

>  <Num_H_Atoms_ProtBoundConf>  (356) 
nan

>  <Num_Resolved_Atoms>  (356) 
nan

>  <Num_Not_Resolved_Atoms>  (356) 
nan

$$$$
CHEMBL3680494
     RDKit          3D

  0  0  0  0  0  0  0  0  0  0999 V3000
M  V30 BEGIN CTAB
M  V30 COUNTS 61 64 0 0 0
M  V30 BEGIN ATOM
M  V30 1 C 2.299919 -2.434342 5.565410 0
M  V30 2 C 2.781262 -1.943166 4.218694 0
M  V30 3 C 4.267543 -2.157585 4.058073 0
M  V30 4 C 4.655666 -1.769892 2.655486 0
M  V30 5 C 4.143557 -0.410042 2.251664 0
M  V30 6 C 3.124931 -0.582450 1.214038 0
M  V30 7 O 2.539669 -1.503364 0.552733 0
M  V30 8 N 2.627034 0.674493 0.813038 0
M  V30 9 C 1.636019 1.036744 -0.154434 0
M  V30 10 C 1.891709 1.299151 -1.489998 0
M  V30 11 C 0.839128 1.638563 -2.313713 0
M  V30 12 C -0.465663 1.730110 -1.868439 0
M  V30 13 C -0.705753 1.469404 -0.550425 0
M  V30 14 C -2.081768 1.546946 0.005776 0 CFG=1
M  V30 15 C -2.478055 2.997339 0.135039 0
M  V30 16 N -3.055177 0.897795 -0.863181 0
M  V30 17 C -2.843338 -0.508393 -1.119423 0
M  V30 18 N -1.805781 -1.162257 -0.582271 0
M  V30 19 C -1.513741 -2.450386 -0.749571 0
M  V30 20 N -2.345095 -3.168077 -1.538229 0
M  V30 21 C -3.419354 -2.614973 -2.130120 0
M  V30 22 C -4.233399 -3.396410 -2.924412 0
M  V30 23 C -3.982271 -4.832065 -3.163985 0
M  V30 24 N -2.837411 -5.382800 -2.526969 0
M  V30 25 O -4.788554 -5.452549 -3.903595 0
M  V30 26 C -5.330395 -2.758182 -3.506683 0
M  V30 27 C -5.610584 -1.417775 -3.315706 0
M  V30 28 C -4.751367 -0.703192 -2.509293 0
M  V30 29 C -3.657259 -1.288171 -1.913668 0
M  V30 30 C 0.335484 1.123674 0.308445 0
M  V30 31 C 3.653680 0.279636 3.494653 0
M  V30 32 C 2.493120 -0.480719 4.078614 0
M  V30 33 H 1.538783 -3.237720 5.493460 0
M  V30 34 H 3.125710 -2.830699 6.203400 0
M  V30 35 H 1.821976 -1.597711 6.133049 0
M  V30 36 H 2.277022 -2.582989 3.459970 0
M  V30 37 H 4.424625 -3.263243 4.139945 0
M  V30 38 H 4.880352 -1.693382 4.836934 0
M  V30 39 H 5.757428 -1.874314 2.521445 0
M  V30 40 H 4.225959 -2.576548 1.994014 0
M  V30 41 H 5.033895 0.156411 1.856151 0
M  V30 42 H 2.878274 1.638704 1.141554 0
M  V30 43 H 2.927000 1.221644 -1.820409 0
M  V30 44 H 1.024333 1.843883 -3.349851 0
M  V30 45 H -1.285454 1.993627 -2.506414 0
M  V30 46 H -2.112628 1.118631 1.031603 0
M  V30 47 H -2.463944 3.353260 1.183275 0
M  V30 48 H -3.495046 3.185422 -0.303222 0
M  V30 49 H -1.785434 3.597784 -0.454449 0
M  V30 50 H -3.828997 1.441621 -1.249255 0
M  V30 51 H -0.634300 -2.814830 -0.239405 0
M  V30 52 H -1.978793 -5.413173 -3.150435 0
M  V30 53 H -2.975231 -5.688356 -1.533780 0
M  V30 54 H -5.957251 -3.380720 -4.124532 0
M  V30 55 H -6.491842 -1.059803 -3.827930 0
M  V30 56 H -5.003339 0.333045 -2.386199 0
M  V30 57 H 0.105288 0.923437 1.350738 0
M  V30 58 H 3.312028 1.303727 3.224349 0
M  V30 59 H 4.489457 0.392239 4.183454 0
M  V30 60 H 1.630897 -0.386746 3.367364 0
M  V30 61 H 2.147657 -0.040880 5.033057 0
M  V30 END ATOM
M  V30 BEGIN BOND
M  V30 1 1 1 2
M  V30 2 1 2 3
M  V30 3 1 3 4
M  V30 4 1 4 5
M  V30 5 1 5 6
M  V30 6 2 6 7
M  V30 7 1 6 8
M  V30 8 1 8 9
M  V30 9 2 9 10
M  V30 10 1 10 11
M  V30 11 2 11 12
M  V30 12 1 12 13
M  V30 13 1 13 14
M  V30 14 1 14 15
M  V30 15 1 14 16
M  V30 16 1 16 17
M  V30 17 2 17 18
M  V30 18 1 18 19
M  V30 19 2 19 20
M  V30 20 1 20 21
M  V30 21 2 21 22
M  V30 22 1 22 23
M  V30 23 1 23 24
M  V30 24 2 23 25
M  V30 25 1 22 26
M  V30 26 2 26 27
M  V30 27 1 27 28
M  V30 28 2 28 29
M  V30 29 2 13 30
M  V30 30 1 5 31
M  V30 31 1 31 32
M  V30 32 1 32 2
M  V30 33 1 30 9
M  V30 34 1 29 17
M  V30 35 1 29 21
M  V30 36 1 1 33
M  V30 37 1 1 34
M  V30 38 1 1 35
M  V30 39 1 2 36
M  V30 40 1 3 37
M  V30 41 1 3 38
M  V30 42 1 4 39
M  V30 43 1 4 40
M  V30 44 1 5 41
M  V30 45 1 8 42
M  V30 46 1 10 43
M  V30 47 1 11 44
M  V30 48 1 12 45
M  V30 49 1 14 46 CFG=1
M  V30 50 1 15 47
M  V30 51 1 15 48
M  V30 52 1 15 49
M  V30 53 1 16 50
M  V30 54 1 19 51
M  V30 55 1 24 52
M  V30 56 1 24 53
M  V30 57 1 26 54
M  V30 58 1 27 55
M  V30 59 1 28 56
M  V30 60 1 30 57
M  V30 61 1 31 58
M  V30 62 1 31 59
M  V30 63 1 32 60
M  V30 64 1 32 61
M  V30 END BOND
M  V30 END CTAB
M  END
>  <Dataset>  (357) 
ChEMBL_Kinases

>  <Ligand_Instance>  (357) 
nan

>  <PDB_ID>  (357) 
nan

>  <Standardized_SMILES>  (357) 
CC1CCC(C(=O)Nc2cccc([C@@H](C)Nc3ncnc4c(C(N)=O)cccc34)c2)CC1

>  <Name>  (357) 
nan

>  <Pocket>  (357) 
nan

>  <ATP_Site>  (357) 
nan

>  <Peripheral>  (357) 
nan

>  <Num_H_Atoms_ProtBoundConf>  (357) 
nan

>  <Num_Resolved_Atoms>  (357) 
nan

>  <Num_Not_Resolved_Atoms>  (357) 
nan

$$$$
CHEMBL3680493
     RDKit          3D

  0  0  0  0  0  0  0  0  0  0999 V3000
M  V30 BEGIN CTAB
M  V30 COUNTS 49 52 0 0 0
M  V30 BEGIN ATOM
M  V30 1 C -0.433180 -0.454450 2.950225 0
M  V30 2 C -0.167661 -1.002929 1.566041 0
M  V30 3 N 0.722374 -0.184135 0.797497 0
M  V30 4 C 1.447347 0.956456 1.280115 0
M  V30 5 N 1.271907 1.364100 2.542753 0
M  V30 6 C 1.924355 2.468082 3.022074 0
M  V30 7 N 2.774158 3.187074 2.225284 0
M  V30 8 C 2.965056 2.800203 0.961342 0
M  V30 9 C 3.825727 3.527470 0.186435 0
M  V30 10 C 4.548579 4.718737 0.635277 0
M  V30 11 N 4.361057 5.147355 1.972114 0
M  V30 12 O 5.315318 5.353425 -0.129005 0
M  V30 13 C 4.015808 3.105070 -1.106104 0
M  V30 14 C 3.401477 2.008466 -1.659408 0
M  V30 15 C 2.554300 1.340657 -0.806196 0
M  V30 16 C 2.299687 1.679259 0.484969 0
M  V30 17 C -1.490786 -1.191135 0.900770 0
M  V30 18 C -1.965385 -0.039129 0.297018 0
M  V30 19 C -3.183509 -0.065545 -0.332874 0
M  V30 20 C -3.973725 -1.187076 -0.402421 0
M  V30 21 C -3.479803 -2.343460 0.211879 0
M  V30 22 N -4.257395 -3.528654 0.165398 0
M  V30 23 C -3.766888 -4.759840 0.755217 0
M  V30 24 N -3.821001 -5.597329 1.825194 0
M  V30 25 C -2.954178 -6.608212 1.517054 0
M  V30 26 C -2.391311 -6.378026 0.281871 0
M  V30 27 C -1.405828 -7.207393 -0.444085 0
M  V30 28 O -0.950380 -8.270382 0.028455 0
M  V30 29 O -0.977649 -6.784653 -1.692916 0
M  V30 30 O -2.927953 -5.251338 -0.110909 0
M  V30 31 C -2.259002 -2.323126 0.845773 0
M  V30 32 H -0.905024 0.522867 2.919614 0
M  V30 33 H 0.437662 -0.554083 3.602603 0
M  V30 34 H -1.206852 -1.152276 3.403298 0
M  V30 35 H 0.356113 -2.002157 1.670637 0
M  V30 36 H 0.719160 -0.583559 -0.145964 0
M  V30 37 H 1.795487 2.805422 4.032169 0
M  V30 38 H 3.429961 5.601575 1.863793 0
M  V30 39 H 4.313059 5.418086 2.962428 0
M  V30 40 H 4.708674 3.691905 -1.701355 0
M  V30 41 H 3.637025 1.783689 -2.672072 0
M  V30 42 H 2.048404 0.468144 -1.220587 0
M  V30 43 H -1.448765 0.924151 0.271187 0
M  V30 44 H -3.618234 0.806324 -0.834706 0
M  V30 45 H -4.954080 -1.275602 -0.892126 0
M  V30 46 H -5.182927 -3.534894 -0.289089 0
M  V30 47 H -2.743937 -7.455207 2.149376 0
M  V30 48 H 0.013994 -6.874340 -1.977032 0
M  V30 49 H -1.828339 -3.177034 1.334585 0
M  V30 END ATOM
M  V30 BEGIN BOND
M  V30 1 1 1 2
M  V30 2 1 2 3
M  V30 3 1 3 4
M  V30 4 2 4 5
M  V30 5 1 5 6
M  V30 6 2 6 7
M  V30 7 1 7 8
M  V30 8 2 8 9
M  V30 9 1 9 10
M  V30 10 1 10 11
M  V30 11 2 10 12
M  V30 12 1 9 13
M  V30 13 2 13 14
M  V30 14 1 14 15
M  V30 15 2 15 16
M  V30 16 1 2 17
M  V30 17 2 17 18
M  V30 18 1 18 19
M  V30 19 2 19 20
M  V30 20 1 20 21
M  V30 21 1 21 22
M  V30 22 1 22 23
M  V30 23 2 23 24
M  V30 24 1 24 25
M  V30 25 2 25 26
M  V30 26 1 26 27
M  V30 27 2 27 28
M  V30 28 1 27 29
M  V30 29 1 26 30
M  V30 30 2 21 31
M  V30 31 1 16 4
M  V30 32 1 31 17
M  V30 33 1 16 8
M  V30 34 1 30 23
M  V30 35 1 1 32
M  V30 36 1 1 33
M  V30 37 1 1 34
M  V30 38 1 2 35
M  V30 39 1 3 36
M  V30 40 1 6 37
M  V30 41 1 11 38
M  V30 42 1 11 39
M  V30 43 1 13 40
M  V30 44 1 14 41
M  V30 45 1 15 42
M  V30 46 1 18 43
M  V30 47 1 19 44
M  V30 48 1 20 45
M  V30 49 1 22 46
M  V30 50 1 25 47
M  V30 51 1 29 48
M  V30 52 1 31 49
M  V30 END BOND
M  V30 END CTAB
M  END
>  <Dataset>  (358) 
ChEMBL_Kinases

>  <Ligand_Instance>  (358) 
nan

>  <PDB_ID>  (358) 
nan

>  <Standardized_SMILES>  (358) 
CC(Nc1ncnc2c(C(N)=O)cccc12)c1cccc(Nc2ncc(C(=O)O)o2)c1

>  <Name>  (358) 
nan

>  <Pocket>  (358) 
nan

>  <ATP_Site>  (358) 
nan

>  <Peripheral>  (358) 
nan

>  <Num_H_Atoms_ProtBoundConf>  (358) 
nan

>  <Num_Resolved_Atoms>  (358) 
nan

>  <Num_Not_Resolved_Atoms>  (358) 
nan

$$$$
CHEMBL3680475
     RDKit          3D

  0  0  0  0  0  0  0  0  0  0999 V3000
M  V30 BEGIN CTAB
M  V30 COUNTS 54 57 0 0 0
M  V30 BEGIN ATOM
M  V30 1 C 0.828852 -1.727352 3.231826 0
M  V30 2 C -0.034039 -0.540991 3.543661 0 CFG=1
M  V30 3 N 0.749487 0.686139 3.667699 0
M  V30 4 C 1.494136 1.148936 2.572373 0
M  V30 5 N 1.524181 0.517017 1.400846 0
M  V30 6 C 2.214235 0.905511 0.316029 0
M  V30 7 N 2.960466 2.043054 0.385685 0
M  V30 8 C 2.997533 2.763268 1.539059 0
M  V30 9 C 3.768652 3.900340 1.541016 0
M  V30 10 C 4.530552 4.349151 0.381804 0
M  V30 11 N 4.459490 3.559377 -0.799174 0
M  V30 12 O 5.208193 5.404579 0.483336 0
M  V30 13 C 3.784029 4.613307 2.733995 0
M  V30 14 C 3.073106 4.216925 3.857796 0
M  V30 15 C 2.329494 3.060104 3.752067 0
M  V30 16 C 2.262231 2.298386 2.606636 0
M  V30 17 C -1.042704 -0.414411 2.454449 0
M  V30 18 C -1.738082 0.772840 2.437637 0
M  V30 19 C -2.683277 0.922350 1.443681 0
M  V30 20 C -2.916226 -0.066844 0.517733 0
M  V30 21 C -2.231799 -1.259697 0.517609 0
M  V30 22 N -2.517107 -2.242291 -0.462389 0
M  V30 23 C -1.965726 -3.512504 -0.683834 0
M  V30 24 O -1.059689 -3.894104 0.090786 0
M  V30 25 C -2.397815 -4.392936 -1.762953 0
M  V30 26 C -1.806897 -5.628750 -1.914735 0
M  V30 27 C -2.271180 -6.422876 -2.972143 0
M  V30 28 C -3.277469 -6.003909 -3.837116 0
M  V30 29 C -3.738644 -6.879204 -4.944748 0
M  V30 30 F -3.039210 -6.625825 -6.116737 0
M  V30 31 F -3.509071 -8.215422 -4.613009 0
M  V30 32 F -5.075915 -6.756607 -5.226821 0
M  V30 33 C -3.830465 -4.742189 -3.625277 0
M  V30 34 N -3.382723 -3.962394 -2.596391 0
M  V30 35 C -1.296622 -1.385446 1.516109 0
M  V30 36 H 1.689834 -1.825197 3.933277 0
M  V30 37 H 0.232906 -2.659143 3.385321 0
M  V30 38 H 1.147642 -1.673847 2.174490 0
M  V30 39 H -0.631686 -0.710799 4.491414 0
M  V30 40 H 0.698277 1.149384 4.597716 0
M  V30 41 H 2.204611 0.355910 -0.611135 0
M  V30 42 H 5.072604 2.694591 -0.834326 0
M  V30 43 H 3.764815 4.061759 -1.398089 0
M  V30 44 H 4.402407 5.524643 2.733712 0
M  V30 45 H 3.111978 4.805139 4.774101 0
M  V30 46 H 1.794375 2.790762 4.647863 0
M  V30 47 H -1.585001 1.567472 3.142029 0
M  V30 48 H -3.260707 1.830877 1.379167 0
M  V30 49 H -3.671171 0.110554 -0.237682 0
M  V30 50 H -3.271751 -2.006051 -1.162472 0
M  V30 51 H -1.026281 -5.960192 -1.248307 0
M  V30 52 H -1.822882 -7.418307 -3.125605 0
M  V30 53 H -4.618474 -4.386529 -4.284257 0
M  V30 54 H -0.710518 -2.262009 1.614979 0
M  V30 END ATOM
M  V30 BEGIN BOND
M  V30 1 1 1 2
M  V30 2 1 2 3
M  V30 3 1 3 4
M  V30 4 2 4 5
M  V30 5 1 5 6
M  V30 6 2 6 7
M  V30 7 1 7 8
M  V30 8 2 8 9
M  V30 9 1 9 10
M  V30 10 1 10 11
M  V30 11 2 10 12
M  V30 12 1 9 13
M  V30 13 2 13 14
M  V30 14 1 14 15
M  V30 15 2 15 16
M  V30 16 1 2 17
M  V30 17 2 17 18
M  V30 18 1 18 19
M  V30 19 2 19 20
M  V30 20 1 20 21
M  V30 21 1 21 22
M  V30 22 1 22 23
M  V30 23 2 23 24
M  V30 24 1 23 25
M  V30 25 2 25 26
M  V30 26 1 26 27
M  V30 27 2 27 28
M  V30 28 1 28 29
M  V30 29 1 29 30
M  V30 30 1 29 31
M  V30 31 1 29 32
M  V30 32 1 28 33
M  V30 33 2 33 34
M  V30 34 2 21 35
M  V30 35 1 16 4
M  V30 36 1 35 17
M  V30 37 1 16 8
M  V30 38 1 34 25
M  V30 39 1 1 36
M  V30 40 1 1 37
M  V30 41 1 1 38
M  V30 42 1 2 39 CFG=1
M  V30 43 1 3 40
M  V30 44 1 6 41
M  V30 45 1 11 42
M  V30 46 1 11 43
M  V30 47 1 13 44
M  V30 48 1 14 45
M  V30 49 1 15 46
M  V30 50 1 18 47
M  V30 51 1 19 48
M  V30 52 1 20 49
M  V30 53 1 22 50
M  V30 54 1 26 51
M  V30 55 1 27 52
M  V30 56 1 33 53
M  V30 57 1 35 54
M  V30 END BOND
M  V30 END CTAB
M  END
>  <Dataset>  (359) 
ChEMBL_Kinases

>  <Ligand_Instance>  (359) 
nan

>  <PDB_ID>  (359) 
nan

>  <Standardized_SMILES>  (359) 
C[C@@H](Nc1ncnc2c(C(N)=O)cccc12)c1cccc(NC(=O)c2ccc(C(F)(F)F)cn2)c1

>  <Name>  (359) 
nan

>  <Pocket>  (359) 
nan

>  <ATP_Site>  (359) 
nan

>  <Peripheral>  (359) 
nan

>  <Num_H_Atoms_ProtBoundConf>  (359) 
nan

>  <Num_Resolved_Atoms>  (359) 
nan

>  <Num_Not_Resolved_Atoms>  (359) 
nan

$$$$
CHEMBL3680473
     RDKit          3D

  0  0  0  0  0  0  0  0  0  0999 V3000
M  V30 BEGIN CTAB
M  V30 COUNTS 55 58 0 0 0
M  V30 BEGIN ATOM
M  V30 1 C 1.799274 -2.564886 4.554047 0
M  V30 2 C 0.583888 -2.247407 3.697292 0 CFG=1
M  V30 3 N 0.392119 -0.819309 3.562879 0
M  V30 4 C 1.452831 -0.081231 2.963279 0
M  V30 5 N 2.572868 -0.681351 2.544277 0
M  V30 6 C 3.563884 0.024906 1.981132 0
M  V30 7 N 3.523724 1.372421 1.789933 0
M  V30 8 C 2.412528 2.028579 2.196081 0
M  V30 9 C 2.344850 3.393710 2.014861 0
M  V30 10 C 3.466294 4.095726 1.392517 0
M  V30 11 N 3.421345 5.493795 1.197416 0
M  V30 12 O 4.470236 3.423405 1.036047 0
M  V30 13 C 1.219540 4.074933 2.423877 0
M  V30 14 C 0.174890 3.369179 3.011546 0
M  V30 15 C 0.309028 2.011968 3.161135 0
M  V30 16 C 1.409805 1.278977 2.771416 0
M  V30 17 C 0.687515 -2.910779 2.362237 0
M  V30 18 C 1.614299 -3.872553 2.000691 0
M  V30 19 C 1.612289 -4.408384 0.743569 0
M  V30 20 C 0.696980 -4.027956 -0.231118 0
M  V30 21 C -0.220536 -3.072637 0.134173 0
M  V30 22 N -1.148590 -2.692788 -0.872668 0
M  V30 23 C -2.428285 -3.217288 -1.201421 0
M  V30 24 O -2.934556 -4.162614 -0.585899 0
M  V30 25 C -3.186520 -2.632025 -2.301671 0
M  V30 26 C -4.422301 -3.176278 -2.581461 0
M  V30 27 C -5.218044 -2.680677 -3.616167 0
M  V30 28 F -6.431937 -3.203123 -3.903400 0
M  V30 29 C -4.799073 -1.625305 -4.400967 0
M  V30 30 C -3.561543 -1.081832 -4.119259 0
M  V30 31 C -2.983434 0.068096 -4.894017 0
M  V30 32 F -4.038471 0.890215 -5.240357 0
M  V30 33 F -2.325222 -0.385343 -6.019569 0
M  V30 34 F -2.151136 0.815978 -4.066351 0
M  V30 35 C -2.784044 -1.579373 -3.094752 0
M  V30 36 C -0.237529 -2.515134 1.403515 0
M  V30 37 H 1.621898 -3.571504 4.986529 0
M  V30 38 H 1.837837 -1.841781 5.393117 0
M  V30 39 H 2.745386 -2.575420 3.974774 0
M  V30 40 H -0.292309 -2.660253 4.229740 0
M  V30 41 H -0.496221 -0.404088 3.904126 0
M  V30 42 H 4.486273 -0.437933 1.631231 0
M  V30 43 H 2.782023 5.564665 0.354804 0
M  V30 44 H 2.795071 5.505832 0.377564 0
M  V30 45 H 1.123486 5.150621 2.300668 0
M  V30 46 H -0.696064 3.927991 3.323149 0
M  V30 47 H -0.546506 1.547164 3.624830 0
M  V30 48 H 2.317949 -4.159646 2.762411 0
M  V30 49 H 2.380524 -5.157129 0.557375 0
M  V30 50 H 0.788683 -4.509403 -1.170535 0
M  V30 51 H -0.689112 -1.897390 -1.368258 0
M  V30 52 H -4.879941 -4.006106 -2.050832 0
M  V30 53 H -5.366534 -1.196224 -5.215200 0
M  V30 54 H -1.816475 -1.147046 -2.882002 0
M  V30 55 H -1.007853 -1.776904 1.560914 0
M  V30 END ATOM
M  V30 BEGIN BOND
M  V30 1 1 1 2
M  V30 2 1 2 3
M  V30 3 1 3 4
M  V30 4 2 4 5
M  V30 5 1 5 6
M  V30 6 2 6 7
M  V30 7 1 7 8
M  V30 8 2 8 9
M  V30 9 1 9 10
M  V30 10 1 10 11
M  V30 11 2 10 12
M  V30 12 1 9 13
M  V30 13 2 13 14
M  V30 14 1 14 15
M  V30 15 2 15 16
M  V30 16 1 2 17
M  V30 17 2 17 18
M  V30 18 1 18 19
M  V30 19 2 19 20
M  V30 20 1 20 21
M  V30 21 1 21 22
M  V30 22 1 22 23
M  V30 23 2 23 24
M  V30 24 1 23 25
M  V30 25 2 25 26
M  V30 26 1 26 27
M  V30 27 1 27 28
M  V30 28 2 27 29
M  V30 29 1 29 30
M  V30 30 1 30 31
M  V30 31 1 31 32
M  V30 32 1 31 33
M  V30 33 1 31 34
M  V30 34 2 30 35
M  V30 35 2 21 36
M  V30 36 1 16 4
M  V30 37 1 36 17
M  V30 38 1 16 8
M  V30 39 1 35 25
M  V30 40 1 1 37
M  V30 41 1 1 38
M  V30 42 1 1 39
M  V30 43 1 2 40 CFG=1
M  V30 44 1 3 41
M  V30 45 1 6 42
M  V30 46 1 11 43
M  V30 47 1 11 44
M  V30 48 1 13 45
M  V30 49 1 14 46
M  V30 50 1 15 47
M  V30 51 1 18 48
M  V30 52 1 19 49
M  V30 53 1 20 50
M  V30 54 1 22 51
M  V30 55 1 26 52
M  V30 56 1 29 53
M  V30 57 1 35 54
M  V30 58 1 36 55
M  V30 END BOND
M  V30 END CTAB
M  END
>  <Dataset>  (360) 
ChEMBL_Kinases

>  <Ligand_Instance>  (360) 
nan

>  <PDB_ID>  (360) 
nan

>  <Standardized_SMILES>  (360) 
C[C@@H](Nc1ncnc2c(C(N)=O)cccc12)c1cccc(NC(=O)c2cc(F)cc(C(F)(F)F)c2)c1

>  <Name>  (360) 
nan

>  <Pocket>  (360) 
nan

>  <ATP_Site>  (360) 
nan

>  <Peripheral>  (360) 
nan

>  <Num_H_Atoms_ProtBoundConf>  (360) 
nan

>  <Num_Resolved_Atoms>  (360) 
nan

>  <Num_Not_Resolved_Atoms>  (360) 
nan

$$$$
CHEMBL3680472
     RDKit          3D

  0  0  0  0  0  0  0  0  0  0999 V3000
M  V30 BEGIN CTAB
M  V30 COUNTS 58 61 0 0 0
M  V30 BEGIN ATOM
M  V30 1 C -0.997520 -3.290044 4.393071 0
M  V30 2 N 0.218068 -2.752260 3.870386 0
M  V30 3 C 0.778371 -3.505576 2.778943 0
M  V30 4 C -0.051477 -3.439991 1.517410 0
M  V30 5 N -0.146583 -2.077618 1.106371 0
M  V30 6 C 0.967689 -1.319043 0.725412 0
M  V30 7 N 2.213833 -1.816226 0.706794 0
M  V30 8 C 3.309238 -1.130576 0.344016 0
M  V30 9 N 3.218210 0.154855 -0.039817 0
M  V30 10 C 1.997681 0.746919 -0.053973 0
M  V30 11 C 1.876840 2.066494 -0.444829 0
M  V30 12 C 3.056800 2.824705 -0.843097 0
M  V30 13 N 4.364283 2.276033 -0.858739 0
M  V30 14 O 2.982708 4.028075 -1.201433 0
M  V30 15 C 0.655770 2.704250 -0.473724 0
M  V30 16 C -0.454077 1.973245 -0.095299 0
M  V30 17 C -1.786556 2.614566 -0.110553 0
M  V30 18 C -2.802114 2.269100 0.769898 0
M  V30 19 C -4.016781 2.919119 0.685501 0
M  V30 20 C -4.240839 3.890531 -0.240947 0
M  V30 21 C -5.549368 4.590392 -0.331996 0
M  V30 22 C -3.282331 4.271820 -1.130845 0
M  V30 23 C -2.050070 3.617073 -1.050503 0
M  V30 24 C -0.305816 0.657547 0.290778 0
M  V30 25 C 0.902897 0.001433 0.327087 0
M  V30 26 C 0.577270 -4.329117 0.502387 0
M  V30 27 C 1.659678 -5.088478 0.551245 0
M  V30 28 C 2.200121 -5.933632 -0.508196 0
M  V30 29 C 1.468205 -5.947597 -1.797438 0
M  V30 30 C 0.266103 -5.073938 -1.777563 0
M  V30 31 C -0.170441 -4.332406 -0.772627 0
M  V30 32 H -1.344679 -4.121047 3.768795 0
M  V30 33 H -0.725506 -3.758665 5.384936 0
M  V30 34 H -1.785404 -2.549841 4.622736 0
M  V30 35 H 0.903293 -2.421742 4.554451 0
M  V30 36 H 1.798024 -3.114166 2.607268 0
M  V30 37 H 0.796608 -4.568011 3.128938 0
M  V30 38 H -1.012560 -3.929494 1.774063 0
M  V30 39 H -1.128284 -1.728354 1.125863 0
M  V30 40 H 4.291501 -1.603490 0.354130 0
M  V30 41 H 4.912031 1.693675 -1.550045 0
M  V30 42 H 5.042278 2.412915 -0.049669 0
M  V30 43 H 0.525422 3.734078 -0.773237 0
M  V30 44 H -2.586150 1.497793 1.486646 0
M  V30 45 H -4.777545 2.614196 1.393823 0
M  V30 46 H -5.528012 5.401755 0.447614 0
M  V30 47 H -5.724431 5.031917 -1.338696 0
M  V30 48 H -6.358096 3.876059 -0.056634 0
M  V30 49 H -3.407280 5.048864 -1.899085 0
M  V30 50 H -1.292627 3.928476 -1.764063 0
M  V30 51 H -1.204126 0.168831 0.564992 0
M  V30 52 H 2.144119 -5.024519 1.513011 0
M  V30 53 H 2.162834 -6.991859 -0.111132 0
M  V30 54 H 3.307400 -5.787528 -0.681318 0
M  V30 55 H 1.105485 -6.962063 -2.108747 0
M  V30 56 H 2.120438 -5.601134 -2.646113 0
M  V30 57 H -0.279801 -5.087856 -2.733854 0
M  V30 58 H -1.070117 -3.766298 -0.965128 0
M  V30 END ATOM
M  V30 BEGIN BOND
M  V30 1 1 1 2
M  V30 2 1 2 3
M  V30 3 1 3 4
M  V30 4 1 4 5
M  V30 5 1 5 6
M  V30 6 2 6 7
M  V30 7 1 7 8
M  V30 8 2 8 9
M  V30 9 1 9 10
M  V30 10 2 10 11
M  V30 11 1 11 12
M  V30 12 1 12 13
M  V30 13 2 12 14
M  V30 14 1 11 15
M  V30 15 2 15 16
M  V30 16 1 16 17
M  V30 17 2 17 18
M  V30 18 1 18 19
M  V30 19 2 19 20
M  V30 20 1 20 21
M  V30 21 1 20 22
M  V30 22 2 22 23
M  V30 23 1 16 24
M  V30 24 2 24 25
M  V30 25 1 4 26
M  V30 26 2 26 27
M  V30 27 1 27 28
M  V30 28 1 28 29
M  V30 29 1 29 30
M  V30 30 2 30 31
M  V30 31 1 25 6
M  V30 32 1 31 26
M  V30 33 1 25 10
M  V30 34 1 23 17
M  V30 35 1 1 32
M  V30 36 1 1 33
M  V30 37 1 1 34
M  V30 38 1 2 35
M  V30 39 1 3 36
M  V30 40 1 3 37
M  V30 41 1 4 38
M  V30 42 1 5 39
M  V30 43 1 8 40
M  V30 44 1 13 41
M  V30 45 1 13 42
M  V30 46 1 15 43
M  V30 47 1 18 44
M  V30 48 1 19 45
M  V30 49 1 21 46
M  V30 50 1 21 47
M  V30 51 1 21 48
M  V30 52 1 22 49
M  V30 53 1 23 50
M  V30 54 1 24 51
M  V30 55 1 27 52
M  V30 56 1 28 53
M  V30 57 1 28 54
M  V30 58 1 29 55
M  V30 59 1 29 56
M  V30 60 1 30 57
M  V30 61 1 31 58
M  V30 END BOND
M  V30 END CTAB
M  END
>  <Dataset>  (361) 
ChEMBL_Kinases

>  <Ligand_Instance>  (361) 
nan

>  <PDB_ID>  (361) 
nan

>  <Standardized_SMILES>  (361) 
CNCC(Nc1ncnc2c(C(N)=O)cc(-c3ccc(C)cc3)cc12)C1=CCCC=C1

>  <Name>  (361) 
nan

>  <Pocket>  (361) 
nan

>  <ATP_Site>  (361) 
nan

>  <Peripheral>  (361) 
nan

>  <Num_H_Atoms_ProtBoundConf>  (361) 
nan

>  <Num_Resolved_Atoms>  (361) 
nan

>  <Num_Not_Resolved_Atoms>  (361) 
nan

$$$$
CHEMBL3680465
     RDKit          3D

  0  0  0  0  0  0  0  0  0  0999 V3000
M  V30 BEGIN CTAB
M  V30 COUNTS 38 40 0 0 0
M  V30 BEGIN ATOM
M  V30 1 C -0.672046 -3.220080 1.449768 0
M  V30 2 C -0.525964 -1.896670 2.171547 0
M  V30 3 N -0.268540 -0.796482 1.246402 0
M  V30 4 C 0.893303 -0.840420 0.431140 0
M  V30 5 N 1.735708 -1.884249 0.518888 0
M  V30 6 C 2.849386 -1.973934 -0.230482 0
M  V30 7 N 3.198514 -1.026612 -1.119617 0
M  V30 8 C 2.397347 0.042679 -1.254412 0
M  V30 9 C 2.674332 1.063634 -2.140496 0
M  V30 10 C 3.883826 0.955593 -2.947232 0
M  V30 11 N 4.261930 1.951362 -3.889862 0
M  V30 12 O 4.673233 -0.020007 -2.866791 0
M  V30 13 C 1.881778 2.179551 -2.312838 0
M  V30 14 C 0.756169 2.228389 -1.527396 0
M  V30 15 C 0.453829 1.220413 -0.631592 0
M  V30 16 C 1.255537 0.127761 -0.481509 0
M  V30 17 C -1.601192 -1.610684 3.124160 0
M  V30 18 C -2.745412 -1.027793 2.572741 0
M  V30 19 C -3.827609 -0.711574 3.372281 0
M  V30 20 F -4.958519 -0.141557 2.861394 0
M  V30 21 C -3.825148 -0.956742 4.744214 0
M  V30 22 C -2.665714 -1.533427 5.224518 0
M  V30 23 F -2.649311 -1.779174 6.566486 0
M  V30 24 C -1.568320 -1.867717 4.490354 0
M  V30 25 H -1.338873 -3.914510 2.001329 0
M  V30 26 H -1.186993 -3.077050 0.454962 0
M  V30 27 H 0.300520 -3.744317 1.308884 0
M  V30 28 H 0.434699 -2.002046 2.757668 0
M  V30 29 H -0.991499 -0.050880 1.271366 0
M  V30 30 H 3.432369 -2.883561 -0.044154 0
M  V30 31 H 3.838955 2.887048 -4.071269 0
M  V30 32 H 3.842823 2.885907 -4.074082 0
M  V30 33 H 2.096121 2.975908 -3.002744 0
M  V30 34 H 0.102155 3.089275 -1.629395 0
M  V30 35 H -0.449371 1.350238 -0.062153 0
M  V30 36 H -2.876549 -0.786938 1.531573 0
M  V30 37 H -4.658064 -0.718351 5.387588 0
M  V30 38 H -0.678691 -2.314116 4.880943 0
M  V30 END ATOM
M  V30 BEGIN BOND
M  V30 1 1 1 2
M  V30 2 1 2 3
M  V30 3 1 3 4
M  V30 4 2 4 5
M  V30 5 1 5 6
M  V30 6 2 6 7
M  V30 7 1 7 8
M  V30 8 2 8 9
M  V30 9 1 9 10
M  V30 10 1 10 11
M  V30 11 2 10 12
M  V30 12 1 9 13
M  V30 13 2 13 14
M  V30 14 1 14 15
M  V30 15 2 15 16
M  V30 16 1 2 17
M  V30 17 2 17 18
M  V30 18 1 18 19
M  V30 19 1 19 20
M  V30 20 2 19 21
M  V30 21 1 21 22
M  V30 22 1 22 23
M  V30 23 2 22 24
M  V30 24 1 16 4
M  V30 25 1 24 17
M  V30 26 1 16 8
M  V30 27 1 1 25
M  V30 28 1 1 26
M  V30 29 1 1 27
M  V30 30 1 2 28
M  V30 31 1 3 29
M  V30 32 1 6 30
M  V30 33 1 11 31
M  V30 34 1 11 32
M  V30 35 1 13 33
M  V30 36 1 14 34
M  V30 37 1 15 35
M  V30 38 1 18 36
M  V30 39 1 21 37
M  V30 40 1 24 38
M  V30 END BOND
M  V30 END CTAB
M  END
>  <Dataset>  (362) 
ChEMBL_Kinases

>  <Ligand_Instance>  (362) 
nan

>  <PDB_ID>  (362) 
nan

>  <Standardized_SMILES>  (362) 
CC(Nc1ncnc2c(C(N)=O)cccc12)c1cc(F)cc(F)c1

>  <Name>  (362) 
nan

>  <Pocket>  (362) 
nan

>  <ATP_Site>  (362) 
nan

>  <Peripheral>  (362) 
nan

>  <Num_H_Atoms_ProtBoundConf>  (362) 
nan

>  <Num_Resolved_Atoms>  (362) 
nan

>  <Num_Not_Resolved_Atoms>  (362) 
nan

$$$$
CHEMBL3680696
     RDKit          3D

  0  0  0  0  0  0  0  0  0  0999 V3000
M  V30 BEGIN CTAB
M  V30 COUNTS 58 62 0 0 0
M  V30 BEGIN ATOM
M  V30 1 C 8.428262 -2.178275 2.515960 0
M  V30 2 N 7.210268 -1.862750 1.847640 0
M  V30 3 C 7.322392 -1.640365 0.430888 0
M  V30 4 C 6.898953 -0.238104 0.037419 0
M  V30 5 C 5.454914 -0.125124 0.443809 0
M  V30 6 N 4.434354 0.253398 -0.305516 0
M  V30 7 C 3.305311 0.328914 0.059267 0
M  V30 8 N 2.037297 0.682811 -0.469904 0
M  V30 9 C 1.404897 1.932198 -0.510326 0
M  V30 10 O 1.956308 2.957324 -0.035112 0
M  V30 11 C 0.084718 2.119712 -1.098265 0
M  V30 12 C -0.466748 3.398717 -1.100315 0
M  V30 13 C -1.718639 3.692867 -1.632474 0
M  V30 14 C -2.448200 2.669155 -2.184194 0
M  V30 15 C -1.943424 1.387040 -2.204723 0
M  V30 16 C -2.618082 0.181458 -2.760910 0
M  V30 17 N -3.380886 -0.469966 -1.720270 0
M  V30 18 C -4.628038 -0.071237 -1.187050 0
M  V30 19 O -5.191844 0.965129 -1.630665 0
M  V30 20 C -5.323514 -0.792938 -0.134563 0
M  V30 21 C -6.539283 -0.313894 0.311394 0
M  V30 22 C -7.232396 -0.967542 1.308453 0
M  V30 23 C -6.785944 -2.110605 1.919812 0
M  V30 24 C -5.561123 -2.598308 1.474650 0
M  V30 25 C -4.983770 -3.820173 2.059307 0
M  V30 26 C -4.182650 -4.737872 1.419327 0
M  V30 27 N -3.895896 -5.686548 2.346986 0
M  V30 28 N -4.491268 -5.357697 3.481489 0
M  V30 29 C -5.170268 -4.219686 3.351982 0
M  V30 30 C -4.881718 -1.933166 0.477789 0
M  V30 31 C -0.692419 1.134824 -1.664613 0
M  V30 32 S 3.463169 -0.223018 1.891680 0
M  V30 33 C 5.216529 -0.474955 1.793096 0
M  V30 34 C 6.409913 -0.877906 2.523398 0
M  V30 35 H 9.206607 -1.421510 2.294709 0
M  V30 36 H 8.744947 -3.220539 2.275167 0
M  V30 37 H 8.228948 -2.107670 3.611554 0
M  V30 38 H 8.382159 -1.785491 0.140429 0
M  V30 39 H 6.702080 -2.367566 -0.132095 0
M  V30 40 H 7.423081 0.496649 0.676564 0
M  V30 41 H 7.066607 -0.125328 -1.029725 0
M  V30 42 H 1.599348 -0.179780 -0.858244 0
M  V30 43 H 0.050875 4.265218 -0.680715 0
M  V30 44 H -2.117396 4.695730 -1.618300 0
M  V30 45 H -3.427081 2.809375 -2.620173 0
M  V30 46 H -3.274308 0.506558 -3.603027 0
M  V30 47 H -1.899340 -0.522677 -3.217291 0
M  V30 48 H -2.979440 -1.329789 -1.307430 0
M  V30 49 H -6.990531 0.570953 -0.089559 0
M  V30 50 H -8.203580 -0.624422 1.696656 0
M  V30 51 H -7.276039 -2.661705 2.696115 0
M  V30 52 H -3.849613 -4.708718 0.388339 0
M  V30 53 H -4.333787 -6.029897 4.272422 0
M  V30 54 H -5.719367 -3.790808 4.164046 0
M  V30 55 H -3.935111 -2.349467 0.165438 0
M  V30 56 H -0.244570 0.143490 -1.653456 0
M  V30 57 H 6.079310 -1.317870 3.486181 0
M  V30 58 H 7.019632 0.013993 2.774215 0
M  V30 END ATOM
M  V30 BEGIN BOND
M  V30 1 1 1 2
M  V30 2 1 2 3
M  V30 3 1 3 4
M  V30 4 1 4 5
M  V30 5 1 5 6
M  V30 6 2 6 7
M  V30 7 1 7 8
M  V30 8 1 8 9
M  V30 9 2 9 10
M  V30 10 1 9 11
M  V30 11 2 11 12
M  V30 12 1 12 13
M  V30 13 2 13 14
M  V30 14 1 14 15
M  V30 15 1 15 16
M  V30 16 1 16 17
M  V30 17 1 17 18
M  V30 18 2 18 19
M  V30 19 1 18 20
M  V30 20 2 20 21
M  V30 21 1 21 22
M  V30 22 2 22 23
M  V30 23 1 23 24
M  V30 24 1 24 25
M  V30 25 1 25 26
M  V30 26 2 26 27
M  V30 27 1 27 28
M  V30 28 1 28 29
M  V30 29 2 24 30
M  V30 30 2 15 31
M  V30 31 1 7 32
M  V30 32 1 32 33
M  V30 33 1 33 34
M  V30 34 1 34 2
M  V30 35 2 33 5
M  V30 36 1 31 11
M  V30 37 1 30 20
M  V30 38 2 29 25
M  V30 39 1 1 35
M  V30 40 1 1 36
M  V30 41 1 1 37
M  V30 42 1 3 38
M  V30 43 1 3 39
M  V30 44 1 4 40
M  V30 45 1 4 41
M  V30 46 1 8 42
M  V30 47 1 12 43
M  V30 48 1 13 44
M  V30 49 1 14 45
M  V30 50 1 16 46
M  V30 51 1 16 47
M  V30 52 1 17 48
M  V30 53 1 21 49
M  V30 54 1 22 50
M  V30 55 1 23 51
M  V30 56 1 26 52
M  V30 57 1 28 53
M  V30 58 1 29 54
M  V30 59 1 30 55
M  V30 60 1 31 56
M  V30 61 1 34 57
M  V30 62 1 34 58
M  V30 END BOND
M  V30 END CTAB
M  END
>  <Dataset>  (363) 
ChEMBL_Kinases

>  <Ligand_Instance>  (363) 
nan

>  <PDB_ID>  (363) 
nan

>  <Standardized_SMILES>  (363) 
CN1CCc2nc(NC(=O)c3cccc(CNC(=O)c4cccc(-c5cn[nH]c5)c4)c3)sc2C1

>  <Name>  (363) 
nan

>  <Pocket>  (363) 
nan

>  <ATP_Site>  (363) 
nan

>  <Peripheral>  (363) 
nan

>  <Num_H_Atoms_ProtBoundConf>  (363) 
nan

>  <Num_Resolved_Atoms>  (363) 
nan

>  <Num_Not_Resolved_Atoms>  (363) 
nan

$$$$
CHEMBL3680381
     RDKit          3D

  0  0  0  0  0  0  0  0  0  0999 V3000
M  V30 BEGIN CTAB
M  V30 COUNTS 65 70 0 0 0
M  V30 BEGIN ATOM
M  V30 1 C 1.814621 -0.261854 3.322780 0
M  V30 2 C 2.861956 0.564411 2.586217 0 CFG=1
M  V30 3 C 2.712514 0.259383 1.133310 0
M  V30 4 C 1.565599 0.973914 0.456838 0
M  V30 5 C 1.198918 2.245859 1.209312 0 CFG=2
M  V30 6 N 0.295588 3.018073 0.429599 0
M  V30 7 C 0.317146 4.187699 -0.224058 0
M  V30 8 C 1.353309 5.082442 -0.323501 0
M  V30 9 N 1.209158 6.223877 -1.024390 0
M  V30 10 C 0.050381 6.530771 -1.651924 0
M  V30 11 C -1.031354 5.658048 -1.582848 0
M  V30 12 C -0.861822 4.498951 -0.861615 0
M  V30 13 C -1.665113 3.419272 -0.564673 0
M  V30 14 C -2.966629 3.125161 -0.907035 0
M  V30 15 N -3.582404 1.998887 -0.508879 0
M  V30 16 C -2.894601 1.116049 0.261475 0
M  V30 17 N -3.216296 -0.137990 0.838386 0
M  V30 18 C -2.807051 -1.323740 0.194343 0
M  V30 19 C -2.106920 -1.258726 -0.991386 0
M  V30 20 C -1.671680 -2.385852 -1.638516 0
M  V30 21 C -2.004525 -3.578311 -0.986129 0
M  V30 22 C -2.709306 -3.679594 0.208082 0
M  V30 23 N -3.109686 -2.509676 0.793748 0
M  V30 24 C -2.951279 -5.051749 0.713376 0
M  V30 25 C -1.675150 -5.825889 0.766374 0
M  V30 26 N -0.839768 -5.506545 -0.356848 0
M  V30 27 C -0.015840 -6.583982 -0.817333 0
M  V30 28 C 1.064246 -6.950319 0.180602 0
M  V30 29 O 0.551385 -7.354302 1.402108 0
M  V30 30 C -1.659392 -4.981028 -1.421411 0
M  V30 31 N -1.627068 1.407858 0.591661 0
M  V30 32 C -0.970506 2.530356 0.211165 0
M  V30 33 C 2.375794 2.913873 1.805430 0
M  V30 34 C 2.833320 2.004689 2.961912 0
M  V30 35 H 1.389951 0.289466 4.181602 0
M  V30 36 H 0.946761 -0.489901 2.638004 0
M  V30 37 H 2.217493 -1.244747 3.608184 0
M  V30 38 H 3.852948 0.138584 2.900685 0
M  V30 39 H 2.485248 -0.840199 1.062661 0
M  V30 40 H 3.669685 0.388475 0.583479 0
M  V30 41 H 1.891307 1.251895 -0.572175 0
M  V30 42 H 0.694126 0.300971 0.332702 0
M  V30 43 H 0.610626 1.848878 2.102039 0
M  V30 44 H 2.308133 4.921006 0.140819 0
M  V30 45 H -0.093963 7.446098 -2.225375 0
M  V30 46 H -1.970681 5.869056 -2.070052 0
M  V30 47 H -3.538627 3.804496 -1.516080 0
M  V30 48 H -3.749397 -0.137447 1.725734 0
M  V30 49 H -1.853996 -0.330530 -1.488867 0
M  V30 50 H -1.126889 -2.510739 -2.548608 0
M  V30 51 H -3.765724 -5.587322 0.160677 0
M  V30 52 H -3.275714 -4.901905 1.789457 0
M  V30 53 H -1.887936 -6.936735 0.727693 0
M  V30 54 H -1.140415 -5.705279 1.736829 0
M  V30 55 H 0.537883 -6.196148 -1.716532 0
M  V30 56 H -0.558493 -7.472338 -1.135619 0
M  V30 57 H 1.755049 -6.097060 0.363616 0
M  V30 58 H 1.658576 -7.779230 -0.249619 0
M  V30 59 H 0.954002 -6.869734 2.177305 0
M  V30 60 H -2.582291 -5.585289 -1.470057 0
M  V30 61 H -1.122916 -4.952541 -2.394626 0
M  V30 62 H 3.248446 3.061488 1.139976 0
M  V30 63 H 2.107074 3.862911 2.256021 0
M  V30 64 H 3.781504 2.339907 3.403845 0
M  V30 65 H 2.039625 2.136094 3.754901 0
M  V30 END ATOM
M  V30 BEGIN BOND
M  V30 1 1 1 2
M  V30 2 1 2 3
M  V30 3 1 3 4
M  V30 4 1 4 5
M  V30 5 1 5 6
M  V30 6 1 6 7
M  V30 7 2 7 8
M  V30 8 1 8 9
M  V30 9 2 9 10
M  V30 10 1 10 11
M  V30 11 2 11 12
M  V30 12 1 12 13
M  V30 13 2 13 14
M  V30 14 1 14 15
M  V30 15 2 15 16
M  V30 16 1 16 17
M  V30 17 1 17 18
M  V30 18 2 18 19
M  V30 19 1 19 20
M  V30 20 2 20 21
M  V30 21 1 21 22
M  V30 22 2 22 23
M  V30 23 1 22 24
M  V30 24 1 24 25
M  V30 25 1 25 26
M  V30 26 1 26 27
M  V30 27 1 27 28
M  V30 28 1 28 29
M  V30 29 1 26 30
M  V30 30 1 16 31
M  V30 31 2 31 32
M  V30 32 1 5 33
M  V30 33 1 33 34
M  V30 34 1 34 2
M  V30 35 1 32 6
M  V30 36 1 12 7
M  V30 37 1 32 13
M  V30 38 1 23 18
M  V30 39 1 30 21
M  V30 40 1 1 35
M  V30 41 1 1 36
M  V30 42 1 1 37
M  V30 43 1 2 38 CFG=1
M  V30 44 1 3 39
M  V30 45 1 3 40
M  V30 46 1 4 41
M  V30 47 1 4 42
M  V30 48 1 5 43 CFG=1
M  V30 49 1 8 44
M  V30 50 1 10 45
M  V30 51 1 11 46
M  V30 52 1 14 47
M  V30 53 1 17 48
M  V30 54 1 19 49
M  V30 55 1 20 50
M  V30 56 1 24 51
M  V30 57 1 24 52
M  V30 58 1 25 53
M  V30 59 1 25 54
M  V30 60 1 27 55
M  V30 61 1 27 56
M  V30 62 1 28 57
M  V30 63 1 28 58
M  V30 64 1 29 59
M  V30 65 1 30 60
M  V30 66 1 30 61
M  V30 67 1 33 62
M  V30 68 1 33 63
M  V30 69 1 34 64
M  V30 70 1 34 65
M  V30 END BOND
M  V30 END CTAB
M  END
>  <Dataset>  (364) 
ChEMBL_Kinases

>  <Ligand_Instance>  (364) 
nan

>  <PDB_ID>  (364) 
nan

>  <Standardized_SMILES>  (364) 
C[C@H]1CC[C@H](n2c3cnccc3c3cnc(Nc4ccc5c(n4)CCN(CCO)C5)nc32)CC1

>  <Name>  (364) 
nan

>  <Pocket>  (364) 
nan

>  <ATP_Site>  (364) 
nan

>  <Peripheral>  (364) 
nan

>  <Num_H_Atoms_ProtBoundConf>  (364) 
nan

>  <Num_Resolved_Atoms>  (364) 
nan

>  <Num_Not_Resolved_Atoms>  (364) 
nan

$$$$
CHEMBL3680382
     RDKit          3D

  0  0  0  0  0  0  0  0  0  0999 V3000
M  V30 BEGIN CTAB
M  V30 COUNTS 68 73 0 0 0
M  V30 BEGIN ATOM
M  V30 1 C 2.200809 -1.398302 3.759297 0
M  V30 2 C 3.230869 -0.841845 2.808336 0 CFG=1
M  V30 3 C 2.911429 -1.081609 1.359080 0
M  V30 4 C 2.892322 0.261966 0.623652 0
M  V30 5 C 1.911097 1.132525 1.399062 0 CFG=2
M  V30 6 N 1.377136 2.194872 0.592524 0
M  V30 7 C 2.013354 3.252347 0.058744 0
M  V30 8 C 3.356676 3.634325 0.127732 0
M  V30 9 N 3.787750 4.739916 -0.485352 0
M  V30 10 C 2.972543 5.558410 -1.206265 0
M  V30 11 C 1.623141 5.209782 -1.298377 0
M  V30 12 C 1.175512 4.070352 -0.667418 0
M  V30 13 C -0.062044 3.487217 -0.582569 0
M  V30 14 C -1.268525 3.833526 -1.097013 0
M  V30 15 N -2.344633 3.056530 -0.854681 0
M  V30 16 C -2.246324 1.932885 -0.104652 0
M  V30 17 N -3.182737 0.938857 0.290074 0
M  V30 18 C -3.163977 -0.293199 -0.417119 0
M  V30 19 C -2.252220 -0.452427 -1.437863 0
M  V30 20 C -2.174212 -1.644560 -2.148015 0
M  V30 21 C -3.081785 -2.583860 -1.713269 0
M  V30 22 C -4.026789 -2.469325 -0.684012 0
M  V30 23 N -4.020663 -1.257869 -0.048923 0
M  V30 24 C -4.900978 -3.629407 -0.404575 0
M  V30 25 C -4.194788 -4.943943 -0.503832 0
M  V30 26 N -2.959952 -4.928315 -1.234972 0
M  V30 27 C -1.788003 -4.573054 -0.501599 0
M  V30 28 C -1.314410 -5.511513 0.533223 0
M  V30 29 C -0.055411 -4.903909 1.170029 0
M  V30 30 O 0.447263 -5.741541 2.162375 0
M  V30 31 C -3.167618 -3.951506 -2.321887 0
M  V30 32 N -1.023053 1.600531 0.405481 0
M  V30 33 C 0.078675 2.351071 0.185665 0
M  V30 34 C 2.473890 1.555388 2.716430 0
M  V30 35 C 3.559198 0.591868 3.115881 0
M  V30 36 H 1.531718 -2.062104 3.201612 0
M  V30 37 H 2.667958 -2.037746 4.564850 0
M  V30 38 H 1.670647 -0.585375 4.322974 0
M  V30 39 H 4.180306 -1.421986 3.000999 0
M  V30 40 H 3.612357 -1.755737 0.840122 0
M  V30 41 H 1.892363 -1.529690 1.250948 0
M  V30 42 H 2.514306 0.152055 -0.400067 0
M  V30 43 H 3.925327 0.621990 0.653246 0
M  V30 44 H 1.057602 0.429790 1.626205 0
M  V30 45 H 4.096105 3.052114 0.676854 0
M  V30 46 H 3.364168 6.444324 -1.687298 0
M  V30 47 H 0.927560 5.819403 -1.855295 0
M  V30 48 H -1.459464 4.703005 -1.704681 0
M  V30 49 H -3.840342 1.144725 1.069780 0
M  V30 50 H -1.557104 0.336102 -1.735234 0
M  V30 51 H -1.512620 -1.873691 -2.948049 0
M  V30 52 H -5.391801 -3.470950 0.582899 0
M  V30 53 H -5.749912 -3.533488 -1.145533 0
M  V30 54 H -4.870128 -5.607656 -1.125410 0
M  V30 55 H -4.134357 -5.502849 0.470255 0
M  V30 56 H -0.965280 -4.499737 -1.269409 0
M  V30 57 H -1.890313 -3.537276 -0.126033 0
M  V30 58 H -1.002801 -6.493927 0.125373 0
M  V30 59 H -1.996204 -5.687151 1.373368 0
M  V30 60 H -0.345980 -3.947244 1.633820 0
M  V30 61 H 0.698240 -4.660663 0.384841 0
M  V30 62 H 0.773908 -5.159662 2.918217 0
M  V30 63 H -4.160542 -4.123064 -2.781058 0
M  V30 64 H -2.405621 -4.140791 -3.082955 0
M  V30 65 H 2.851434 2.584637 2.766973 0
M  V30 66 H 1.685235 1.471864 3.515212 0
M  V30 67 H 3.741467 0.638017 4.230109 0
M  V30 68 H 4.491003 0.855713 2.591943 0
M  V30 END ATOM
M  V30 BEGIN BOND
M  V30 1 1 1 2
M  V30 2 1 2 3
M  V30 3 1 3 4
M  V30 4 1 4 5
M  V30 5 1 5 6
M  V30 6 1 6 7
M  V30 7 2 7 8
M  V30 8 1 8 9
M  V30 9 2 9 10
M  V30 10 1 10 11
M  V30 11 2 11 12
M  V30 12 1 12 13
M  V30 13 2 13 14
M  V30 14 1 14 15
M  V30 15 2 15 16
M  V30 16 1 16 17
M  V30 17 1 17 18
M  V30 18 2 18 19
M  V30 19 1 19 20
M  V30 20 2 20 21
M  V30 21 1 21 22
M  V30 22 2 22 23
M  V30 23 1 22 24
M  V30 24 1 24 25
M  V30 25 1 25 26
M  V30 26 1 26 27
M  V30 27 1 27 28
M  V30 28 1 28 29
M  V30 29 1 29 30
M  V30 30 1 26 31
M  V30 31 1 16 32
M  V30 32 2 32 33
M  V30 33 1 5 34
M  V30 34 1 34 35
M  V30 35 1 35 2
M  V30 36 1 33 6
M  V30 37 1 12 7
M  V30 38 1 33 13
M  V30 39 1 23 18
M  V30 40 1 31 21
M  V30 41 1 1 36
M  V30 42 1 1 37
M  V30 43 1 1 38
M  V30 44 1 2 39 CFG=1
M  V30 45 1 3 40
M  V30 46 1 3 41
M  V30 47 1 4 42
M  V30 48 1 4 43
M  V30 49 1 5 44 CFG=1
M  V30 50 1 8 45
M  V30 51 1 10 46
M  V30 52 1 11 47
M  V30 53 1 14 48
M  V30 54 1 17 49
M  V30 55 1 19 50
M  V30 56 1 20 51
M  V30 57 1 24 52
M  V30 58 1 24 53
M  V30 59 1 25 54
M  V30 60 1 25 55
M  V30 61 1 27 56
M  V30 62 1 27 57
M  V30 63 1 28 58
M  V30 64 1 28 59
M  V30 65 1 29 60
M  V30 66 1 29 61
M  V30 67 1 30 62
M  V30 68 1 31 63
M  V30 69 1 31 64
M  V30 70 1 34 65
M  V30 71 1 34 66
M  V30 72 1 35 67
M  V30 73 1 35 68
M  V30 END BOND
M  V30 END CTAB
M  END
>  <Dataset>  (365) 
ChEMBL_Kinases

>  <Ligand_Instance>  (365) 
nan

>  <PDB_ID>  (365) 
nan

>  <Standardized_SMILES>  (365) 
C[C@H]1CC[C@H](n2c3cnccc3c3cnc(Nc4ccc5c(n4)CCN(CCCO)C5)nc32)CC1

>  <Name>  (365) 
nan

>  <Pocket>  (365) 
nan

>  <ATP_Site>  (365) 
nan

>  <Peripheral>  (365) 
nan

>  <Num_H_Atoms_ProtBoundConf>  (365) 
nan

>  <Num_Resolved_Atoms>  (365) 
nan

>  <Num_Not_Resolved_Atoms>  (365) 
nan

$$$$
CHEMBL3680383
     RDKit          3D

  0  0  0  0  0  0  0  0  0  0999 V3000
M  V30 BEGIN CTAB
M  V30 COUNTS 63 68 0 0 0
M  V30 BEGIN ATOM
M  V30 1 C 2.464200 -0.484880 4.129195 0
M  V30 2 C 2.605101 0.794715 3.320080 0 CFG=1
M  V30 3 C 3.766533 0.688766 2.357255 0
M  V30 4 C 3.446906 1.315479 0.995010 0
M  V30 5 C 2.350102 0.549727 0.287070 0 CFG=2
M  V30 6 N 1.604021 1.321091 -0.643320 0
M  V30 7 C 2.068594 1.893978 -1.766427 0
M  V30 8 C 3.302958 1.966797 -2.393102 0
M  V30 9 N 3.507011 2.624254 -3.548708 0
M  V30 10 C 2.496105 3.270503 -4.185645 0
M  V30 11 C 1.230028 3.236193 -3.608582 0
M  V30 12 C 1.024223 2.559616 -2.420967 0
M  V30 13 C -0.106611 2.371909 -1.651789 0
M  V30 14 C -1.390974 2.826029 -1.872707 0
M  V30 15 N -2.356921 2.506762 -0.964552 0
M  V30 16 C -1.978559 1.753348 0.108114 0
M  V30 17 N -2.852704 1.294851 1.160539 0
M  V30 18 C -3.257357 -0.089460 1.072959 0
M  V30 19 C -4.111528 -0.642433 2.013348 0
M  V30 20 C -4.474479 -1.970531 1.928658 0
M  V30 21 C -4.010893 -2.787499 0.923476 0
M  V30 22 C -3.156157 -2.184600 0.003784 0
M  V30 23 N -2.808745 -0.894080 0.093190 0
M  V30 24 C -2.606884 -2.979213 -1.100693 0
M  V30 25 C -2.192891 -4.375311 -0.688703 0
M  V30 26 N -3.045735 -4.928261 0.341423 0
M  V30 27 C -2.694604 -6.125324 1.002161 0
M  V30 28 O -3.460516 -6.594284 1.914507 0
M  V30 29 C -1.458213 -6.863576 0.670878 0
M  V30 30 O -0.627390 -6.508843 -0.209525 0
M  V30 31 O -1.162399 -8.039509 1.363106 0
M  V30 32 C -4.260193 -4.204031 0.652382 0
M  V30 33 N -0.721791 1.327142 0.294826 0
M  V30 34 C 0.278141 1.610492 -0.569265 0
M  V30 35 C 1.501473 -0.091208 1.357571 0
M  V30 36 C 1.352912 0.943141 2.452392 0
M  V30 37 H 3.007164 -1.327599 3.622517 0
M  V30 38 H 1.395569 -0.757942 4.154991 0
M  V30 39 H 2.921105 -0.394062 5.135623 0
M  V30 40 H 2.777465 1.678981 3.951196 0
M  V30 41 H 4.050653 -0.352723 2.171225 0
M  V30 42 H 4.660104 1.240664 2.721692 0
M  V30 43 H 3.234140 2.386704 1.096745 0
M  V30 44 H 4.395074 1.228109 0.423275 0
M  V30 45 H 2.832689 -0.307722 -0.269634 0
M  V30 46 H 4.149881 1.472471 -1.939613 0
M  V30 47 H 2.741272 3.776013 -5.110570 0
M  V30 48 H 0.426212 3.758046 -4.127496 0
M  V30 49 H -1.667489 3.423347 -2.731218 0
M  V30 50 H -3.214340 1.847341 1.958604 0
M  V30 51 H -4.500842 -0.048728 2.815934 0
M  V30 52 H -5.138157 -2.481640 2.624421 0
M  V30 53 H -1.717316 -2.455492 -1.554757 0
M  V30 54 H -3.361059 -3.029309 -1.908187 0
M  V30 55 H -1.140764 -4.258794 -0.302571 0
M  V30 56 H -2.133158 -5.027335 -1.583670 0
M  V30 57 H -0.539377 -8.691771 0.904736 0
M  V30 58 H -4.938497 -4.377748 -0.218243 0
M  V30 59 H -4.679230 -4.681271 1.576970 0
M  V30 60 H 0.565205 -0.532003 1.011408 0
M  V30 61 H 2.103445 -0.955041 1.751426 0
M  V30 62 H 0.422603 0.867224 3.017744 0
M  V30 63 H 1.429418 1.975959 2.009803 0
M  V30 END ATOM
M  V30 BEGIN BOND
M  V30 1 1 1 2
M  V30 2 1 2 3
M  V30 3 1 3 4
M  V30 4 1 4 5
M  V30 5 1 5 6
M  V30 6 1 6 7
M  V30 7 2 7 8
M  V30 8 1 8 9
M  V30 9 2 9 10
M  V30 10 1 10 11
M  V30 11 2 11 12
M  V30 12 1 12 13
M  V30 13 2 13 14
M  V30 14 1 14 15
M  V30 15 2 15 16
M  V30 16 1 16 17
M  V30 17 1 17 18
M  V30 18 2 18 19
M  V30 19 1 19 20
M  V30 20 2 20 21
M  V30 21 1 21 22
M  V30 22 2 22 23
M  V30 23 1 22 24
M  V30 24 1 24 25
M  V30 25 1 25 26
M  V30 26 1 26 27
M  V30 27 2 27 28
M  V30 28 1 27 29
M  V30 29 2 29 30
M  V30 30 1 29 31
M  V30 31 1 26 32
M  V30 32 1 16 33
M  V30 33 2 33 34
M  V30 34 1 5 35
M  V30 35 1 35 36
M  V30 36 1 36 2
M  V30 37 1 34 6
M  V30 38 1 12 7
M  V30 39 1 34 13
M  V30 40 1 23 18
M  V30 41 1 32 21
M  V30 42 1 1 37
M  V30 43 1 1 38
M  V30 44 1 1 39
M  V30 45 1 2 40 CFG=1
M  V30 46 1 3 41
M  V30 47 1 3 42
M  V30 48 1 4 43
M  V30 49 1 4 44
M  V30 50 1 5 45 CFG=3
M  V30 51 1 8 46
M  V30 52 1 10 47
M  V30 53 1 11 48
M  V30 54 1 14 49
M  V30 55 1 17 50
M  V30 56 1 19 51
M  V30 57 1 20 52
M  V30 58 1 24 53
M  V30 59 1 24 54
M  V30 60 1 25 55
M  V30 61 1 25 56
M  V30 62 1 31 57
M  V30 63 1 32 58
M  V30 64 1 32 59
M  V30 65 1 35 60
M  V30 66 1 35 61
M  V30 67 1 36 62
M  V30 68 1 36 63
M  V30 END BOND
M  V30 END CTAB
M  END
>  <Dataset>  (366) 
ChEMBL_Kinases

>  <Ligand_Instance>  (366) 
nan

>  <PDB_ID>  (366) 
nan

>  <Standardized_SMILES>  (366) 
C[C@H]1CC[C@H](n2c3cnccc3c3cnc(Nc4ccc5c(n4)CCN(C(=O)C(=O)O)C5)nc32)CC1

>  <Name>  (366) 
nan

>  <Pocket>  (366) 
nan

>  <ATP_Site>  (366) 
nan

>  <Peripheral>  (366) 
nan

>  <Num_H_Atoms_ProtBoundConf>  (366) 
nan

>  <Num_Resolved_Atoms>  (366) 
nan

>  <Num_Not_Resolved_Atoms>  (366) 
nan

$$$$
CHEMBL3680384
     RDKit          3D

  0  0  0  0  0  0  0  0  0  0999 V3000
M  V30 BEGIN CTAB
M  V30 COUNTS 67 72 0 0 0
M  V30 BEGIN ATOM
M  V30 1 C 1.417296 -0.695394 4.487433 0
M  V30 2 C 2.122256 -1.737972 3.607920 0 CFG=1
M  V30 3 C 1.320615 -2.063428 2.408696 0
M  V30 4 C 1.687653 -1.416143 1.125620 0
M  V30 5 C 2.716731 -0.330281 1.388739 0 CFG=2
M  V30 6 N 2.885090 0.577873 0.316231 0
M  V30 7 C 3.833843 0.910834 -0.572719 0
M  V30 8 C 5.086744 0.368988 -0.688754 0
M  V30 9 N 5.922820 0.816734 -1.641486 0
M  V30 10 C 5.633592 1.779923 -2.521706 0
M  V30 11 C 4.370830 2.334304 -2.414469 0
M  V30 12 C 3.479703 1.907321 -1.453215 0
M  V30 13 C 2.193964 2.209336 -1.065276 0
M  V30 14 C 1.292834 3.126578 -1.562124 0
M  V30 15 N 0.054720 3.259288 -1.023318 0
M  V30 16 C -0.298690 2.476905 0.019266 0
M  V30 17 N -1.497098 2.365370 0.775706 0
M  V30 18 C -2.384060 1.312573 0.366673 0
M  V30 19 C -3.570374 1.072331 0.987094 0
M  V30 20 C -4.446937 0.068367 0.633441 0
M  V30 21 C -4.107300 -0.752856 -0.419667 0
M  V30 22 C -2.922142 -0.522415 -1.048515 0
M  V30 23 N -2.116722 0.475338 -0.649109 0
M  V30 24 C -2.421951 -1.325424 -2.179735 0
M  V30 25 C -3.210227 -2.557486 -2.473249 0
M  V30 26 N -4.003046 -3.028974 -1.291657 0
M  V30 27 C -3.073464 -3.420345 -0.309523 0
M  V30 28 C -3.481776 -4.267287 0.821010 0
M  V30 29 C -4.540704 -3.797431 1.753746 0
M  V30 30 F -4.262846 -2.601632 2.358177 0
M  V30 31 F -5.806264 -3.818019 1.249482 0
M  V30 32 F -4.542655 -4.730427 2.871287 0
M  V30 33 C -4.848125 -1.883618 -1.011916 0
M  V30 34 N 0.584276 1.595268 0.488434 0
M  V30 35 C 1.838967 1.410197 -0.003189 0
M  V30 36 C 3.931836 -0.868039 2.055877 0
M  V30 37 C 3.549846 -1.389302 3.427765 0
M  V30 38 H 2.099561 0.173844 4.611854 0
M  V30 39 H 1.216271 -1.054400 5.507511 0
M  V30 40 H 0.446151 -0.441864 4.025593 0
M  V30 41 H 2.093119 -2.675600 4.248579 0
M  V30 42 H 1.204781 -3.178583 2.257171 0
M  V30 43 H 0.260352 -1.745028 2.639641 0
M  V30 44 H 2.014215 -2.172788 0.403754 0
M  V30 45 H 0.837799 -0.886341 0.639012 0
M  V30 46 H 2.213857 0.256767 2.235222 0
M  V30 47 H 5.452421 -0.412620 -0.052660 0
M  V30 48 H 6.304631 2.141202 -3.287987 0
M  V30 49 H 3.993769 3.124106 -3.059153 0
M  V30 50 H 1.559172 3.758149 -2.393175 0
M  V30 51 H -1.803701 2.949108 1.580266 0
M  V30 52 H -3.887666 1.693987 1.828127 0
M  V30 53 H -5.395713 -0.167372 1.088450 0
M  V30 54 H -2.364574 -0.679928 -3.102020 0
M  V30 55 H -1.349526 -1.612538 -2.001086 0
M  V30 56 H -3.909965 -2.461812 -3.318168 0
M  V30 57 H -2.521509 -3.391862 -2.704075 0
M  V30 58 H -2.486431 -2.544905 0.112781 0
M  V30 59 H -2.240716 -3.969760 -0.889109 0
M  V30 60 H -3.737369 -5.329509 0.460674 0
M  V30 61 H -2.549547 -4.472297 1.461223 0
M  V30 62 H -5.772564 -2.124540 -0.523006 0
M  V30 63 H -5.176525 -1.550520 -2.072685 0
M  V30 64 H 4.423854 -1.719595 1.557080 0
M  V30 65 H 4.676878 -0.058896 2.148957 0
M  V30 66 H 3.801981 -0.577995 4.157043 0
M  V30 67 H 4.218515 -2.229684 3.731991 0
M  V30 END ATOM
M  V30 BEGIN BOND
M  V30 1 1 1 2
M  V30 2 1 2 3
M  V30 3 1 3 4
M  V30 4 1 4 5
M  V30 5 1 5 6
M  V30 6 1 6 7
M  V30 7 2 7 8
M  V30 8 1 8 9
M  V30 9 2 9 10
M  V30 10 1 10 11
M  V30 11 2 11 12
M  V30 12 1 12 13
M  V30 13 2 13 14
M  V30 14 1 14 15
M  V30 15 2 15 16
M  V30 16 1 16 17
M  V30 17 1 17 18
M  V30 18 2 18 19
M  V30 19 1 19 20
M  V30 20 2 20 21
M  V30 21 1 21 22
M  V30 22 2 22 23
M  V30 23 1 22 24
M  V30 24 1 24 25
M  V30 25 1 25 26
M  V30 26 1 26 27
M  V30 27 1 27 28
M  V30 28 1 28 29
M  V30 29 1 29 30
M  V30 30 1 29 31
M  V30 31 1 29 32
M  V30 32 1 26 33
M  V30 33 1 16 34
M  V30 34 2 34 35
M  V30 35 1 5 36
M  V30 36 1 36 37
M  V30 37 1 37 2
M  V30 38 1 35 6
M  V30 39 1 12 7
M  V30 40 1 35 13
M  V30 41 1 23 18
M  V30 42 1 33 21
M  V30 43 1 1 38
M  V30 44 1 1 39
M  V30 45 1 1 40
M  V30 46 1 2 41 CFG=1
M  V30 47 1 3 42
M  V30 48 1 3 43
M  V30 49 1 4 44
M  V30 50 1 4 45
M  V30 51 1 5 46 CFG=1
M  V30 52 1 8 47
M  V30 53 1 10 48
M  V30 54 1 11 49
M  V30 55 1 14 50
M  V30 56 1 17 51
M  V30 57 1 19 52
M  V30 58 1 20 53
M  V30 59 1 24 54
M  V30 60 1 24 55
M  V30 61 1 25 56
M  V30 62 1 25 57
M  V30 63 1 27 58
M  V30 64 1 27 59
M  V30 65 1 28 60
M  V30 66 1 28 61
M  V30 67 1 33 62
M  V30 68 1 33 63
M  V30 69 1 36 64
M  V30 70 1 36 65
M  V30 71 1 37 66
M  V30 72 1 37 67
M  V30 END BOND
M  V30 END CTAB
M  END
>  <Dataset>  (367) 
ChEMBL_Kinases

>  <Ligand_Instance>  (367) 
nan

>  <PDB_ID>  (367) 
nan

>  <Standardized_SMILES>  (367) 
C[C@H]1CC[C@H](n2c3cnccc3c3cnc(Nc4ccc5c(n4)CCN(CCC(F)(F)F)C5)nc32)CC1

>  <Name>  (367) 
nan

>  <Pocket>  (367) 
nan

>  <ATP_Site>  (367) 
nan

>  <Peripheral>  (367) 
nan

>  <Num_H_Atoms_ProtBoundConf>  (367) 
nan

>  <Num_Resolved_Atoms>  (367) 
nan

>  <Num_Not_Resolved_Atoms>  (367) 
nan

$$$$
CHEMBL3680385
     RDKit          3D

  0  0  0  0  0  0  0  0  0  0999 V3000
M  V30 BEGIN CTAB
M  V30 COUNTS 70 75 0 0 0
M  V30 BEGIN ATOM
M  V30 1 C 2.850439 1.727068 6.979925 0
M  V30 2 S 3.944957 2.509167 5.813477 0
M  V30 3 O 5.358699 2.279964 6.235808 0
M  V30 4 O 3.641292 3.971355 5.810033 0
M  V30 5 C 3.690082 1.833204 4.182353 0
M  V30 6 C 2.270059 2.081723 3.784914 0
M  V30 7 N 1.937839 1.567061 2.479117 0
M  V30 8 C 0.571642 1.881127 2.213212 0
M  V30 9 C 0.060513 1.485909 0.868997 0
M  V30 10 C 1.181555 1.375742 -0.079591 0
M  V30 11 N 0.768590 0.966259 -1.309016 0
M  V30 12 C 1.617201 0.790555 -2.332138 0
M  V30 13 N 1.159387 0.351614 -3.627369 0
M  V30 14 C -0.247474 0.160063 -3.684114 0
M  V30 15 N -1.134583 0.805392 -4.459078 0
M  V30 16 C -2.438167 0.520697 -4.391102 0
M  V30 17 C -2.888623 -0.452092 -3.511481 0
M  V30 18 C -4.117571 -1.016033 -3.154494 0
M  V30 19 C -5.373018 -0.688948 -3.676027 0
M  V30 20 C -6.451463 -1.380429 -3.168952 0
M  V30 21 N -6.267849 -2.312746 -2.223699 0
M  V30 22 C -5.057345 -2.621510 -1.727333 0
M  V30 23 C -3.909630 -1.979639 -2.174828 0
M  V30 24 N -2.589582 -2.037759 -1.906192 0
M  V30 25 C -2.033101 -2.924599 -0.932722 0 CFG=1
M  V30 26 C -2.155416 -4.391620 -1.276950 0
M  V30 27 C -2.058944 -5.122722 0.055270 0
M  V30 28 C -0.883381 -4.670132 0.849469 0 CFG=2
M  V30 29 C -1.266292 -4.163042 2.241650 0
M  V30 30 C 0.058625 -3.741927 0.165983 0
M  V30 31 C -0.567426 -2.678331 -0.678092 0
M  V30 32 C -1.992075 -1.123846 -2.708731 0
M  V30 33 N -0.697831 -0.778478 -2.838167 0
M  V30 34 C 2.971315 1.038810 -2.122445 0
M  V30 35 C 3.432396 1.456699 -0.888133 0
M  V30 36 C 2.522246 1.620146 0.123730 0
M  V30 37 C 2.869632 2.064320 1.521028 0
M  V30 38 H 2.485904 0.768863 6.556081 0
M  V30 39 H 3.422327 1.488220 7.892877 0
M  V30 40 H 2.008690 2.398456 7.282567 0
M  V30 41 H 3.895747 0.750258 4.167811 0
M  V30 42 H 4.379971 2.396566 3.496985 0
M  V30 43 H 2.094772 3.195064 3.718955 0
M  V30 44 H 1.542483 1.718599 4.529379 0
M  V30 45 H 0.310343 2.939121 2.456686 0
M  V30 46 H -0.033871 1.288078 2.962064 0
M  V30 47 H -0.596368 2.305084 0.492078 0
M  V30 48 H -0.560266 0.563651 0.897549 0
M  V30 49 H 1.849898 0.216516 -4.376210 0
M  V30 50 H -3.164011 1.018389 -4.995858 0
M  V30 51 H -5.470386 0.073649 -4.439649 0
M  V30 52 H -7.458900 -1.181950 -3.524716 0
M  V30 53 H -4.953791 -3.385754 -0.960025 0
M  V30 54 H -2.560125 -2.757285 0.052373 0
M  V30 55 H -1.251577 -4.727076 -1.864688 0
M  V30 56 H -3.092777 -4.660405 -1.787027 0
M  V30 57 H -2.169612 -6.219790 -0.046144 0
M  V30 58 H -2.970880 -4.772492 0.623487 0
M  V30 59 H -0.290662 -5.608460 1.071337 0
M  V30 60 H -1.668523 -3.149305 2.239929 0
M  V30 61 H -1.972643 -4.908417 2.661955 0
M  V30 62 H -0.322945 -4.245091 2.857135 0
M  V30 63 H 0.612260 -3.202400 0.990618 0
M  V30 64 H 0.863444 -4.313257 -0.363385 0
M  V30 65 H -0.375600 -1.637177 -0.328783 0
M  V30 66 H -0.079057 -2.755816 -1.681370 0
M  V30 67 H 3.690485 0.907960 -2.929087 0
M  V30 68 H 4.480071 1.666214 -0.664843 0
M  V30 69 H 2.968124 3.167814 1.478664 0
M  V30 70 H 3.892550 1.624828 1.697446 0
M  V30 END ATOM
M  V30 BEGIN BOND
M  V30 1 1 1 2
M  V30 2 2 2 3
M  V30 3 2 2 4
M  V30 4 1 2 5
M  V30 5 1 5 6
M  V30 6 1 6 7
M  V30 7 1 7 8
M  V30 8 1 8 9
M  V30 9 1 9 10
M  V30 10 2 10 11
M  V30 11 1 11 12
M  V30 12 1 12 13
M  V30 13 1 13 14
M  V30 14 2 14 15
M  V30 15 1 15 16
M  V30 16 2 16 17
M  V30 17 1 17 18
M  V30 18 2 18 19
M  V30 19 1 19 20
M  V30 20 2 20 21
M  V30 21 1 21 22
M  V30 22 2 22 23
M  V30 23 1 23 24
M  V30 24 1 24 25
M  V30 25 1 25 26
M  V30 26 1 26 27
M  V30 27 1 27 28
M  V30 28 1 28 29
M  V30 29 1 28 30
M  V30 30 1 30 31
M  V30 31 1 24 32
M  V30 32 2 32 33
M  V30 33 2 12 34
M  V30 34 1 34 35
M  V30 35 2 35 36
M  V30 36 1 36 37
M  V30 37 1 37 7
M  V30 38 1 36 10
M  V30 39 1 33 14
M  V30 40 1 32 17
M  V30 41 1 23 18
M  V30 42 1 31 25
M  V30 43 1 1 38
M  V30 44 1 1 39
M  V30 45 1 1 40
M  V30 46 1 5 41
M  V30 47 1 5 42
M  V30 48 1 6 43
M  V30 49 1 6 44
M  V30 50 1 8 45
M  V30 51 1 8 46
M  V30 52 1 9 47
M  V30 53 1 9 48
M  V30 54 1 13 49
M  V30 55 1 16 50
M  V30 56 1 19 51
M  V30 57 1 20 52
M  V30 58 1 22 53
M  V30 59 1 25 54 CFG=1
M  V30 60 1 26 55
M  V30 61 1 26 56
M  V30 62 1 27 57
M  V30 63 1 27 58
M  V30 64 1 28 59 CFG=1
M  V30 65 1 29 60
M  V30 66 1 29 61
M  V30 67 1 29 62
M  V30 68 1 30 63
M  V30 69 1 30 64
M  V30 70 1 31 65
M  V30 71 1 31 66
M  V30 72 1 34 67
M  V30 73 1 35 68
M  V30 74 1 37 69
M  V30 75 1 37 70
M  V30 END BOND
M  V30 END CTAB
M  END
>  <Dataset>  (368) 
ChEMBL_Kinases

>  <Ligand_Instance>  (368) 
nan

>  <PDB_ID>  (368) 
nan

>  <Standardized_SMILES>  (368) 
CS(=O)(=O)CCN1CCc2nc(Nc3ncc4c5ccncc5n([C@H]5CC[C@H](C)CC5)c4n3)ccc2C1

>  <Name>  (368) 
nan

>  <Pocket>  (368) 
nan

>  <ATP_Site>  (368) 
nan

>  <Peripheral>  (368) 
nan

>  <Num_H_Atoms_ProtBoundConf>  (368) 
nan

>  <Num_Resolved_Atoms>  (368) 
nan

>  <Num_Not_Resolved_Atoms>  (368) 
nan

$$$$
CHEMBL3680386
     RDKit          3D

  0  0  0  0  0  0  0  0  0  0999 V3000
M  V30 BEGIN CTAB
M  V30 COUNTS 64 69 0 0 0
M  V30 BEGIN ATOM
M  V30 1 C 1.821017 -0.423984 4.677575 0
M  V30 2 C 1.985535 0.842034 3.866178 0 CFG=1
M  V30 3 C 3.272954 0.757183 3.106575 0
M  V30 4 C 3.233937 1.469770 1.762863 0
M  V30 5 C 2.150361 0.976091 0.855113 0 CFG=2
M  V30 6 N 1.419259 2.072701 0.245144 0
M  V30 7 C 1.881704 3.196623 -0.329004 0
M  V30 8 C 3.168219 3.663340 -0.511221 0
M  V30 9 N 3.391596 4.858603 -1.134121 0
M  V30 10 C 2.337850 5.582644 -1.571961 0
M  V30 11 C 1.021592 5.201110 -1.437060 0
M  V30 12 C 0.838995 3.974608 -0.795574 0
M  V30 13 C -0.326027 3.303957 -0.497878 0
M  V30 14 C -1.674758 3.515657 -0.681747 0
M  V30 15 N -2.632497 2.660202 -0.274577 0
M  V30 16 C -2.263179 1.513970 0.356615 0
M  V30 17 N -2.894518 0.368227 0.928247 0
M  V30 18 C -2.697534 -0.868370 0.233220 0
M  V30 19 C -1.957931 -0.865226 -0.927800 0
M  V30 20 C -1.710018 -2.041925 -1.624910 0
M  V30 21 C -2.232841 -3.204373 -1.107555 0
M  V30 22 C -2.972141 -3.202963 0.052855 0
M  V30 23 N -3.206793 -2.041936 0.724171 0
M  V30 24 C -3.604157 -4.336595 0.766972 0
M  V30 25 C -3.321897 -5.584662 -0.025882 0
M  V30 26 N -2.060561 -5.553138 -0.754365 0
M  V30 27 C -1.916529 -6.836528 -1.366439 0
M  V30 28 C -0.687503 -6.927396 -2.209751 0
M  V30 29 F -0.575176 -8.209086 -2.778479 0
M  V30 30 C -2.022177 -4.530985 -1.758418 0
M  V30 31 N -0.954977 1.320961 0.526603 0
M  V30 32 C 0.049895 2.129231 0.147037 0
M  V30 33 C 1.240947 0.098322 1.685564 0
M  V30 34 C 0.804287 0.887072 2.877150 0
M  V30 35 H 0.773482 -0.459745 5.098008 0
M  V30 36 H 1.883748 -1.312234 4.020981 0
M  V30 37 H 2.491429 -0.452804 5.552730 0
M  V30 38 H 1.982011 1.740750 4.504169 0
M  V30 39 H 3.672795 -0.258018 2.981430 0
M  V30 40 H 4.055597 1.320128 3.691659 0
M  V30 41 H 3.112880 2.545777 1.960930 0
M  V30 42 H 4.275940 1.305904 1.353938 0
M  V30 43 H 2.555934 0.311798 0.034540 0
M  V30 44 H 4.032199 3.111619 -0.175108 0
M  V30 45 H 2.602327 6.518452 -2.052024 0
M  V30 46 H 0.192387 5.792455 -1.794407 0
M  V30 47 H -2.024777 4.405271 -1.177022 0
M  V30 48 H -3.459169 0.446832 1.797659 0
M  V30 49 H -1.525610 0.022546 -1.378615 0
M  V30 50 H -1.137381 -2.132081 -2.545596 0
M  V30 51 H -4.706117 -4.235086 0.823437 0
M  V30 52 H -3.141282 -4.427481 1.776871 0
M  V30 53 H -4.141348 -5.694978 -0.794869 0
M  V30 54 H -3.328337 -6.500997 0.585045 0
M  V30 55 H -2.788930 -6.963748 -2.063224 0
M  V30 56 H -1.940578 -7.674950 -0.635345 0
M  V30 57 H 0.241824 -6.677029 -1.669098 0
M  V30 58 H -0.750435 -6.264626 -3.123616 0
M  V30 59 H -0.974809 -4.518553 -2.180069 0
M  V30 60 H -2.700400 -4.687352 -2.597714 0
M  V30 61 H 1.927827 -0.722268 2.061369 0
M  V30 62 H 0.468220 -0.428729 1.134120 0
M  V30 63 H 0.778053 1.976758 2.560523 0
M  V30 64 H -0.123949 0.561875 3.357874 0
M  V30 END ATOM
M  V30 BEGIN BOND
M  V30 1 1 1 2
M  V30 2 1 2 3
M  V30 3 1 3 4
M  V30 4 1 4 5
M  V30 5 1 5 6
M  V30 6 1 6 7
M  V30 7 2 7 8
M  V30 8 1 8 9
M  V30 9 2 9 10
M  V30 10 1 10 11
M  V30 11 2 11 12
M  V30 12 1 12 13
M  V30 13 2 13 14
M  V30 14 1 14 15
M  V30 15 2 15 16
M  V30 16 1 16 17
M  V30 17 1 17 18
M  V30 18 2 18 19
M  V30 19 1 19 20
M  V30 20 2 20 21
M  V30 21 1 21 22
M  V30 22 2 22 23
M  V30 23 1 22 24
M  V30 24 1 24 25
M  V30 25 1 25 26
M  V30 26 1 26 27
M  V30 27 1 27 28
M  V30 28 1 28 29
M  V30 29 1 26 30
M  V30 30 1 16 31
M  V30 31 2 31 32
M  V30 32 1 5 33
M  V30 33 1 33 34
M  V30 34 1 34 2
M  V30 35 1 32 6
M  V30 36 1 12 7
M  V30 37 1 32 13
M  V30 38 1 23 18
M  V30 39 1 30 21
M  V30 40 1 1 35
M  V30 41 1 1 36
M  V30 42 1 1 37
M  V30 43 1 2 38 CFG=1
M  V30 44 1 3 39
M  V30 45 1 3 40
M  V30 46 1 4 41
M  V30 47 1 4 42
M  V30 48 1 5 43 CFG=3
M  V30 49 1 8 44
M  V30 50 1 10 45
M  V30 51 1 11 46
M  V30 52 1 14 47
M  V30 53 1 17 48
M  V30 54 1 19 49
M  V30 55 1 20 50
M  V30 56 1 24 51
M  V30 57 1 24 52
M  V30 58 1 25 53
M  V30 59 1 25 54
M  V30 60 1 27 55
M  V30 61 1 27 56
M  V30 62 1 28 57
M  V30 63 1 28 58
M  V30 64 1 30 59
M  V30 65 1 30 60
M  V30 66 1 33 61
M  V30 67 1 33 62
M  V30 68 1 34 63
M  V30 69 1 34 64
M  V30 END BOND
M  V30 END CTAB
M  END
>  <Dataset>  (369) 
ChEMBL_Kinases

>  <Ligand_Instance>  (369) 
nan

>  <PDB_ID>  (369) 
nan

>  <Standardized_SMILES>  (369) 
C[C@H]1CC[C@H](n2c3cnccc3c3cnc(Nc4ccc5c(n4)CCN(CCF)C5)nc32)CC1

>  <Name>  (369) 
nan

>  <Pocket>  (369) 
nan

>  <ATP_Site>  (369) 
nan

>  <Peripheral>  (369) 
nan

>  <Num_H_Atoms_ProtBoundConf>  (369) 
nan

>  <Num_Resolved_Atoms>  (369) 
nan

>  <Num_Not_Resolved_Atoms>  (369) 
nan

$$$$
CHEMBL3680398
     RDKit          3D

  0  0  0  0  0  0  0  0  0  0999 V3000
M  V30 BEGIN CTAB
M  V30 COUNTS 50 53 0 0 0
M  V30 BEGIN ATOM
M  V30 1 C 2.018384 -2.323830 -3.256231 0
M  V30 2 N 1.398093 -2.459274 -1.966775 0
M  V30 3 C 2.317418 -2.636643 -0.883581 0
M  V30 4 C 1.587441 -2.770826 0.432706 0
M  V30 5 N 0.789242 -1.584547 0.724209 0
M  V30 6 C 1.390163 -0.312640 0.911087 0
M  V30 7 N 2.717952 -0.125436 0.841441 0
M  V30 8 C 3.352067 1.029147 1.009606 0
M  V30 9 N 2.652084 2.148445 1.276624 0
M  V30 10 C 1.296355 2.075266 1.370004 0
M  V30 11 C 0.548167 3.201418 1.641726 0
M  V30 12 C 1.281226 4.439270 1.817763 0
M  V30 13 N 0.596633 5.643422 2.096348 0
M  V30 14 O 2.517227 4.504897 1.735153 0
M  V30 15 C -0.811204 3.157041 1.740444 0
M  V30 16 C -1.414565 1.933074 1.556738 0
M  V30 17 C -2.862333 1.860510 1.659705 0
M  V30 18 C -3.578086 0.978164 0.941294 0
M  V30 19 C -4.981265 0.916208 1.053500 0
M  V30 20 S -5.417508 2.162764 2.242631 0
M  V30 21 C -3.625181 2.703538 2.520136 0
M  V30 22 C -0.670592 0.803135 1.284664 0
M  V30 23 C 0.704231 0.850270 1.185206 0
M  V30 24 C 0.789334 -3.999991 0.422167 0
M  V30 25 C -0.057928 -4.041405 1.531470 0
M  V30 26 C -0.922563 -5.116431 1.744807 0
M  V30 27 C -0.969775 -6.174005 0.867889 0
M  V30 28 C -0.122169 -6.117271 -0.228351 0
M  V30 29 C 0.737379 -5.062027 -0.452460 0
M  V30 30 H 1.212962 -2.084468 -3.990953 0
M  V30 31 H 2.535846 -3.231741 -3.577817 0
M  V30 32 H 2.716680 -1.472380 -3.266968 0
M  V30 33 H 0.637421 -1.800342 -1.785140 0
M  V30 34 H 3.036112 -1.795742 -0.781000 0
M  V30 35 H 2.888974 -3.598307 -1.013911 0
M  V30 36 H 2.355894 -2.792123 1.252041 0
M  V30 37 H -0.225952 -1.771684 0.776216 0
M  V30 38 H 4.432457 1.089383 0.935513 0
M  V30 39 H 0.440423 6.221409 1.226634 0
M  V30 40 H 0.161075 6.223072 2.846556 0
M  V30 41 H -1.385544 4.051187 1.954570 0
M  V30 42 H -3.188964 0.258258 0.238071 0
M  V30 43 H -5.720871 0.339341 0.616252 0
M  V30 44 H -3.042829 3.517760 3.193798 0
M  V30 45 H -1.233957 -0.108969 1.156702 0
M  V30 46 H -0.154435 -3.303877 2.318057 0
M  V30 47 H -1.597546 -5.198939 2.584564 0
M  V30 48 H -1.603693 -7.044420 0.951299 0
M  V30 49 H -0.036876 -6.869996 -1.013433 0
M  V30 50 H 1.414117 -4.951105 -1.271707 0
M  V30 END ATOM
M  V30 BEGIN BOND
M  V30 1 1 1 2
M  V30 2 1 2 3
M  V30 3 1 3 4
M  V30 4 1 4 5
M  V30 5 1 5 6
M  V30 6 2 6 7
M  V30 7 1 7 8
M  V30 8 2 8 9
M  V30 9 1 9 10
M  V30 10 2 10 11
M  V30 11 1 11 12
M  V30 12 1 12 13
M  V30 13 2 12 14
M  V30 14 1 11 15
M  V30 15 2 15 16
M  V30 16 1 16 17
M  V30 17 1 17 18
M  V30 18 2 18 19
M  V30 19 1 19 20
M  V30 20 1 20 21
M  V30 21 1 16 22
M  V30 22 2 22 23
M  V30 23 1 4 24
M  V30 24 2 24 25
M  V30 25 1 25 26
M  V30 26 2 26 27
M  V30 27 1 27 28
M  V30 28 2 28 29
M  V30 29 1 23 6
M  V30 30 1 29 24
M  V30 31 1 23 10
M  V30 32 2 21 17
M  V30 33 1 1 30
M  V30 34 1 1 31
M  V30 35 1 1 32
M  V30 36 1 2 33
M  V30 37 1 3 34
M  V30 38 1 3 35
M  V30 39 1 4 36
M  V30 40 1 5 37
M  V30 41 1 8 38
M  V30 42 1 13 39
M  V30 43 1 13 40
M  V30 44 1 15 41
M  V30 45 1 18 42
M  V30 46 1 19 43
M  V30 47 1 21 44
M  V30 48 1 22 45
M  V30 49 1 25 46
M  V30 50 1 26 47
M  V30 51 1 27 48
M  V30 52 1 28 49
M  V30 53 1 29 50
M  V30 END BOND
M  V30 END CTAB
M  END
>  <Dataset>  (370) 
ChEMBL_Kinases

>  <Ligand_Instance>  (370) 
nan

>  <PDB_ID>  (370) 
nan

>  <Standardized_SMILES>  (370) 
CNCC(Nc1ncnc2c(C(N)=O)cc(-c3ccsc3)cc12)c1ccccc1

>  <Name>  (370) 
nan

>  <Pocket>  (370) 
nan

>  <ATP_Site>  (370) 
nan

>  <Peripheral>  (370) 
nan

>  <Num_H_Atoms_ProtBoundConf>  (370) 
nan

>  <Num_Resolved_Atoms>  (370) 
nan

>  <Num_Not_Resolved_Atoms>  (370) 
nan

$$$$
CHEMBL3680463
     RDKit          3D

  0  0  0  0  0  0  0  0  0  0999 V3000
M  V30 BEGIN CTAB
M  V30 COUNTS 41 43 0 0 0
M  V30 BEGIN ATOM
M  V30 1 C 0.187562 -3.782578 0.517866 0
M  V30 2 C 0.740969 -3.611274 1.879258 0
M  V30 3 C 0.624583 -2.300553 2.550646 0 CFG=1
M  V30 4 N 1.262352 -1.248652 1.844201 0
M  V30 5 C 0.885525 -0.559366 0.662691 0
M  V30 6 N -0.251800 -0.800709 0.000504 0
M  V30 7 C -0.641433 -0.151058 -1.100085 0
M  V30 8 N 0.133015 0.830438 -1.624111 0
M  V30 9 C 1.306366 1.139936 -1.013162 0
M  V30 10 C 2.083025 2.137996 -1.555202 0
M  V30 11 C 1.624174 2.826566 -2.760031 0
M  V30 12 N 0.393424 2.475880 -3.369758 0
M  V30 13 O 2.305947 3.732969 -3.271912 0
M  V30 14 C 3.283741 2.496789 -0.980322 0
M  V30 15 C 3.668763 1.810317 0.160306 0
M  V30 16 C 2.856122 0.819115 0.664107 0
M  V30 17 C 1.658776 0.441115 0.114983 0
M  V30 18 C -0.782757 -1.964225 2.929389 0
M  V30 19 C -1.941539 -2.706662 2.891300 0
M  V30 20 C -3.122134 -2.127728 3.303339 0
M  V30 21 C -3.186183 -0.829897 3.753478 0
M  V30 22 C -2.034376 -0.072610 3.798079 0
M  V30 23 C -0.829572 -0.641989 3.384720 0
M  V30 24 H 0.271943 -4.888543 0.234756 0
M  V30 25 H 0.821104 -3.311874 -0.290324 0
M  V30 26 H -0.840115 -3.441906 0.347710 0
M  V30 27 H 1.833934 -3.912405 1.813133 0
M  V30 28 H 0.311113 -4.444908 2.522113 0
M  V30 29 H 1.127136 -2.413414 3.559164 0
M  V30 30 H 2.156896 -0.954815 2.290268 0
M  V30 31 H -1.598088 -0.425616 -1.571710 0
M  V30 32 H -0.171936 1.709881 -3.818563 0
M  V30 33 H -0.248522 3.284260 -3.411301 0
M  V30 34 H 3.838922 3.289369 -1.462206 0
M  V30 35 H 4.614563 2.116066 0.585542 0
M  V30 36 H 3.265413 0.373627 1.537206 0
M  V30 37 H -1.754044 -3.700855 2.525168 0
M  V30 38 H -3.970533 -2.799197 3.232094 0
M  V30 39 H -4.175992 -0.500188 4.046349 0
M  V30 40 H -2.140769 0.940431 4.159864 0
M  V30 41 H -0.012741 0.070215 3.475533 0
M  V30 END ATOM
M  V30 BEGIN BOND
M  V30 1 1 1 2
M  V30 2 1 2 3
M  V30 3 1 3 4
M  V30 4 1 4 5
M  V30 5 2 5 6
M  V30 6 1 6 7
M  V30 7 2 7 8
M  V30 8 1 8 9
M  V30 9 2 9 10
M  V30 10 1 10 11
M  V30 11 1 11 12
M  V30 12 2 11 13
M  V30 13 1 10 14
M  V30 14 2 14 15
M  V30 15 1 15 16
M  V30 16 2 16 17
M  V30 17 1 3 18
M  V30 18 2 18 19
M  V30 19 1 19 20
M  V30 20 2 20 21
M  V30 21 1 21 22
M  V30 22 2 22 23
M  V30 23 1 17 5
M  V30 24 1 23 18
M  V30 25 1 17 9
M  V30 26 1 1 24
M  V30 27 1 1 25
M  V30 28 1 1 26
M  V30 29 1 2 27
M  V30 30 1 2 28
M  V30 31 1 3 29 CFG=1
M  V30 32 1 4 30
M  V30 33 1 7 31
M  V30 34 1 12 32
M  V30 35 1 12 33
M  V30 36 1 14 34
M  V30 37 1 15 35
M  V30 38 1 16 36
M  V30 39 1 19 37
M  V30 40 1 20 38
M  V30 41 1 21 39
M  V30 42 1 22 40
M  V30 43 1 23 41
M  V30 END BOND
M  V30 END CTAB
M  END
>  <Dataset>  (371) 
ChEMBL_Kinases

>  <Ligand_Instance>  (371) 
nan

>  <PDB_ID>  (371) 
nan

>  <Standardized_SMILES>  (371) 
CC[C@@H](Nc1ncnc2c(C(N)=O)cccc12)c1ccccc1

>  <Name>  (371) 
nan

>  <Pocket>  (371) 
nan

>  <ATP_Site>  (371) 
nan

>  <Peripheral>  (371) 
nan

>  <Num_H_Atoms_ProtBoundConf>  (371) 
nan

>  <Num_Resolved_Atoms>  (371) 
nan

>  <Num_Not_Resolved_Atoms>  (371) 
nan

$$$$
CHEMBL3680408
     RDKit          3D

  0  0  0  0  0  0  0  0  0  0999 V3000
M  V30 BEGIN CTAB
M  V30 COUNTS 54 57 0 0 0
M  V30 BEGIN ATOM
M  V30 1 C 1.601763 -2.039797 2.930846 0
M  V30 2 C 0.750561 -0.886247 3.362886 0 CFG=1
M  V30 3 N 1.448404 0.384725 3.382463 0
M  V30 4 C 2.002312 0.846992 2.149214 0
M  V30 5 N 1.876386 0.125387 1.022272 0
M  V30 6 C 2.367340 0.489438 -0.174533 0
M  V30 7 N 3.046144 1.668850 -0.286032 0
M  V30 8 C 3.219978 2.459949 0.801651 0
M  V30 9 C 3.904100 3.644383 0.679285 0
M  V30 10 C 4.446868 4.066137 -0.599791 0
M  V30 11 N 4.302694 3.292236 -1.777389 0
M  V30 12 O 5.075766 5.125453 -0.773531 0
M  V30 13 C 4.085409 4.455280 1.781123 0
M  V30 14 C 3.561457 4.036030 2.988244 0
M  V30 15 C 2.880846 2.838375 3.065855 0
M  V30 16 C 2.686789 2.012645 1.982841 0
M  V30 17 C -0.488066 -0.780011 2.514804 0
M  V30 18 C -1.176018 0.400648 2.812005 0
M  V30 19 C -2.354221 0.678662 2.126368 0
M  V30 20 C -2.855106 -0.186591 1.161258 0
M  V30 21 C -2.127030 -1.342412 0.910902 0
M  V30 22 N -2.551127 -2.296611 -0.058385 0
M  V30 23 C -3.392474 -3.397899 0.177494 0
M  V30 24 O -3.834203 -3.595216 1.340011 0
M  V30 25 C -3.790978 -4.339371 -0.855902 0
M  V30 26 C -4.632144 -5.387625 -0.482326 0
M  V30 27 N -5.025224 -6.289397 -1.428402 0
M  V30 28 C -4.603998 -6.162106 -2.697254 0
M  V30 29 C -3.772726 -5.148617 -3.127499 0
M  V30 30 C -3.289188 -4.976067 -4.511008 0
M  V30 31 F -1.928379 -4.676752 -4.460953 0
M  V30 32 F -3.900971 -3.893113 -5.111366 0
M  V30 33 F -3.534302 -6.069504 -5.302125 0
M  V30 34 C -3.376856 -4.238257 -2.168790 0
M  V30 35 C -0.956463 -1.645375 1.573773 0
M  V30 36 H 1.780293 -2.103369 1.850847 0
M  V30 37 H 1.071199 -2.964307 3.277802 0
M  V30 38 H 2.534828 -1.979964 3.548679 0
M  V30 39 H 0.401902 -1.110578 4.388450 0
M  V30 40 H 1.515274 0.899690 4.282672 0
M  V30 41 H 2.196639 -0.185450 -1.009954 0
M  V30 42 H 4.979011 3.078650 -2.536693 0
M  V30 43 H 3.647925 2.703657 -2.342478 0
M  V30 44 H 4.627089 5.381483 1.657757 0
M  V30 45 H 3.731902 4.709523 3.821376 0
M  V30 46 H 2.509221 2.595164 4.045261 0
M  V30 47 H -0.902744 1.153274 3.530787 0
M  V30 48 H -2.938323 1.573960 2.305432 0
M  V30 49 H -3.770414 0.021392 0.623104 0
M  V30 50 H -2.173528 -2.112130 -1.008705 0
M  V30 51 H -5.010613 -5.551193 0.523740 0
M  V30 52 H -4.907814 -6.875821 -3.473657 0
M  V30 53 H -2.724964 -3.428681 -2.466016 0
M  V30 54 H -0.343267 -2.502974 1.442285 0
M  V30 END ATOM
M  V30 BEGIN BOND
M  V30 1 1 1 2
M  V30 2 1 2 3
M  V30 3 1 3 4
M  V30 4 2 4 5
M  V30 5 1 5 6
M  V30 6 2 6 7
M  V30 7 1 7 8
M  V30 8 2 8 9
M  V30 9 1 9 10
M  V30 10 1 10 11
M  V30 11 2 10 12
M  V30 12 1 9 13
M  V30 13 2 13 14
M  V30 14 1 14 15
M  V30 15 2 15 16
M  V30 16 1 2 17
M  V30 17 2 17 18
M  V30 18 1 18 19
M  V30 19 2 19 20
M  V30 20 1 20 21
M  V30 21 1 21 22
M  V30 22 1 22 23
M  V30 23 2 23 24
M  V30 24 1 23 25
M  V30 25 2 25 26
M  V30 26 1 26 27
M  V30 27 2 27 28
M  V30 28 1 28 29
M  V30 29 1 29 30
M  V30 30 1 30 31
M  V30 31 1 30 32
M  V30 32 1 30 33
M  V30 33 2 29 34
M  V30 34 2 21 35
M  V30 35 1 16 4
M  V30 36 1 35 17
M  V30 37 1 16 8
M  V30 38 1 34 25
M  V30 39 1 1 36
M  V30 40 1 1 37
M  V30 41 1 1 38
M  V30 42 1 2 39 CFG=1
M  V30 43 1 3 40
M  V30 44 1 6 41
M  V30 45 1 11 42
M  V30 46 1 11 43
M  V30 47 1 13 44
M  V30 48 1 14 45
M  V30 49 1 15 46
M  V30 50 1 18 47
M  V30 51 1 19 48
M  V30 52 1 20 49
M  V30 53 1 22 50
M  V30 54 1 26 51
M  V30 55 1 28 52
M  V30 56 1 34 53
M  V30 57 1 35 54
M  V30 END BOND
M  V30 END CTAB
M  END
>  <Dataset>  (372) 
ChEMBL_Kinases

>  <Ligand_Instance>  (372) 
nan

>  <PDB_ID>  (372) 
nan

>  <Standardized_SMILES>  (372) 
C[C@@H](Nc1ncnc2c(C(N)=O)cccc12)c1cccc(NC(=O)c2cncc(C(F)(F)F)c2)c1

>  <Name>  (372) 
nan

>  <Pocket>  (372) 
nan

>  <ATP_Site>  (372) 
nan

>  <Peripheral>  (372) 
nan

>  <Num_H_Atoms_ProtBoundConf>  (372) 
nan

>  <Num_Resolved_Atoms>  (372) 
nan

>  <Num_Not_Resolved_Atoms>  (372) 
nan

$$$$
CHEMBL3680409
     RDKit          3D

  0  0  0  0  0  0  0  0  0  0999 V3000
M  V30 BEGIN CTAB
M  V30 COUNTS 47 50 0 0 0
M  V30 BEGIN ATOM
M  V30 1 N 2.763939 -6.461450 1.188968 0
M  V30 2 C 1.831463 -5.676556 0.461630 0
M  V30 3 O 1.066460 -6.459298 -0.114395 0
M  V30 4 C 1.899387 -4.224726 0.492771 0
M  V30 5 C 2.878510 -3.614526 1.232016 0
M  V30 6 C 2.949759 -2.237489 1.267899 0
M  V30 7 C 2.013787 -1.545329 0.543761 0
M  V30 8 C 1.000011 -2.060428 -0.223887 0
M  V30 9 C 0.057561 -1.369352 -0.945339 0
M  V30 10 N 0.125451 0.042465 -0.948981 0
M  V30 11 C 0.193396 1.455445 -0.952628 0
M  V30 12 C 1.419093 2.054953 -0.284873 0
M  V30 13 N 1.320030 2.144966 1.128289 0
M  V30 14 C 0.306290 3.142666 1.405100 0
M  V30 15 C -1.027406 2.739326 0.879958 0
M  V30 16 C -1.756395 1.858098 1.844222 0
M  V30 17 C -1.281036 0.617988 2.187868 0
M  V30 18 C -1.918615 -0.247285 3.079024 0
M  V30 19 C -3.101145 0.177053 3.646853 0
M  V30 20 C -3.636396 1.411253 3.346826 0
M  V30 21 C -2.944542 2.203941 2.457884 0
M  V30 22 C -1.058795 2.182572 -0.502899 0
M  V30 23 N -0.813325 -2.154791 -1.590497 0
M  V30 24 C -0.851478 -3.482099 -1.600198 0
M  V30 25 N 0.076846 -4.104820 -0.891542 0
M  V30 26 C 0.992512 -3.432803 -0.210576 0
M  V30 27 H 3.048023 -6.314623 2.180726 0
M  V30 28 H 3.051769 -6.314842 2.189499 0
M  V30 29 H 3.588666 -4.204921 1.782077 0
M  V30 30 H 3.706902 -1.721654 1.839222 0
M  V30 31 H 2.077225 -0.477110 0.589449 0
M  V30 32 H -0.766461 0.186037 -1.522405 0
M  V30 33 H 0.359458 1.806524 -2.025235 0
M  V30 34 H 1.562837 3.106726 -0.675928 0
M  V30 35 H 2.324802 1.527389 -0.582528 0
M  V30 36 H 2.223811 2.535448 1.475814 0
M  V30 37 H 0.215928 3.258001 2.504430 0
M  V30 38 H 0.619229 4.145451 1.033734 0
M  V30 39 H -1.629736 3.700184 0.887241 0
M  V30 40 H -0.370772 0.228703 1.787028 0
M  V30 41 H -1.507449 -1.221855 3.323963 0
M  V30 42 H -3.596791 -0.505243 4.344991 0
M  V30 43 H -4.566640 1.731857 3.800646 0
M  V30 44 H -3.371240 3.186482 2.219083 0
M  V30 45 H -1.376695 2.969583 -1.216653 0
M  V30 46 H -1.869352 1.421558 -0.524179 0
M  V30 47 H -1.638789 -3.947739 -2.186634 0
M  V30 END ATOM
M  V30 BEGIN BOND
M  V30 1 1 1 2
M  V30 2 2 2 3
M  V30 3 1 2 4
M  V30 4 2 4 5
M  V30 5 1 5 6
M  V30 6 2 6 7
M  V30 7 1 7 8
M  V30 8 2 8 9
M  V30 9 1 9 10
M  V30 10 1 10 11
M  V30 11 1 11 12
M  V30 12 1 12 13
M  V30 13 1 13 14
M  V30 14 1 14 15
M  V30 15 1 15 16
M  V30 16 2 16 17
M  V30 17 1 17 18
M  V30 18 2 18 19
M  V30 19 1 19 20
M  V30 20 2 20 21
M  V30 21 1 15 22
M  V30 22 1 9 23
M  V30 23 2 23 24
M  V30 24 1 24 25
M  V30 25 2 25 26
M  V30 26 1 26 4
M  V30 27 1 26 8
M  V30 28 1 22 11
M  V30 29 1 21 16
M  V30 30 1 1 27
M  V30 31 1 1 28
M  V30 32 1 5 29
M  V30 33 1 6 30
M  V30 34 1 7 31
M  V30 35 1 10 32
M  V30 36 1 11 33
M  V30 37 1 12 34
M  V30 38 1 12 35
M  V30 39 1 13 36
M  V30 40 1 14 37
M  V30 41 1 14 38
M  V30 42 1 15 39
M  V30 43 1 17 40
M  V30 44 1 18 41
M  V30 45 1 19 42
M  V30 46 1 20 43
M  V30 47 1 21 44
M  V30 48 1 22 45
M  V30 49 1 22 46
M  V30 50 1 24 47
M  V30 END BOND
M  V30 END CTAB
M  END
>  <Dataset>  (373) 
ChEMBL_Kinases

>  <Ligand_Instance>  (373) 
nan

>  <PDB_ID>  (373) 
nan

>  <Standardized_SMILES>  (373) 
NC(=O)c1cccc2c(NC3CNCC(c4ccccc4)C3)ncnc12

>  <Name>  (373) 
nan

>  <Pocket>  (373) 
nan

>  <ATP_Site>  (373) 
nan

>  <Peripheral>  (373) 
nan

>  <Num_H_Atoms_ProtBoundConf>  (373) 
nan

>  <Num_Resolved_Atoms>  (373) 
nan

>  <Num_Not_Resolved_Atoms>  (373) 
nan

$$$$
CHEMBL3680415
     RDKit          3D

  0  0  0  0  0  0  0  0  0  0999 V3000
M  V30 BEGIN CTAB
M  V30 COUNTS 38 40 0 0 0
M  V30 BEGIN ATOM
M  V30 1 C 2.037619 -6.210488 0.992418 0
M  V30 2 C 2.511687 -4.804948 1.130980 0
M  V30 3 C 3.558301 -4.475430 1.982289 0
M  V30 4 C 3.987717 -3.188738 2.105094 0
M  V30 5 F 5.011523 -2.992746 2.962666 0
M  V30 6 C 3.368560 -2.187479 1.366209 0
M  V30 7 C 2.326140 -2.481636 0.511619 0
M  V30 8 C 1.786255 -1.316556 -0.190093 0
M  V30 9 N 0.700646 -0.648149 0.513584 0
M  V30 10 C 0.097703 0.495799 -0.071678 0
M  V30 11 N 0.529120 0.948587 -1.259147 0
M  V30 12 C 0.004772 2.020895 -1.866218 0
M  V30 13 N -1.001999 2.694023 -1.280805 0
M  V30 14 C -1.506043 2.319563 -0.088721 0
M  V30 15 C -2.544539 2.996744 0.536858 0
M  V30 16 C -3.110903 4.164696 -0.131128 0
M  V30 17 N -4.177768 4.876721 0.490855 0
M  V30 18 O -2.643865 4.518671 -1.244541 0
M  V30 19 C -3.035843 2.583418 1.759930 0
M  V30 20 C -2.465137 1.473443 2.348473 0
M  V30 21 C -1.433244 0.810891 1.713814 0
M  V30 22 C -0.933363 1.209633 0.496951 0
M  V30 23 C 1.915675 -3.788960 0.409458 0
M  V30 24 H 1.069864 -6.268572 1.548487 0
M  V30 25 H 2.750743 -6.889207 1.500087 0
M  V30 26 H 1.911446 -6.517903 -0.045492 0
M  V30 27 H 3.997789 -5.296059 2.528378 0
M  V30 28 H 3.771701 -1.203870 1.525613 0
M  V30 29 H 2.585976 -0.581777 -0.456112 0
M  V30 30 H 1.432632 -1.691319 -1.192545 0
M  V30 31 H 0.460724 -1.095004 1.420122 0
M  V30 32 H 0.418039 2.315456 -2.827899 0
M  V30 33 H -4.269417 5.868223 0.816451 0
M  V30 34 H -4.975047 4.199194 0.601771 0
M  V30 35 H -3.845924 3.155560 2.192441 0
M  V30 36 H -2.881418 1.182624 3.309747 0
M  V30 37 H -1.041343 -0.044393 2.235567 0
M  V30 38 H 1.105942 -3.972041 -0.263301 0
M  V30 END ATOM
M  V30 BEGIN BOND
M  V30 1 1 1 2
M  V30 2 2 2 3
M  V30 3 1 3 4
M  V30 4 1 4 5
M  V30 5 2 4 6
M  V30 6 1 6 7
M  V30 7 1 7 8
M  V30 8 1 8 9
M  V30 9 1 9 10
M  V30 10 2 10 11
M  V30 11 1 11 12
M  V30 12 2 12 13
M  V30 13 1 13 14
M  V30 14 2 14 15
M  V30 15 1 15 16
M  V30 16 1 16 17
M  V30 17 2 16 18
M  V30 18 1 15 19
M  V30 19 2 19 20
M  V30 20 1 20 21
M  V30 21 2 21 22
M  V30 22 2 7 23
M  V30 23 1 23 2
M  V30 24 1 22 10
M  V30 25 1 22 14
M  V30 26 1 1 24
M  V30 27 1 1 25
M  V30 28 1 1 26
M  V30 29 1 3 27
M  V30 30 1 6 28
M  V30 31 1 8 29
M  V30 32 1 8 30
M  V30 33 1 9 31
M  V30 34 1 12 32
M  V30 35 1 17 33
M  V30 36 1 17 34
M  V30 37 1 19 35
M  V30 38 1 20 36
M  V30 39 1 21 37
M  V30 40 1 23 38
M  V30 END BOND
M  V30 END CTAB
M  END
>  <Dataset>  (374) 
ChEMBL_Kinases

>  <Ligand_Instance>  (374) 
nan

>  <PDB_ID>  (374) 
nan

>  <Standardized_SMILES>  (374) 
Cc1cc(F)cc(CNc2ncnc3c(C(N)=O)cccc23)c1

>  <Name>  (374) 
nan

>  <Pocket>  (374) 
nan

>  <ATP_Site>  (374) 
nan

>  <Peripheral>  (374) 
nan

>  <Num_H_Atoms_ProtBoundConf>  (374) 
nan

>  <Num_Resolved_Atoms>  (374) 
nan

>  <Num_Not_Resolved_Atoms>  (374) 
nan

$$$$
CHEMBL3680426
     RDKit          3D

  0  0  0  0  0  0  0  0  0  0999 V3000
M  V30 BEGIN CTAB
M  V30 COUNTS 41 43 0 0 0
M  V30 BEGIN ATOM
M  V30 1 C -0.622138 -5.587460 1.206616 0
M  V30 2 C 0.311904 -4.690486 0.478590 0
M  V30 3 C 1.585454 -5.155838 0.181548 0
M  V30 4 C 2.421815 -4.276303 -0.496327 0
M  V30 5 C 3.815261 -4.728068 -0.845194 0
M  V30 6 C 2.013063 -3.009726 -0.856359 0
M  V30 7 C 0.744129 -2.564364 -0.553294 0
M  V30 8 C 0.442110 -1.182480 -0.997406 0
M  V30 9 N 0.693794 -0.119627 -0.140419 0
M  V30 10 C 0.951252 0.965353 0.734540 0
M  V30 11 N 2.117409 1.357758 1.305393 0
M  V30 12 C 2.206324 2.418039 2.108064 0
M  V30 13 N 1.104895 3.115844 2.355984 0
M  V30 14 C -0.075599 2.805082 1.842205 0
M  V30 15 C -1.182956 3.558356 2.133350 0
M  V30 16 C -1.161337 4.719693 2.979196 0
M  V30 17 N -1.585711 5.815874 3.685609 0
M  V30 18 O 0.043894 4.931845 3.382475 0
M  V30 19 C -2.436122 3.277111 1.628478 0
M  V30 20 C -2.587617 2.177169 0.781856 0
M  V30 21 C -1.438759 1.453953 0.522480 0
M  V30 22 C -0.184502 1.710334 1.009751 0
M  V30 23 C -0.089431 -3.436953 0.120879 0
M  V30 24 H -0.092148 -6.397554 1.730397 0
M  V30 25 H -1.221115 -4.960838 1.925727 0
M  V30 26 H -1.301430 -6.036324 0.454939 0
M  V30 27 H 1.910133 -6.151699 0.462447 0
M  V30 28 H 3.837088 -5.827009 -1.020120 0
M  V30 29 H 4.457954 -4.568401 0.044201 0
M  V30 30 H 4.147367 -4.178687 -1.733201 0
M  V30 31 H 2.739821 -2.405511 -1.380730 0
M  V30 32 H 0.888529 -1.041554 -2.020809 0
M  V30 33 H -0.672986 -1.186753 -1.218448 0
M  V30 34 H 1.696073 -0.496327 -0.160333 0
M  V30 35 H 3.201962 2.610201 2.490522 0
M  V30 36 H -1.620924 6.808535 3.300732 0
M  V30 37 H -1.931206 5.790213 4.692015 0
M  V30 38 H -3.343155 3.863268 1.844539 0
M  V30 39 H -3.547389 1.921172 0.364947 0
M  V30 40 H -1.593816 0.628143 -0.122768 0
M  V30 41 H -1.089056 -3.022030 0.333010 0
M  V30 END ATOM
M  V30 BEGIN BOND
M  V30 1 1 1 2
M  V30 2 2 2 3
M  V30 3 1 3 4
M  V30 4 1 4 5
M  V30 5 2 4 6
M  V30 6 1 6 7
M  V30 7 1 7 8
M  V30 8 1 8 9
M  V30 9 1 9 10
M  V30 10 2 10 11
M  V30 11 1 11 12
M  V30 12 2 12 13
M  V30 13 1 13 14
M  V30 14 2 14 15
M  V30 15 1 15 16
M  V30 16 1 16 17
M  V30 17 2 16 18
M  V30 18 1 15 19
M  V30 19 2 19 20
M  V30 20 1 20 21
M  V30 21 2 21 22
M  V30 22 2 7 23
M  V30 23 1 23 2
M  V30 24 1 22 10
M  V30 25 1 22 14
M  V30 26 1 1 24
M  V30 27 1 1 25
M  V30 28 1 1 26
M  V30 29 1 3 27
M  V30 30 1 5 28
M  V30 31 1 5 29
M  V30 32 1 5 30
M  V30 33 1 6 31
M  V30 34 1 8 32
M  V30 35 1 8 33
M  V30 36 1 9 34
M  V30 37 1 12 35
M  V30 38 1 17 36
M  V30 39 1 17 37
M  V30 40 1 19 38
M  V30 41 1 20 39
M  V30 42 1 21 40
M  V30 43 1 23 41
M  V30 END BOND
M  V30 END CTAB
M  END
>  <Dataset>  (375) 
ChEMBL_Kinases

>  <Ligand_Instance>  (375) 
nan

>  <PDB_ID>  (375) 
nan

>  <Standardized_SMILES>  (375) 
Cc1cc(C)cc(CNc2ncnc3c(C(N)=O)cccc23)c1

>  <Name>  (375) 
nan

>  <Pocket>  (375) 
nan

>  <ATP_Site>  (375) 
nan

>  <Peripheral>  (375) 
nan

>  <Num_H_Atoms_ProtBoundConf>  (375) 
nan

>  <Num_Resolved_Atoms>  (375) 
nan

>  <Num_Not_Resolved_Atoms>  (375) 
nan

$$$$
CHEMBL3680427
     RDKit          3D

  0  0  0  0  0  0  0  0  0  0999 V3000
M  V30 BEGIN CTAB
M  V30 COUNTS 55 58 0 0 0
M  V30 BEGIN ATOM
M  V30 1 C 1.610789 -2.523368 3.968545 0
M  V30 2 C 1.102717 -1.417506 3.089101 0 CFG=1
M  V30 3 N 1.987155 -0.270207 3.210020 0
M  V30 4 C 1.670109 0.879831 2.433437 0
M  V30 5 N 0.590296 0.872094 1.626066 0
M  V30 6 C 0.262846 1.922519 0.883563 0
M  V30 7 N 0.987483 3.044754 0.897707 0
M  V30 8 C 2.099996 3.188651 1.665658 0
M  V30 9 C 2.929471 4.317544 1.754679 0
M  V30 10 C 2.393400 5.319823 0.873096 0
M  V30 11 N 1.715548 6.119849 -0.024812 0
M  V30 12 O 3.181745 6.330297 1.015950 0
M  V30 13 C 4.031692 4.360925 2.561895 0
M  V30 14 C 4.303476 3.239100 3.296189 0
M  V30 15 C 3.498742 2.145180 3.208751 0
M  V30 16 C 2.385506 2.056418 2.415055 0
M  V30 17 C 0.988414 -1.838980 1.654017 0
M  V30 18 C 2.202384 -1.887774 1.004201 0
M  V30 19 C 2.232545 -2.262334 -0.331557 0
M  V30 20 C 1.097593 -2.591906 -1.049047 0
M  V30 21 C -0.090148 -2.521898 -0.334010 0
M  V30 22 N -1.300598 -2.847282 -1.008787 0
M  V30 23 C -1.841926 -4.158630 -1.061826 0
M  V30 24 O -1.211926 -5.069389 -0.478732 0
M  V30 25 C -3.096588 -4.160576 -1.834839 0
M  V30 26 C -4.203949 -3.435009 -1.411008 0
M  V30 27 C -5.354515 -3.452082 -2.144670 0
M  V30 28 C -6.564677 -2.674671 -1.706547 0
M  V30 29 F -7.614457 -3.483125 -1.391414 0
M  V30 30 F -6.241170 -1.922914 -0.581696 0
M  V30 31 F -6.840120 -1.747936 -2.701324 0
M  V30 32 C -5.447216 -4.181862 -3.312940 0
M  V30 33 C -4.351312 -4.917119 -3.759083 0
M  V30 34 C -3.179891 -4.901868 -3.015368 0
M  V30 35 Cl -1.752857 -5.793425 -3.495801 0
M  V30 36 C -0.161299 -2.153935 0.994064 0
M  V30 37 H 1.925858 -3.384239 3.340097 0
M  V30 38 H 0.860684 -2.894908 4.686261 0
M  V30 39 H 2.485131 -2.188399 4.584766 0
M  V30 40 H 0.130752 -1.098600 3.474722 0
M  V30 41 H 2.796232 -0.347046 3.848799 0
M  V30 42 H -0.613033 1.933048 0.220636 0
M  V30 43 H 0.918436 6.783935 0.214585 0
M  V30 44 H 1.939914 6.118624 -1.065829 0
M  V30 45 H 4.600196 5.277562 2.555859 0
M  V30 46 H 5.196571 3.343143 3.917527 0
M  V30 47 H 3.834571 1.340267 3.840631 0
M  V30 48 H 3.173736 -1.660123 1.427414 0
M  V30 49 H 3.173250 -2.313739 -0.882036 0
M  V30 50 H 1.081143 -2.883332 -2.076058 0
M  V30 51 H -1.571233 -1.905401 -1.377041 0
M  V30 52 H -4.181101 -2.851456 -0.511278 0
M  V30 53 H -6.361201 -4.203738 -3.908363 0
M  V30 54 H -4.388264 -5.498248 -4.666330 0
M  V30 55 H -1.075820 -2.091473 1.574351 0
M  V30 END ATOM
M  V30 BEGIN BOND
M  V30 1 1 1 2
M  V30 2 1 2 3
M  V30 3 1 3 4
M  V30 4 2 4 5
M  V30 5 1 5 6
M  V30 6 2 6 7
M  V30 7 1 7 8
M  V30 8 2 8 9
M  V30 9 1 9 10
M  V30 10 1 10 11
M  V30 11 2 10 12
M  V30 12 1 9 13
M  V30 13 2 13 14
M  V30 14 1 14 15
M  V30 15 2 15 16
M  V30 16 1 2 17
M  V30 17 2 17 18
M  V30 18 1 18 19
M  V30 19 2 19 20
M  V30 20 1 20 21
M  V30 21 1 21 22
M  V30 22 1 22 23
M  V30 23 2 23 24
M  V30 24 1 23 25
M  V30 25 2 25 26
M  V30 26 1 26 27
M  V30 27 1 27 28
M  V30 28 1 28 29
M  V30 29 1 28 30
M  V30 30 1 28 31
M  V30 31 2 27 32
M  V30 32 1 32 33
M  V30 33 2 33 34
M  V30 34 1 34 35
M  V30 35 2 21 36
M  V30 36 1 16 4
M  V30 37 1 36 17
M  V30 38 1 16 8
M  V30 39 1 34 25
M  V30 40 1 1 37
M  V30 41 1 1 38
M  V30 42 1 1 39
M  V30 43 1 2 40 CFG=1
M  V30 44 1 3 41
M  V30 45 1 6 42
M  V30 46 1 11 43
M  V30 47 1 11 44
M  V30 48 1 13 45
M  V30 49 1 14 46
M  V30 50 1 15 47
M  V30 51 1 18 48
M  V30 52 1 19 49
M  V30 53 1 20 50
M  V30 54 1 22 51
M  V30 55 1 26 52
M  V30 56 1 32 53
M  V30 57 1 33 54
M  V30 58 1 36 55
M  V30 END BOND
M  V30 END CTAB
M  END
>  <Dataset>  (376) 
ChEMBL_Kinases

>  <Ligand_Instance>  (376) 
nan

>  <PDB_ID>  (376) 
nan

>  <Standardized_SMILES>  (376) 
C[C@@H](Nc1ncnc2c(C(N)=O)cccc12)c1cccc(NC(=O)c2cc(C(F)(F)F)ccc2Cl)c1

>  <Name>  (376) 
nan

>  <Pocket>  (376) 
nan

>  <ATP_Site>  (376) 
nan

>  <Peripheral>  (376) 
nan

>  <Num_H_Atoms_ProtBoundConf>  (376) 
nan

>  <Num_Resolved_Atoms>  (376) 
nan

>  <Num_Not_Resolved_Atoms>  (376) 
nan

$$$$
CHEMBL3680449
     RDKit          3D

  0  0  0  0  0  0  0  0  0  0999 V3000
M  V30 BEGIN CTAB
M  V30 COUNTS 59 62 0 0 0
M  V30 BEGIN ATOM
M  V30 1 C 7.832783 -2.513146 4.291225 0
M  V30 2 O 7.375616 -1.175660 4.200584 0
M  V30 3 C 6.397580 -0.772283 3.312429 0
M  V30 4 C 5.931856 0.521932 3.200865 0
M  V30 5 C 4.952524 0.888611 2.301083 0
M  V30 6 C 4.382909 -0.042597 1.454402 0
M  V30 7 C 3.358585 0.411440 0.533329 0
M  V30 8 O 3.020380 1.627123 0.530429 0
M  V30 9 N 2.621809 -0.320120 -0.428161 0
M  V30 10 C 1.648533 0.324295 -1.242978 0
M  V30 11 C 2.172890 0.824157 -2.439889 0
M  V30 12 C 1.307369 1.468365 -3.302337 0
M  V30 13 C -0.033700 1.628758 -3.020390 0
M  V30 14 C -0.536547 1.130714 -1.836450 0
M  V30 15 C -1.954794 1.201961 -1.347530 0 CFG=1
M  V30 16 C -2.782937 1.705559 -2.501860 0
M  V30 17 N -2.414346 -0.063899 -0.812420 0
M  V30 18 C -3.722654 -0.161737 -0.270616 0
M  V30 19 N -4.535170 0.898423 -0.240920 0
M  V30 20 C -5.784495 0.890590 0.256979 0
M  V30 21 N -6.273320 -0.263759 0.769664 0
M  V30 22 C -5.525418 -1.391943 0.784387 0
M  V30 23 C -5.993943 -2.586013 1.299854 0
M  V30 24 C -7.337410 -2.662402 1.854178 0
M  V30 25 N -8.178003 -1.492853 1.865128 0
M  V30 26 O -7.828349 -3.714429 2.339298 0
M  V30 27 C -5.237346 -3.738907 1.317849 0
M  V30 28 C -3.962775 -3.661572 0.790737 0
M  V30 29 C -3.515153 -2.461094 0.281768 0
M  V30 30 C -4.251591 -1.318882 0.258761 0
M  V30 31 C 0.305845 0.485716 -0.962285 0
M  V30 32 C 4.884747 -1.312668 1.609737 0
M  V30 33 O 4.377509 -2.293663 0.812805 0
M  V30 34 C 4.746482 -3.653400 0.806565 0
M  V30 35 N 5.825444 -1.656871 2.476317 0
M  V30 36 H 8.698591 -2.721371 3.631617 0
M  V30 37 H 8.205911 -2.655554 5.339181 0
M  V30 38 H 7.034572 -3.262799 4.149195 0
M  V30 39 H 6.350256 1.283925 3.844810 0
M  V30 40 H 4.644369 1.918664 2.276365 0
M  V30 41 H 2.816062 -1.323738 -0.512891 0
M  V30 42 H 3.224928 0.740549 -2.742733 0
M  V30 43 H 1.654445 1.883175 -4.256848 0
M  V30 44 H -0.749328 2.114295 -3.642752 0
M  V30 45 H -1.965078 1.951515 -0.533189 0
M  V30 46 H -3.848876 1.797843 -2.312591 0
M  V30 47 H -2.522623 1.125820 -3.400176 0
M  V30 48 H -2.420128 2.761839 -2.672853 0
M  V30 49 H -1.721667 -0.827199 -0.871203 0
M  V30 50 H -6.398390 1.793503 0.251277 0
M  V30 51 H -7.780383 -0.936928 2.649955 0
M  V30 52 H -8.832595 -1.702263 1.075844 0
M  V30 53 H -5.600145 -4.680230 1.721620 0
M  V30 54 H -3.378862 -4.568266 0.809285 0
M  V30 55 H -2.508896 -2.494498 -0.108318 0
M  V30 56 H 0.080924 0.038561 0.000829 0
M  V30 57 H 5.555730 -3.805477 0.052211 0
M  V30 58 H 3.816769 -4.212020 0.503532 0
M  V30 59 H 5.038374 -3.984028 1.814849 0
M  V30 END ATOM
M  V30 BEGIN BOND
M  V30 1 1 1 2
M  V30 2 1 2 3
M  V30 3 2 3 4
M  V30 4 1 4 5
M  V30 5 2 5 6
M  V30 6 1 6 7
M  V30 7 2 7 8
M  V30 8 1 7 9
M  V30 9 1 9 10
M  V30 10 2 10 11
M  V30 11 1 11 12
M  V30 12 2 12 13
M  V30 13 1 13 14
M  V30 14 1 14 15
M  V30 15 1 15 16
M  V30 16 1 15 17
M  V30 17 1 17 18
M  V30 18 2 18 19
M  V30 19 1 19 20
M  V30 20 2 20 21
M  V30 21 1 21 22
M  V30 22 2 22 23
M  V30 23 1 23 24
M  V30 24 1 24 25
M  V30 25 2 24 26
M  V30 26 1 23 27
M  V30 27 2 27 28
M  V30 28 1 28 29
M  V30 29 2 29 30
M  V30 30 2 14 31
M  V30 31 1 6 32
M  V30 32 1 32 33
M  V30 33 1 33 34
M  V30 34 2 32 35
M  V30 35 1 35 3
M  V30 36 1 31 10
M  V30 37 1 30 18
M  V30 38 1 30 22
M  V30 39 1 1 36
M  V30 40 1 1 37
M  V30 41 1 1 38
M  V30 42 1 4 39
M  V30 43 1 5 40
M  V30 44 1 9 41
M  V30 45 1 11 42
M  V30 46 1 12 43
M  V30 47 1 13 44
M  V30 48 1 15 45 CFG=1
M  V30 49 1 16 46
M  V30 50 1 16 47
M  V30 51 1 16 48
M  V30 52 1 17 49
M  V30 53 1 20 50
M  V30 54 1 25 51
M  V30 55 1 25 52
M  V30 56 1 27 53
M  V30 57 1 28 54
M  V30 58 1 29 55
M  V30 59 1 31 56
M  V30 60 1 34 57
M  V30 61 1 34 58
M  V30 62 1 34 59
M  V30 END BOND
M  V30 END CTAB
M  END
>  <Dataset>  (377) 
ChEMBL_Kinases

>  <Ligand_Instance>  (377) 
nan

>  <PDB_ID>  (377) 
nan

>  <Standardized_SMILES>  (377) 
COc1ccc(C(=O)Nc2cccc([C@@H](C)Nc3ncnc4c(C(N)=O)cccc34)c2)c(OC)n1

>  <Name>  (377) 
nan

>  <Pocket>  (377) 
nan

>  <ATP_Site>  (377) 
nan

>  <Peripheral>  (377) 
nan

>  <Num_H_Atoms_ProtBoundConf>  (377) 
nan

>  <Num_Resolved_Atoms>  (377) 
nan

>  <Num_Not_Resolved_Atoms>  (377) 
nan

$$$$
CHEMBL3680452
     RDKit          3D

  0  0  0  0  0  0  0  0  0  0999 V3000
M  V30 BEGIN CTAB
M  V30 COUNTS 44 46 0 0 0
M  V30 BEGIN ATOM
M  V30 1 C -2.758732 -2.789536 -1.822175 0
M  V30 2 C -1.585784 -2.922669 -0.881868 0
M  V30 3 C -1.184698 -1.573833 -0.297704 0
M  V30 4 C -0.027325 -1.807968 0.608624 0 CFG=1
M  V30 5 N 0.499830 -0.643051 1.262189 0
M  V30 6 C 1.011019 0.410650 0.492552 0
M  V30 7 N 1.018485 0.350524 -0.850033 0
M  V30 8 C 1.498363 1.334165 -1.632952 0
M  V30 9 N 2.022840 2.486417 -1.127498 0
M  V30 10 C 2.044350 2.608452 0.211978 0
M  V30 11 C 2.560269 3.747133 0.799133 0
M  V30 12 C 3.081796 4.816197 -0.050484 0
M  V30 13 N 3.066759 4.704151 -1.449661 0
M  V30 14 O 3.560283 5.868111 0.416480 0
M  V30 15 C 2.592256 3.894134 2.180602 0
M  V30 16 C 2.093786 2.872471 2.995521 0
M  V30 17 C 1.591509 1.759861 2.353097 0
M  V30 18 C 1.544603 1.581752 0.986397 0
M  V30 19 C -0.295621 -2.943788 1.524281 0
M  V30 20 C 0.022368 -4.293375 1.356261 0
M  V30 21 C -0.325532 -5.188057 2.346430 0
M  V30 22 C -0.969531 -4.814441 3.489106 0
M  V30 23 C -1.285607 -3.478507 3.657991 0
M  V30 24 C -0.947866 -2.547046 2.675340 0
M  V30 25 H -3.533159 -2.108014 -1.424423 0
M  V30 26 H -2.440393 -2.559932 -2.857416 0
M  V30 27 H -3.238801 -3.801805 -1.871986 0
M  V30 28 H -0.719051 -3.298807 -1.448030 0
M  V30 29 H -1.858269 -3.652824 -0.095143 0
M  V30 30 H -0.987340 -0.891611 -1.122150 0
M  V30 31 H -2.070086 -1.148893 0.242949 0
M  V30 32 H 0.811473 -2.175210 -0.055087 0
M  V30 33 H 0.449130 -0.694612 2.299843 0
M  V30 34 H 1.445786 1.160701 -2.706187 0
M  V30 35 H 2.083271 4.980333 -1.647158 0
M  V30 36 H 4.043152 4.397138 -1.647824 0
M  V30 37 H 3.009144 4.809758 2.576174 0
M  V30 38 H 2.115924 2.980539 4.063241 0
M  V30 39 H 1.221283 1.005218 3.031507 0
M  V30 40 H 0.530198 -4.490454 0.422051 0
M  V30 41 H -0.030118 -6.194766 2.106360 0
M  V30 42 H -1.194203 -5.605500 4.201086 0
M  V30 43 H -1.797872 -3.253930 4.591595 0
M  V30 44 H -1.270004 -1.559896 2.974581 0
M  V30 END ATOM
M  V30 BEGIN BOND
M  V30 1 1 1 2
M  V30 2 1 2 3
M  V30 3 1 3 4
M  V30 4 1 4 5
M  V30 5 1 5 6
M  V30 6 2 6 7
M  V30 7 1 7 8
M  V30 8 2 8 9
M  V30 9 1 9 10
M  V30 10 2 10 11
M  V30 11 1 11 12
M  V30 12 1 12 13
M  V30 13 2 12 14
M  V30 14 1 11 15
M  V30 15 2 15 16
M  V30 16 1 16 17
M  V30 17 2 17 18
M  V30 18 1 4 19
M  V30 19 2 19 20
M  V30 20 1 20 21
M  V30 21 2 21 22
M  V30 22 1 22 23
M  V30 23 2 23 24
M  V30 24 1 18 6
M  V30 25 1 24 19
M  V30 26 1 18 10
M  V30 27 1 1 25
M  V30 28 1 1 26
M  V30 29 1 1 27
M  V30 30 1 2 28
M  V30 31 1 2 29
M  V30 32 1 3 30
M  V30 33 1 3 31
M  V30 34 1 4 32 CFG=3
M  V30 35 1 5 33
M  V30 36 1 8 34
M  V30 37 1 13 35
M  V30 38 1 13 36
M  V30 39 1 15 37
M  V30 40 1 16 38
M  V30 41 1 17 39
M  V30 42 1 20 40
M  V30 43 1 21 41
M  V30 44 1 22 42
M  V30 45 1 23 43
M  V30 46 1 24 44
M  V30 END BOND
M  V30 END CTAB
M  END
>  <Dataset>  (378) 
ChEMBL_Kinases

>  <Ligand_Instance>  (378) 
nan

>  <PDB_ID>  (378) 
nan

>  <Standardized_SMILES>  (378) 
CCC[C@@H](Nc1ncnc2c(C(N)=O)cccc12)c1ccccc1

>  <Name>  (378) 
nan

>  <Pocket>  (378) 
nan

>  <ATP_Site>  (378) 
nan

>  <Peripheral>  (378) 
nan

>  <Num_H_Atoms_ProtBoundConf>  (378) 
nan

>  <Num_Resolved_Atoms>  (378) 
nan

>  <Num_Not_Resolved_Atoms>  (378) 
nan

$$$$
CHEMBL3680453
     RDKit          3D

  0  0  0  0  0  0  0  0  0  0999 V3000
M  V30 BEGIN CTAB
M  V30 COUNTS 60 63 0 0 0
M  V30 BEGIN ATOM
M  V30 1 C 1.937719 -1.955558 6.801853 0
M  V30 2 O 1.228408 -2.500507 5.733978 0
M  V30 3 C 1.387539 -2.043094 4.411679 0
M  V30 4 C 2.289402 -1.027876 4.262072 0
M  V30 5 C 2.496483 -0.527042 2.980145 0
M  V30 6 Cl 3.642657 0.775909 2.734470 0
M  V30 7 C 1.777359 -1.088425 1.943315 0
M  V30 8 C 2.020522 -0.541180 0.613756 0
M  V30 9 O 2.442153 -1.008073 -0.500165 0
M  V30 10 N 1.738252 0.850124 0.453436 0
M  V30 11 C 1.761606 1.896544 -0.508606 0
M  V30 12 C 2.892679 2.668239 -0.669571 0
M  V30 13 C 2.856303 3.668507 -1.616437 0
M  V30 14 C 1.726011 3.857731 -2.347355 0
M  V30 15 C 0.547855 3.100857 -2.223251 0
M  V30 16 C -0.557105 3.486755 -3.128190 0 CFG=1
M  V30 17 C -0.115876 4.551960 -4.117110 0
M  V30 18 N -1.266485 2.396324 -3.738761 0
M  V30 19 C -2.234936 1.495175 -3.258271 0
M  V30 20 N -2.730485 1.544996 -2.013449 0
M  V30 21 C -3.669189 0.704291 -1.562026 0
M  V30 22 N -4.176879 -0.263295 -2.363760 0
M  V30 23 C -3.704948 -0.344506 -3.618197 0
M  V30 24 C -4.230633 -1.332997 -4.420926 0
M  V30 25 C -5.251542 -2.232832 -3.899635 0
M  V30 26 N -5.846392 -2.279872 -2.629949 0
M  V30 27 O -5.764869 -3.151150 -4.580793 0
M  V30 28 C -3.831592 -1.521145 -5.725436 0
M  V30 29 C -2.849932 -0.652837 -6.219668 0
M  V30 30 C -2.354771 0.319606 -5.378795 0
M  V30 31 C -2.739909 0.517789 -4.086242 0
M  V30 32 C 0.660420 2.144178 -1.279708 0
M  V30 33 C 0.882025 -2.104033 2.127912 0
M  V30 34 C 0.660684 -2.616873 3.392636 0
M  V30 35 O -0.206742 -3.637945 3.744711 0
M  V30 36 C -0.977111 -4.267250 2.761209 0
M  V30 37 H 1.467126 -2.322458 7.744101 0
M  V30 38 H 1.824926 -0.833617 6.867058 0
M  V30 39 H 3.003272 -2.252412 6.694054 0
M  V30 40 H 2.842861 -0.603106 5.094598 0
M  V30 41 H 1.373712 1.428492 1.268497 0
M  V30 42 H 3.763479 2.474219 -0.061590 0
M  V30 43 H 3.767470 4.240687 -1.699652 0
M  V30 44 H 1.848334 4.688623 -3.057916 0
M  V30 45 H -1.369352 4.026611 -2.521299 0
M  V30 46 H 0.042569 5.484340 -3.553151 0
M  V30 47 H -0.958264 4.664902 -4.834572 0
M  V30 48 H 0.739733 4.182006 -4.684837 0
M  V30 49 H -0.926277 2.342941 -4.715110 0
M  V30 50 H -4.056020 0.763323 -0.549651 0
M  V30 51 H -5.461729 -2.609681 -1.702244 0
M  V30 52 H -6.819977 -1.980308 -2.384172 0
M  V30 53 H -4.266319 -2.303936 -6.318601 0
M  V30 54 H -2.531622 -0.787024 -7.227840 0
M  V30 55 H -1.615796 0.933433 -5.830677 0
M  V30 56 H -0.185118 1.529387 -1.127618 0
M  V30 57 H 0.314417 -2.552115 1.330914 0
M  V30 58 H -1.891681 -4.754992 3.176141 0
M  V30 59 H -1.329386 -3.538191 2.014310 0
M  V30 60 H -0.426556 -5.095289 2.250379 0
M  V30 END ATOM
M  V30 BEGIN BOND
M  V30 1 1 1 2
M  V30 2 1 2 3
M  V30 3 2 3 4
M  V30 4 1 4 5
M  V30 5 1 5 6
M  V30 6 2 5 7
M  V30 7 1 7 8
M  V30 8 2 8 9
M  V30 9 1 8 10
M  V30 10 1 10 11
M  V30 11 2 11 12
M  V30 12 1 12 13
M  V30 13 2 13 14
M  V30 14 1 14 15
M  V30 15 1 15 16
M  V30 16 1 16 17
M  V30 17 1 16 18
M  V30 18 1 18 19
M  V30 19 2 19 20
M  V30 20 1 20 21
M  V30 21 2 21 22
M  V30 22 1 22 23
M  V30 23 2 23 24
M  V30 24 1 24 25
M  V30 25 1 25 26
M  V30 26 2 25 27
M  V30 27 1 24 28
M  V30 28 2 28 29
M  V30 29 1 29 30
M  V30 30 2 30 31
M  V30 31 2 15 32
M  V30 32 1 7 33
M  V30 33 2 33 34
M  V30 34 1 34 35
M  V30 35 1 35 36
M  V30 36 1 34 3
M  V30 37 1 32 11
M  V30 38 1 31 19
M  V30 39 1 31 23
M  V30 40 1 1 37
M  V30 41 1 1 38
M  V30 42 1 1 39
M  V30 43 1 4 40
M  V30 44 1 10 41
M  V30 45 1 12 42
M  V30 46 1 13 43
M  V30 47 1 14 44
M  V30 48 1 16 45 CFG=1
M  V30 49 1 17 46
M  V30 50 1 17 47
M  V30 51 1 17 48
M  V30 52 1 18 49
M  V30 53 1 21 50
M  V30 54 1 26 51
M  V30 55 1 26 52
M  V30 56 1 28 53
M  V30 57 1 29 54
M  V30 58 1 30 55
M  V30 59 1 32 56
M  V30 60 1 33 57
M  V30 61 1 36 58
M  V30 62 1 36 59
M  V30 63 1 36 60
M  V30 END BOND
M  V30 END CTAB
M  END
>  <Dataset>  (379) 
ChEMBL_Kinases

>  <Ligand_Instance>  (379) 
nan

>  <PDB_ID>  (379) 
nan

>  <Standardized_SMILES>  (379) 
COc1cc(Cl)c(C(=O)Nc2cccc([C@@H](C)Nc3ncnc4c(C(N)=O)cccc34)c2)cc1OC

>  <Name>  (379) 
nan

>  <Pocket>  (379) 
nan

>  <ATP_Site>  (379) 
nan

>  <Peripheral>  (379) 
nan

>  <Num_H_Atoms_ProtBoundConf>  (379) 
nan

>  <Num_Resolved_Atoms>  (379) 
nan

>  <Num_Not_Resolved_Atoms>  (379) 
nan

$$$$
CHEMBL3680401
     RDKit          3D

  0  0  0  0  0  0  0  0  0  0999 V3000
M  V30 BEGIN CTAB
M  V30 COUNTS 55 58 0 0 0
M  V30 BEGIN ATOM
M  V30 1 C 3.543416 -3.226619 7.029058 0
M  V30 2 O 3.615677 -1.829451 7.196456 0
M  V30 3 C 2.938108 -0.998744 6.317016 0
M  V30 4 C 3.055687 0.346744 6.542901 0
M  V30 5 C 2.398155 1.222669 5.692654 0
M  V30 6 C 1.645576 0.685543 4.643857 0
M  V30 7 C 0.948176 1.626956 3.741212 0
M  V30 8 O 0.061661 2.524227 3.821940 0
M  V30 9 N 1.465595 1.415159 2.414786 0
M  V30 10 C 1.183355 2.014617 1.155565 0
M  V30 11 C 1.940372 3.131868 0.793492 0
M  V30 12 C 1.710544 3.753650 -0.414301 0
M  V30 13 C 0.749437 3.315035 -1.298349 0
M  V30 14 C -0.004352 2.215245 -0.954653 0
M  V30 15 C -1.115258 1.500743 -1.680540 0 CFG=1
M  V30 16 C -1.189521 1.949291 -3.098451 0
M  V30 17 N -0.940213 0.059300 -1.653138 0
M  V30 18 C -1.886459 -0.869949 -2.205995 0
M  V30 19 N -3.009541 -0.425773 -2.778107 0
M  V30 20 C -3.901794 -1.286829 -3.290841 0
M  V30 21 N -3.713941 -2.614153 -3.255297 0
M  V30 22 C -2.602900 -3.108580 -2.692086 0
M  V30 23 C -2.386338 -4.464585 -2.643095 0
M  V30 24 C -3.388450 -5.331331 -3.212198 0
M  V30 25 N -4.598703 -4.903118 -3.821345 0
M  V30 26 O -3.432804 -6.583886 -3.301587 0
M  V30 27 C -1.266110 -5.032041 -2.078869 0
M  V30 28 C -0.350787 -4.127499 -1.551895 0
M  V30 29 C -0.573591 -2.768765 -1.604024 0
M  V30 30 C -1.694327 -2.229915 -2.169837 0
M  V30 31 C 0.213685 1.575750 0.259036 0
M  V30 32 C 1.544647 -0.689346 4.439243 0
M  V30 33 Cl 0.578100 -1.248309 3.099407 0
M  V30 34 N 2.205892 -1.492338 5.298057 0
M  V30 35 H 3.380751 -3.414284 5.946526 0
M  V30 36 H 2.675382 -3.686075 7.543721 0
M  V30 37 H 4.512749 -3.687538 7.348223 0
M  V30 38 H 3.637611 0.765575 7.354206 0
M  V30 39 H 2.489122 2.283155 5.868204 0
M  V30 40 H 2.202056 0.736530 2.070954 0
M  V30 41 H 2.714091 3.552344 1.412603 0
M  V30 42 H 2.250161 4.630056 -0.782175 0
M  V30 43 H 0.466501 3.699566 -2.265129 0
M  V30 44 H -2.048831 1.811436 -1.160260 0
M  V30 45 H -0.412595 1.510484 -3.745391 0
M  V30 46 H -2.158921 1.621653 -3.525742 0
M  V30 47 H -1.219479 3.065042 -3.169584 0
M  V30 48 H -0.068484 -0.226442 -1.197152 0
M  V30 49 H -4.838792 -1.002471 -3.772263 0
M  V30 50 H -5.378930 -4.298435 -3.472464 0
M  V30 51 H -5.389610 -4.291308 -3.470276 0
M  V30 52 H -1.054434 -6.089061 -2.018172 0
M  V30 53 H 0.540407 -4.550663 -1.101506 0
M  V30 54 H 0.199780 -2.176975 -1.167281 0
M  V30 55 H -0.296446 0.700909 0.670132 0
M  V30 END ATOM
M  V30 BEGIN BOND
M  V30 1 1 1 2
M  V30 2 1 2 3
M  V30 3 2 3 4
M  V30 4 1 4 5
M  V30 5 2 5 6
M  V30 6 1 6 7
M  V30 7 2 7 8
M  V30 8 1 7 9
M  V30 9 1 9 10
M  V30 10 2 10 11
M  V30 11 1 11 12
M  V30 12 2 12 13
M  V30 13 1 13 14
M  V30 14 1 14 15
M  V30 15 1 15 16
M  V30 16 1 15 17
M  V30 17 1 17 18
M  V30 18 2 18 19
M  V30 19 1 19 20
M  V30 20 2 20 21
M  V30 21 1 21 22
M  V30 22 2 22 23
M  V30 23 1 23 24
M  V30 24 1 24 25
M  V30 25 2 24 26
M  V30 26 1 23 27
M  V30 27 2 27 28
M  V30 28 1 28 29
M  V30 29 2 29 30
M  V30 30 2 14 31
M  V30 31 1 6 32
M  V30 32 1 32 33
M  V30 33 2 32 34
M  V30 34 1 34 3
M  V30 35 1 31 10
M  V30 36 1 30 18
M  V30 37 1 30 22
M  V30 38 1 1 35
M  V30 39 1 1 36
M  V30 40 1 1 37
M  V30 41 1 4 38
M  V30 42 1 5 39
M  V30 43 1 9 40
M  V30 44 1 11 41
M  V30 45 1 12 42
M  V30 46 1 13 43
M  V30 47 1 15 44 CFG=1
M  V30 48 1 16 45
M  V30 49 1 16 46
M  V30 50 1 16 47
M  V30 51 1 17 48
M  V30 52 1 20 49
M  V30 53 1 25 50
M  V30 54 1 25 51
M  V30 55 1 27 52
M  V30 56 1 28 53
M  V30 57 1 29 54
M  V30 58 1 31 55
M  V30 END BOND
M  V30 END CTAB
M  END
>  <Dataset>  (380) 
ChEMBL_Kinases

>  <Ligand_Instance>  (380) 
nan

>  <PDB_ID>  (380) 
nan

>  <Standardized_SMILES>  (380) 
COc1ccc(C(=O)Nc2cccc([C@@H](C)Nc3ncnc4c(C(N)=O)cccc34)c2)c(Cl)n1

>  <Name>  (380) 
nan

>  <Pocket>  (380) 
nan

>  <ATP_Site>  (380) 
nan

>  <Peripheral>  (380) 
nan

>  <Num_H_Atoms_ProtBoundConf>  (380) 
nan

>  <Num_Resolved_Atoms>  (380) 
nan

>  <Num_Not_Resolved_Atoms>  (380) 
nan

$$$$
CHEMBL3680695
     RDKit          3D

  0  0  0  0  0  0  0  0  0  0999 V3000
M  V30 BEGIN CTAB
M  V30 COUNTS 62 66 0 0 0
M  V30 BEGIN ATOM
M  V30 1 C 4.429097 0.027350 6.096826 0
M  V30 2 N 5.175913 1.007370 5.299971 0
M  V30 3 C 5.934201 0.275674 4.333040 0
M  V30 4 C 6.069048 1.045113 3.012612 0
M  V30 5 C 4.682669 1.100530 2.474914 0
M  V30 6 C 4.207464 0.723607 1.238645 0
M  V30 7 C 2.863228 0.867904 0.963076 0
M  V30 8 C 1.974503 1.378394 1.885548 0
M  V30 9 N 0.633963 1.448373 1.421723 0
M  V30 10 C -0.119236 2.441743 0.741315 0
M  V30 11 O 0.352599 3.556113 0.403287 0
M  V30 12 C -1.509798 2.162608 0.414844 0
M  V30 13 C -2.202909 3.149512 -0.249378 0
M  V30 14 C -3.544653 3.008202 -0.620821 0
M  V30 15 C -4.210402 1.836488 -0.314271 0
M  V30 16 C -3.531952 0.838429 0.350144 0
M  V30 17 C -4.135032 -0.464640 0.733692 0
M  V30 18 N -3.923183 -1.434565 -0.318107 0
M  V30 19 C -4.600229 -1.545312 -1.556106 0
M  V30 20 O -5.512062 -0.727954 -1.839152 0
M  V30 21 C -4.315349 -2.561640 -2.557357 0
M  V30 22 C -5.030957 -2.569434 -3.729513 0
M  V30 23 C -4.816048 -3.508436 -4.727740 0
M  V30 24 C -3.861888 -4.487914 -4.584799 0
M  V30 25 C -3.124193 -4.501226 -3.407061 0
M  V30 26 C -2.081262 -5.518048 -3.169989 0
M  V30 27 C -1.219816 -6.191005 -4.024785 0
M  V30 28 N -0.465967 -7.019776 -3.265063 0
M  V30 29 N -0.799848 -6.908239 -1.994713 0
M  V30 30 C -1.784339 -5.995728 -1.919254 0
M  V30 31 C -3.365908 -3.551591 -2.437031 0
M  V30 32 C -2.201576 1.009049 0.704871 0
M  V30 33 C 2.444242 1.755198 3.118453 0
M  V30 34 C 3.787723 1.613472 3.400686 0
M  V30 35 C 4.306479 2.022120 4.745171 0
M  V30 36 H 5.014296 -0.254836 7.004482 0
M  V30 37 H 4.301446 -0.926427 5.515368 0
M  V30 38 H 3.421330 0.386471 6.337287 0
M  V30 39 H 6.913924 -0.002054 4.758396 0
M  V30 40 H 5.330586 -0.631490 4.051173 0
M  V30 41 H 6.738790 0.438650 2.372075 0
M  V30 42 H 6.535419 2.023051 3.160509 0
M  V30 43 H 4.979002 0.337602 0.589960 0
M  V30 44 H 2.585331 0.547816 -0.024575 0
M  V30 45 H 0.288730 0.512215 1.721935 0
M  V30 46 H -1.774307 4.102802 -0.535495 0
M  V30 47 H -4.075794 3.781319 -1.136966 0
M  V30 48 H -5.246936 1.687021 -0.580814 0
M  V30 49 H -3.716173 -0.853931 1.681308 0
M  V30 50 H -5.221288 -0.287957 0.881486 0
M  V30 51 H -3.187269 -2.157034 -0.180773 0
M  V30 52 H -5.807764 -1.855461 -3.966349 0
M  V30 53 H -5.381648 -3.521296 -5.663344 0
M  V30 54 H -3.658356 -5.239420 -5.333040 0
M  V30 55 H -1.241309 -6.001284 -5.092423 0
M  V30 56 H -0.400436 -7.415176 -1.166337 0
M  V30 57 H -2.270910 -5.687148 -0.983935 0
M  V30 58 H -2.776220 -3.597575 -1.545311 0
M  V30 59 H -1.657402 0.233253 1.226781 0
M  V30 60 H 1.728663 2.143456 3.799838 0
M  V30 61 H 4.809657 3.008884 4.709293 0
M  V30 62 H 3.462933 2.124566 5.459500 0
M  V30 END ATOM
M  V30 BEGIN BOND
M  V30 1 1 1 2
M  V30 2 1 2 3
M  V30 3 1 3 4
M  V30 4 1 4 5
M  V30 5 2 5 6
M  V30 6 1 6 7
M  V30 7 2 7 8
M  V30 8 1 8 9
M  V30 9 1 9 10
M  V30 10 2 10 11
M  V30 11 1 10 12
M  V30 12 2 12 13
M  V30 13 1 13 14
M  V30 14 2 14 15
M  V30 15 1 15 16
M  V30 16 1 16 17
M  V30 17 1 17 18
M  V30 18 1 18 19
M  V30 19 2 19 20
M  V30 20 1 19 21
M  V30 21 2 21 22
M  V30 22 1 22 23
M  V30 23 2 23 24
M  V30 24 1 24 25
M  V30 25 1 25 26
M  V30 26 1 26 27
M  V30 27 2 27 28
M  V30 28 1 28 29
M  V30 29 1 29 30
M  V30 30 2 25 31
M  V30 31 2 16 32
M  V30 32 1 8 33
M  V30 33 2 33 34
M  V30 34 1 34 35
M  V30 35 1 35 2
M  V30 36 1 34 5
M  V30 37 1 32 12
M  V30 38 1 31 21
M  V30 39 2 30 26
M  V30 40 1 1 36
M  V30 41 1 1 37
M  V30 42 1 1 38
M  V30 43 1 3 39
M  V30 44 1 3 40
M  V30 45 1 4 41
M  V30 46 1 4 42
M  V30 47 1 6 43
M  V30 48 1 7 44
M  V30 49 1 9 45
M  V30 50 1 13 46
M  V30 51 1 14 47
M  V30 52 1 15 48
M  V30 53 1 17 49
M  V30 54 1 17 50
M  V30 55 1 18 51
M  V30 56 1 22 52
M  V30 57 1 23 53
M  V30 58 1 24 54
M  V30 59 1 27 55
M  V30 60 1 29 56
M  V30 61 1 30 57
M  V30 62 1 31 58
M  V30 63 1 32 59
M  V30 64 1 33 60
M  V30 65 1 35 61
M  V30 66 1 35 62
M  V30 END BOND
M  V30 END CTAB
M  END
>  <Dataset>  (381) 
ChEMBL_Kinases

>  <Ligand_Instance>  (381) 
nan

>  <PDB_ID>  (381) 
nan

>  <Standardized_SMILES>  (381) 
CN1CCc2ccc(NC(=O)c3cccc(CNC(=O)c4cccc(-c5cn[nH]c5)c4)c3)cc2C1

>  <Name>  (381) 
nan

>  <Pocket>  (381) 
nan

>  <ATP_Site>  (381) 
nan

>  <Peripheral>  (381) 
nan

>  <Num_H_Atoms_ProtBoundConf>  (381) 
nan

>  <Num_Resolved_Atoms>  (381) 
nan

>  <Num_Not_Resolved_Atoms>  (381) 
nan

$$$$
CHEMBL3680694
     RDKit          3D

  0  0  0  0  0  0  0  0  0  0999 V3000
M  V30 BEGIN CTAB
M  V30 COUNTS 58 62 0 0 0
M  V30 BEGIN ATOM
M  V30 1 C 8.412743 0.093673 4.714318 0
M  V30 2 N 7.186689 0.104299 3.993124 0
M  V30 3 C 7.053727 -0.927704 3.013809 0
M  V30 4 C 6.761739 -0.410555 1.627521 0
M  V30 5 C 5.513305 0.430995 1.717071 0
M  V30 6 N 4.442377 0.362788 0.954420 0
M  V30 7 C 3.467565 1.068101 1.075165 0
M  V30 8 N 2.193077 1.277063 0.473426 0
M  V30 9 C 1.248676 2.227865 0.883240 0
M  V30 10 O 1.517802 2.979672 1.868778 0
M  V30 11 C -0.048587 2.417338 0.243318 0
M  V30 12 C -0.894331 3.386556 0.768833 0
M  V30 13 C -2.130651 3.576277 0.164350 0
M  V30 14 C -2.527801 2.833466 -0.929151 0
M  V30 15 C -1.712759 1.864520 -1.474512 0
M  V30 16 C -1.977694 0.987330 -2.631300 0
M  V30 17 N -2.593279 -0.261578 -2.306814 0
M  V30 18 C -3.959407 -0.477840 -1.982686 0
M  V30 19 O -4.666235 0.555729 -1.991797 0
M  V30 20 C -4.529331 -1.777666 -1.660924 0
M  V30 21 C -5.865150 -1.829611 -1.367576 0
M  V30 22 C -6.427639 -3.049888 -1.060985 0
M  V30 23 C -5.708087 -4.226142 -1.034939 0
M  V30 24 N -6.213674 -5.511549 -0.730798 0
M  V30 25 C -7.047478 -6.434579 -1.241003 0
M  V30 26 C -7.093964 -7.513916 -0.399309 0
M  V30 27 N -6.278780 -7.261016 0.649445 0
M  V30 28 C -5.751194 -6.045143 0.437497 0
M  V30 29 C -4.351421 -4.130903 -1.339322 0
M  V30 30 C -3.782427 -2.922460 -1.645581 0
M  V30 31 C -0.475996 1.695672 -0.846228 0
M  V30 32 S 3.947290 2.136177 2.518677 0
M  V30 33 C 5.540752 1.372752 2.734990 0
M  V30 34 C 6.765133 1.402318 3.559632 0
M  V30 35 H 8.808434 1.148144 4.787934 0
M  V30 36 H 9.162943 -0.613365 4.309134 0
M  V30 37 H 8.199381 -0.194869 5.763113 0
M  V30 38 H 6.281433 -1.667233 3.303017 0
M  V30 39 H 8.014328 -1.481032 2.963718 0
M  V30 40 H 7.552662 0.274436 1.299081 0
M  V30 41 H 6.632362 -1.295038 0.985079 0
M  V30 42 H 2.012582 0.652500 -0.314489 0
M  V30 43 H -0.638283 3.988063 1.610336 0
M  V30 44 H -2.841727 4.305833 0.511016 0
M  V30 45 H -3.480696 2.956377 -1.423809 0
M  V30 46 H -2.658079 1.567218 -3.325477 0
M  V30 47 H -1.030261 0.872885 -3.190191 0
M  V30 48 H -1.949974 -1.096353 -2.314181 0
M  V30 49 H -6.520224 -0.951043 -1.361884 0
M  V30 50 H -7.483996 -3.194956 -0.812973 0
M  V30 51 H -7.509925 -6.156522 -2.193607 0
M  V30 52 H -7.721890 -8.338344 -0.673842 0
M  V30 53 H -5.067634 -5.713868 1.216192 0
M  V30 54 H -3.739491 -5.033212 -1.332585 0
M  V30 55 H -2.736129 -2.919711 -1.869365 0
M  V30 56 H 0.214073 0.969021 -1.202829 0
M  V30 57 H 6.653288 2.048516 4.452654 0
M  V30 58 H 7.576440 1.842663 2.946534 0
M  V30 END ATOM
M  V30 BEGIN BOND
M  V30 1 1 1 2
M  V30 2 1 2 3
M  V30 3 1 3 4
M  V30 4 1 4 5
M  V30 5 1 5 6
M  V30 6 2 6 7
M  V30 7 1 7 8
M  V30 8 1 8 9
M  V30 9 2 9 10
M  V30 10 1 9 11
M  V30 11 2 11 12
M  V30 12 1 12 13
M  V30 13 2 13 14
M  V30 14 1 14 15
M  V30 15 1 15 16
M  V30 16 1 16 17
M  V30 17 1 17 18
M  V30 18 2 18 19
M  V30 19 1 18 20
M  V30 20 2 20 21
M  V30 21 1 21 22
M  V30 22 2 22 23
M  V30 23 1 23 24
M  V30 24 1 24 25
M  V30 25 2 25 26
M  V30 26 1 26 27
M  V30 27 2 27 28
M  V30 28 1 23 29
M  V30 29 2 29 30
M  V30 30 2 15 31
M  V30 31 1 7 32
M  V30 32 1 32 33
M  V30 33 1 33 34
M  V30 34 1 34 2
M  V30 35 2 33 5
M  V30 36 1 31 11
M  V30 37 1 30 20
M  V30 38 1 28 24
M  V30 39 1 1 35
M  V30 40 1 1 36
M  V30 41 1 1 37
M  V30 42 1 3 38
M  V30 43 1 3 39
M  V30 44 1 4 40
M  V30 45 1 4 41
M  V30 46 1 8 42
M  V30 47 1 12 43
M  V30 48 1 13 44
M  V30 49 1 14 45
M  V30 50 1 16 46
M  V30 51 1 16 47
M  V30 52 1 17 48
M  V30 53 1 21 49
M  V30 54 1 22 50
M  V30 55 1 25 51
M  V30 56 1 26 52
M  V30 57 1 28 53
M  V30 58 1 29 54
M  V30 59 1 30 55
M  V30 60 1 31 56
M  V30 61 1 34 57
M  V30 62 1 34 58
M  V30 END BOND
M  V30 END CTAB
M  END
>  <Dataset>  (382) 
ChEMBL_Kinases

>  <Ligand_Instance>  (382) 
nan

>  <PDB_ID>  (382) 
nan

>  <Standardized_SMILES>  (382) 
CN1CCc2nc(NC(=O)c3cccc(CNC(=O)c4ccc(-n5ccnc5)cc4)c3)sc2C1

>  <Name>  (382) 
nan

>  <Pocket>  (382) 
nan

>  <ATP_Site>  (382) 
nan

>  <Peripheral>  (382) 
nan

>  <Num_H_Atoms_ProtBoundConf>  (382) 
nan

>  <Num_Resolved_Atoms>  (382) 
nan

>  <Num_Not_Resolved_Atoms>  (382) 
nan

$$$$
CHEMBL3680618
     RDKit          3D

  0  0  0  0  0  0  0  0  0  0999 V3000
M  V30 BEGIN CTAB
M  V30 COUNTS 62 65 0 0 0
M  V30 BEGIN ATOM
M  V30 1 O -2.546437 -0.992245 -0.780213 0
M  V30 2 C -1.830411 -1.274424 0.211001 0
M  V30 3 C -0.690947 -0.551798 0.505302 0
M  V30 4 C 0.093387 -0.864893 1.595735 0
M  V30 5 C 1.285823 -0.070011 1.861113 0
M  V30 6 C 2.116472 -0.323432 2.930920 0
M  V30 7 C 3.187838 0.507833 3.040743 0
M  V30 8 N 3.441075 1.511392 2.181693 0
M  V30 9 C 2.622251 1.747910 1.141820 0
M  V30 10 N 2.824769 2.787922 0.195745 0
M  V30 11 C 3.935053 3.717949 0.243305 0
M  V30 12 C 3.867915 4.483357 1.511592 0
M  V30 13 C 2.854493 5.615234 1.288127 0
M  V30 14 O 3.428442 6.437575 0.349535 0
M  V30 15 C 3.483901 5.907537 -0.930551 0
M  V30 16 C 4.036610 4.524227 -0.996374 0
M  V30 17 N 1.585223 0.930966 1.048953 0
M  V30 18 C -0.326399 -1.930521 2.363211 0
M  V30 19 C -1.484198 -2.641203 2.038346 0
M  V30 20 N -2.236379 -2.313881 0.962771 0
M  V30 21 C -3.402408 -3.136496 0.751385 0 CFG=2
M  V30 22 C -3.065959 -4.599943 0.661093 0
M  V30 23 O -2.204609 -4.950825 -0.336138 0
M  V30 24 C -1.883818 -6.278884 -0.436752 0
M  V30 25 O -1.274376 -6.756132 0.730974 0
M  V30 26 P 0.143626 -5.923665 1.062283 0
M  V30 27 O 0.200082 -4.702852 0.177428 0
M  V30 28 O 0.189277 -5.423713 2.671760 0
M  V30 29 O 1.491533 -6.921301 0.730942 0
M  V30 30 C -4.171491 -2.746465 -0.447881 0
M  V30 31 C -5.247090 -1.864488 -0.262748 0
M  V30 32 C -6.094312 -1.368741 -1.230415 0
M  V30 33 C -5.862135 -1.783031 -2.523001 0
M  V30 34 Cl -6.865439 -1.226818 -3.840405 0
M  V30 35 C -4.830300 -2.642183 -2.774371 0
M  V30 36 F -4.558203 -3.083586 -4.041935 0
M  V30 37 C -4.023708 -3.098823 -1.768069 0
M  V30 38 H -0.402239 0.270556 -0.120331 0
M  V30 39 H 1.920745 -1.115040 3.612269 0
M  V30 40 H 3.896555 0.370440 3.867506 0
M  V30 41 H 2.148723 2.901153 -0.578318 0
M  V30 42 H 4.846855 3.057410 0.316964 0
M  V30 43 H 4.862250 4.967549 1.670743 0
M  V30 44 H 3.575289 3.869333 2.365056 0
M  V30 45 H 1.906364 5.145618 0.955826 0
M  V30 46 H 2.723635 6.209013 2.211698 0
M  V30 47 H 4.063986 6.625046 -1.548878 0
M  V30 48 H 2.437399 5.951878 -1.328106 0
M  V30 49 H 3.537965 3.975142 -1.822194 0
M  V30 50 H 5.112529 4.619654 -1.316276 0
M  V30 51 H 0.247989 -2.205069 3.211740 0
M  V30 52 H -1.732691 -3.457272 2.696149 0
M  V30 53 H -4.046764 -2.968485 1.658292 0
M  V30 54 H -4.018363 -5.177182 0.499478 0
M  V30 55 H -2.712669 -4.925923 1.679934 0
M  V30 56 H -2.727167 -6.931531 -0.705343 0
M  V30 57 H -1.080953 -6.349218 -1.219742 0
M  V30 58 H 0.721732 -6.037154 3.244981 0
M  V30 59 H 2.291205 -6.336613 0.649389 0
M  V30 60 H -5.458877 -1.515248 0.758440 0
M  V30 61 H -6.890723 -0.694176 -0.972986 0
M  V30 62 H -3.213108 -3.773668 -1.989506 0
M  V30 END ATOM
M  V30 BEGIN BOND
M  V30 1 2 1 2
M  V30 2 1 2 3
M  V30 3 2 3 4
M  V30 4 1 4 5
M  V30 5 2 5 6
M  V30 6 1 6 7
M  V30 7 2 7 8
M  V30 8 1 8 9
M  V30 9 1 9 10
M  V30 10 1 10 11
M  V30 11 1 11 12
M  V30 12 1 12 13
M  V30 13 1 13 14
M  V30 14 1 14 15
M  V30 15 1 15 16
M  V30 16 2 9 17
M  V30 17 1 4 18
M  V30 18 2 18 19
M  V30 19 1 19 20
M  V30 20 1 20 21
M  V30 21 1 21 22
M  V30 22 1 22 23
M  V30 23 1 23 24
M  V30 24 1 24 25
M  V30 25 1 25 26
M  V30 26 2 26 27
M  V30 27 1 26 28
M  V30 28 1 26 29
M  V30 29 1 21 30
M  V30 30 2 30 31
M  V30 31 1 31 32
M  V30 32 2 32 33
M  V30 33 1 33 34
M  V30 34 1 33 35
M  V30 35 1 35 36
M  V30 36 2 35 37
M  V30 37 1 20 2
M  V30 38 1 37 30
M  V30 39 1 17 5
M  V30 40 1 16 11
M  V30 41 1 3 38
M  V30 42 1 6 39
M  V30 43 1 7 40
M  V30 44 1 10 41
M  V30 45 1 11 42
M  V30 46 1 12 43
M  V30 47 1 12 44
M  V30 48 1 13 45
M  V30 49 1 13 46
M  V30 50 1 15 47
M  V30 51 1 15 48
M  V30 52 1 16 49
M  V30 53 1 16 50
M  V30 54 1 18 51
M  V30 55 1 19 52
M  V30 56 1 21 53 CFG=1
M  V30 57 1 22 54
M  V30 58 1 22 55
M  V30 59 1 24 56
M  V30 60 1 24 57
M  V30 61 1 28 58
M  V30 62 1 29 59
M  V30 63 1 31 60
M  V30 64 1 32 61
M  V30 65 1 37 62
M  V30 END BOND
M  V30 END CTAB
M  END
>  <Dataset>  (383) 
ChEMBL_Kinases

>  <Ligand_Instance>  (383) 
nan

>  <PDB_ID>  (383) 
nan

>  <Standardized_SMILES>  (383) 
O=c1cc(-c2ccnc(NC3CCOCC3)n2)ccn1[C@H](COCOP(=O)(O)O)c1ccc(Cl)c(F)c1

>  <Name>  (383) 
nan

>  <Pocket>  (383) 
nan

>  <ATP_Site>  (383) 
nan

>  <Peripheral>  (383) 
nan

>  <Num_H_Atoms_ProtBoundConf>  (383) 
nan

>  <Num_Resolved_Atoms>  (383) 
nan

>  <Num_Not_Resolved_Atoms>  (383) 
nan

$$$$
CHEMBL3680617
     RDKit          3D

  0  0  0  0  0  0  0  0  0  0999 V3000
M  V30 BEGIN CTAB
M  V30 COUNTS 58 61 0 0 0
M  V30 BEGIN ATOM
M  V30 1 O -2.306546 -3.629553 2.670098 0
M  V30 2 C -1.736231 -2.837880 1.865969 0
M  V30 3 C -0.917891 -1.839512 2.352336 0
M  V30 4 C -0.268256 -0.945554 1.529605 0
M  V30 5 C 0.604187 0.122995 1.998726 0
M  V30 6 C 0.844223 0.315293 3.340460 0
M  V30 7 C 1.686244 1.357755 3.660381 0
M  V30 8 N 2.227929 2.125056 2.713520 0
M  V30 9 C 2.002589 1.948794 1.403090 0
M  V30 10 N 2.576160 2.762401 0.388309 0
M  V30 11 C 3.465758 3.878986 0.665892 0
M  V30 12 C 4.673796 3.446987 1.436944 0
M  V30 13 C 5.023857 4.437322 2.534579 0
M  V30 14 O 3.934192 4.679690 3.333986 0
M  V30 15 C 2.854285 5.235186 2.718004 0
M  V30 16 C 2.691821 5.000216 1.258484 0
M  V30 17 N 1.182051 0.932457 1.096950 0
M  V30 18 C -0.501096 -1.128262 0.183064 0
M  V30 19 C -1.319207 -2.123588 -0.336116 0
M  V30 20 N -1.934728 -2.977561 0.526335 0
M  V30 21 C -2.785539 -4.012174 -0.019273 0 CFG=2
M  V30 22 C -1.966030 -5.226526 -0.326981 0
M  V30 23 O -0.961984 -5.012980 -1.237370 0
M  V30 24 P -0.057361 -6.396594 -1.563564 0
M  V30 25 O -0.790173 -7.661970 -1.235103 0
M  V30 26 O 0.344746 -6.326263 -3.220806 0
M  V30 27 O 1.397278 -6.272817 -0.705888 0
M  V30 28 C -3.678421 -3.566524 -1.091743 0
M  V30 29 C -3.368801 -3.575414 -2.433999 0
M  V30 30 C -4.248212 -3.142635 -3.417554 0
M  V30 31 C -5.499174 -2.675890 -3.064528 0
M  V30 32 Cl -6.676120 -2.109382 -4.231538 0
M  V30 33 C -5.859922 -2.645345 -1.738178 0
M  V30 34 F -7.085911 -2.192608 -1.337084 0
M  V30 35 C -4.961144 -3.080529 -0.816842 0
M  V30 36 H -0.790369 -1.766680 3.414105 0
M  V30 37 H 0.417583 -0.290342 4.101724 0
M  V30 38 H 1.918813 1.564525 4.716431 0
M  V30 39 H 2.317383 2.510203 -0.610015 0
M  V30 40 H 3.829014 4.235105 -0.352816 0
M  V30 41 H 5.521295 3.305788 0.747683 0
M  V30 42 H 4.482106 2.441895 1.877742 0
M  V30 43 H 5.491898 5.348555 2.124554 0
M  V30 44 H 5.795914 3.959104 3.170293 0
M  V30 45 H 2.781501 6.343158 2.878204 0
M  V30 46 H 1.936771 4.842492 3.246586 0
M  V30 47 H 1.603072 4.822942 0.996763 0
M  V30 48 H 2.910624 5.945501 0.662079 0
M  V30 49 H -0.009480 -0.444836 -0.521930 0
M  V30 50 H -1.426400 -2.169583 -1.410499 0
M  V30 51 H -3.461064 -4.317159 0.833746 0
M  V30 52 H -1.478827 -5.528838 0.629494 0
M  V30 53 H -2.650979 -6.052011 -0.600512 0
M  V30 54 H -0.378809 -5.833970 -3.718102 0
M  V30 55 H 1.989411 -5.672790 -1.222372 0
M  V30 56 H -2.395984 -3.936014 -2.736433 0
M  V30 57 H -3.985128 -3.156965 -4.478325 0
M  V30 58 H -5.260109 -3.051506 0.238696 0
M  V30 END ATOM
M  V30 BEGIN BOND
M  V30 1 2 1 2
M  V30 2 1 2 3
M  V30 3 2 3 4
M  V30 4 1 4 5
M  V30 5 2 5 6
M  V30 6 1 6 7
M  V30 7 2 7 8
M  V30 8 1 8 9
M  V30 9 1 9 10
M  V30 10 1 10 11
M  V30 11 1 11 12
M  V30 12 1 12 13
M  V30 13 1 13 14
M  V30 14 1 14 15
M  V30 15 1 15 16
M  V30 16 2 9 17
M  V30 17 1 4 18
M  V30 18 2 18 19
M  V30 19 1 19 20
M  V30 20 1 20 21
M  V30 21 1 21 22
M  V30 22 1 22 23
M  V30 23 1 23 24
M  V30 24 2 24 25
M  V30 25 1 24 26
M  V30 26 1 24 27
M  V30 27 1 21 28
M  V30 28 2 28 29
M  V30 29 1 29 30
M  V30 30 2 30 31
M  V30 31 1 31 32
M  V30 32 1 31 33
M  V30 33 1 33 34
M  V30 34 2 33 35
M  V30 35 1 20 2
M  V30 36 1 35 28
M  V30 37 1 17 5
M  V30 38 1 16 11
M  V30 39 1 3 36
M  V30 40 1 6 37
M  V30 41 1 7 38
M  V30 42 1 10 39
M  V30 43 1 11 40
M  V30 44 1 12 41
M  V30 45 1 12 42
M  V30 46 1 13 43
M  V30 47 1 13 44
M  V30 48 1 15 45
M  V30 49 1 15 46
M  V30 50 1 16 47
M  V30 51 1 16 48
M  V30 52 1 18 49
M  V30 53 1 19 50
M  V30 54 1 21 51 CFG=1
M  V30 55 1 22 52
M  V30 56 1 22 53
M  V30 57 1 26 54
M  V30 58 1 27 55
M  V30 59 1 29 56
M  V30 60 1 30 57
M  V30 61 1 35 58
M  V30 END BOND
M  V30 END CTAB
M  END
>  <Dataset>  (384) 
ChEMBL_Kinases

>  <Ligand_Instance>  (384) 
nan

>  <PDB_ID>  (384) 
nan

>  <Standardized_SMILES>  (384) 
O=c1cc(-c2ccnc(NC3CCOCC3)n2)ccn1[C@H](COP(=O)(O)O)c1ccc(Cl)c(F)c1

>  <Name>  (384) 
nan

>  <Pocket>  (384) 
nan

>  <ATP_Site>  (384) 
nan

>  <Peripheral>  (384) 
nan

>  <Num_H_Atoms_ProtBoundConf>  (384) 
nan

>  <Num_Resolved_Atoms>  (384) 
nan

>  <Num_Not_Resolved_Atoms>  (384) 
nan

$$$$
CHEMBL3680616
     RDKit          3D

  0  0  0  0  0  0  0  0  0  0999 V3000
M  V30 BEGIN CTAB
M  V30 COUNTS 54 57 0 0 0
M  V30 BEGIN ATOM
M  V30 1 N 3.085087 -1.294654 3.590464 0
M  V30 2 C 3.448127 -1.946680 2.351592 0
M  V30 3 C 3.384757 -1.006838 1.177589 0 CFG=2
M  V30 4 C 4.265257 0.145565 1.249401 0
M  V30 5 C 4.775787 0.868093 2.295539 0
M  V30 6 C 5.609691 1.951146 2.150453 0
M  V30 7 C 5.983373 2.374946 0.911150 0
M  V30 8 Cl 7.047473 3.764647 0.872252 0
M  V30 9 C 5.503457 1.689798 -0.185513 0
M  V30 10 F 5.900088 2.145232 -1.393210 0
M  V30 11 C 4.670021 0.609998 0.009964 0
M  V30 12 N 1.971614 -0.617029 1.019723 0
M  V30 13 C 1.626628 0.618712 1.423443 0
M  V30 14 C 0.316162 1.036989 1.299108 0
M  V30 15 C -0.670623 0.231044 0.770858 0
M  V30 16 C -2.068914 0.606268 0.611473 0
M  V30 17 C -2.514263 1.851135 0.999769 0
M  V30 18 C -3.846234 2.163004 0.831635 0
M  V30 19 N -4.648397 1.240373 0.297602 0
M  V30 20 C -4.244349 0.011328 -0.093541 0
M  V30 21 N -5.147443 -0.915371 -0.651424 0
M  V30 22 C -4.815612 -2.244614 -1.097696 0
M  V30 23 C -4.267171 -3.064140 0.048520 0
M  V30 24 C -3.782544 -4.418483 -0.420618 0
M  V30 25 O -3.645022 -4.451816 -1.811247 0
M  V30 26 C -2.960693 -3.333321 -2.266522 0
M  V30 27 C -3.930908 -2.177116 -2.295226 0
M  V30 28 N -2.938365 -0.251327 0.088120 0
M  V30 29 C -0.241973 -1.022073 0.378707 0
M  V30 30 C 1.068479 -1.467564 0.492477 0
M  V30 31 O 1.436373 -2.609376 0.130185 0
M  V30 32 H 2.359158 -0.575661 3.471961 0
M  V30 33 H 2.729746 -1.958958 4.306543 0
M  V30 34 H 2.619909 -2.693638 2.170936 0
M  V30 35 H 4.414187 -2.479023 2.422427 0
M  V30 36 H 3.574805 -1.651340 0.274328 0
M  V30 37 H 4.478038 0.529851 3.274942 0
M  V30 38 H 5.936870 2.427801 3.080476 0
M  V30 39 H 4.368651 0.165629 -0.948044 0
M  V30 40 H 2.340884 1.317494 1.850540 0
M  V30 41 H 0.052826 2.024087 1.624270 0
M  V30 42 H -1.876996 2.605905 1.432512 0
M  V30 43 H -4.225614 3.143982 1.131475 0
M  V30 44 H -6.160208 -0.606358 -0.751331 0
M  V30 45 H -5.745437 -2.795208 -1.432279 0
M  V30 46 H -5.103727 -3.242332 0.754624 0
M  V30 47 H -3.492265 -2.500705 0.594195 0
M  V30 48 H -2.770980 -4.576093 0.005013 0
M  V30 49 H -4.413439 -5.260264 -0.084944 0
M  V30 50 H -2.552989 -3.547301 -3.277663 0
M  V30 51 H -2.122755 -3.138087 -1.566361 0
M  V30 52 H -3.409952 -1.206328 -2.411474 0
M  V30 53 H -4.509675 -2.297027 -3.256475 0
M  V30 54 H -0.969941 -1.697755 -0.041996 0
M  V30 END ATOM
M  V30 BEGIN BOND
M  V30 1 1 1 2
M  V30 2 1 2 3
M  V30 3 1 3 4
M  V30 4 2 4 5
M  V30 5 1 5 6
M  V30 6 2 6 7
M  V30 7 1 7 8
M  V30 8 1 7 9
M  V30 9 1 9 10
M  V30 10 2 9 11
M  V30 11 1 3 12
M  V30 12 1 12 13
M  V30 13 2 13 14
M  V30 14 1 14 15
M  V30 15 1 15 16
M  V30 16 2 16 17
M  V30 17 1 17 18
M  V30 18 2 18 19
M  V30 19 1 19 20
M  V30 20 1 20 21
M  V30 21 1 21 22
M  V30 22 1 22 23
M  V30 23 1 23 24
M  V30 24 1 24 25
M  V30 25 1 25 26
M  V30 26 1 26 27
M  V30 27 2 20 28
M  V30 28 2 15 29
M  V30 29 1 29 30
M  V30 30 2 30 31
M  V30 31 1 11 4
M  V30 32 1 30 12
M  V30 33 1 28 16
M  V30 34 1 27 22
M  V30 35 1 1 32
M  V30 36 1 1 33
M  V30 37 1 2 34
M  V30 38 1 2 35
M  V30 39 1 3 36 CFG=3
M  V30 40 1 5 37
M  V30 41 1 6 38
M  V30 42 1 11 39
M  V30 43 1 13 40
M  V30 44 1 14 41
M  V30 45 1 17 42
M  V30 46 1 18 43
M  V30 47 1 21 44
M  V30 48 1 22 45
M  V30 49 1 23 46
M  V30 50 1 23 47
M  V30 51 1 24 48
M  V30 52 1 24 49
M  V30 53 1 26 50
M  V30 54 1 26 51
M  V30 55 1 27 52
M  V30 56 1 27 53
M  V30 57 1 29 54
M  V30 END BOND
M  V30 END CTAB
M  END
>  <Dataset>  (385) 
ChEMBL_Kinases

>  <Ligand_Instance>  (385) 
nan

>  <PDB_ID>  (385) 
nan

>  <Standardized_SMILES>  (385) 
NC[C@H](c1ccc(Cl)c(F)c1)n1ccc(-c2ccnc(NC3CCOCC3)n2)cc1=O

>  <Name>  (385) 
nan

>  <Pocket>  (385) 
nan

>  <ATP_Site>  (385) 
nan

>  <Peripheral>  (385) 
nan

>  <Num_H_Atoms_ProtBoundConf>  (385) 
nan

>  <Num_Resolved_Atoms>  (385) 
nan

>  <Num_Not_Resolved_Atoms>  (385) 
nan

$$$$
CHEMBL3680615
     RDKit          3D

  0  0  0  0  0  0  0  0  0  0999 V3000
M  V30 BEGIN CTAB
M  V30 COUNTS 49 52 0 0 0
M  V30 BEGIN ATOM
M  V30 1 C 1.730275 2.235004 -2.833265 0
M  V30 2 C 2.093775 1.054158 -2.364246 0
M  V30 3 C 2.925923 0.269298 -3.224526 0
M  V30 4 C 3.714130 -0.824840 -2.972345 0
M  V30 5 C 4.423755 -1.597906 -3.855470 0
M  V30 6 C 4.319236 -1.204326 -5.168741 0
M  V30 7 Cl 5.192370 -2.136608 -6.371354 0
M  V30 8 C 3.564067 -0.123657 -5.558190 0
M  V30 9 F 3.536632 0.169293 -6.874322 0
M  V30 10 C 2.895734 0.576476 -4.590539 0
M  V30 11 N 1.501287 0.944878 -1.098496 0
M  V30 12 C 1.041546 2.037892 -0.477179 0
M  V30 13 C 0.391569 1.970144 0.762190 0
M  V30 14 C 0.193538 0.788197 1.398977 0
M  V30 15 C -0.472342 0.644680 2.689212 0
M  V30 16 C -0.971725 1.716275 3.395598 0
M  V30 17 C -1.598355 1.570653 4.612571 0
M  V30 18 N -1.724728 0.333378 5.125953 0
M  V30 19 C -1.242984 -0.756161 4.456886 0
M  V30 20 N -1.331130 -2.095717 4.920255 0
M  V30 21 C -2.256887 -3.165164 4.774085 0
M  V30 22 C -2.078636 -4.407318 5.367166 0
M  V30 23 C -3.186467 -5.094699 4.959095 0
M  V30 24 N -3.956889 -4.313685 4.184357 0
M  V30 25 N -3.392809 -3.102326 4.056248 0
M  V30 26 C -3.964972 -2.032222 3.287163 0
M  V30 27 C -3.480606 -2.082052 1.850729 0
M  V30 28 N -0.644541 -0.532009 3.275770 0
M  V30 29 C 0.650993 -0.356691 0.790260 0
M  V30 30 C 1.273584 -0.187607 -0.421920 0
M  V30 31 O 1.655775 -1.262067 -0.926489 0
M  V30 32 H 1.863961 2.840225 -3.708759 0
M  V30 33 H 1.865613 2.838265 -3.710061 0
M  V30 34 H 3.864537 -1.134184 -1.950127 0
M  V30 35 H 5.015575 -2.443209 -3.559349 0
M  V30 36 H 2.332425 1.405644 -5.035495 0
M  V30 37 H 1.112935 3.060791 -0.832765 0
M  V30 38 H 0.028326 2.864647 1.247042 0
M  V30 39 H -0.896196 2.726712 3.028782 0
M  V30 40 H -1.988432 2.416018 5.162386 0
M  V30 41 H -0.455609 -2.179488 5.480584 0
M  V30 42 H -1.254959 -4.693375 5.981413 0
M  V30 43 H -3.399574 -6.132761 5.233773 0
M  V30 44 H -5.069626 -2.161233 3.276429 0
M  V30 45 H -3.666975 -1.034193 3.662182 0
M  V30 46 H -2.377950 -2.202253 1.847392 0
M  V30 47 H -3.705098 -1.104439 1.387753 0
M  V30 48 H -3.985908 -2.897050 1.293957 0
M  V30 49 H 0.508736 -1.312836 1.271031 0
M  V30 END ATOM
M  V30 BEGIN BOND
M  V30 1 2 1 2
M  V30 2 1 2 3
M  V30 3 2 3 4
M  V30 4 1 4 5
M  V30 5 2 5 6
M  V30 6 1 6 7
M  V30 7 1 6 8
M  V30 8 1 8 9
M  V30 9 2 8 10
M  V30 10 1 2 11
M  V30 11 1 11 12
M  V30 12 2 12 13
M  V30 13 1 13 14
M  V30 14 1 14 15
M  V30 15 2 15 16
M  V30 16 1 16 17
M  V30 17 2 17 18
M  V30 18 1 18 19
M  V30 19 1 19 20
M  V30 20 1 20 21
M  V30 21 2 21 22
M  V30 22 1 22 23
M  V30 23 2 23 24
M  V30 24 1 24 25
M  V30 25 1 25 26
M  V30 26 1 26 27
M  V30 27 2 19 28
M  V30 28 2 14 29
M  V30 29 1 29 30
M  V30 30 2 30 31
M  V30 31 1 10 3
M  V30 32 1 30 11
M  V30 33 1 28 15
M  V30 34 1 25 21
M  V30 35 1 1 32
M  V30 36 1 1 33
M  V30 37 1 4 34
M  V30 38 1 5 35
M  V30 39 1 10 36
M  V30 40 1 12 37
M  V30 41 1 13 38
M  V30 42 1 16 39
M  V30 43 1 17 40
M  V30 44 1 20 41
M  V30 45 1 22 42
M  V30 46 1 23 43
M  V30 47 1 26 44
M  V30 48 1 26 45
M  V30 49 1 27 46
M  V30 50 1 27 47
M  V30 51 1 27 48
M  V30 52 1 29 49
M  V30 END BOND
M  V30 END CTAB
M  END
>  <Dataset>  (386) 
ChEMBL_Kinases

>  <Ligand_Instance>  (386) 
nan

>  <PDB_ID>  (386) 
nan

>  <Standardized_SMILES>  (386) 
C=C(c1ccc(Cl)c(F)c1)n1ccc(-c2ccnc(Nc3ccnn3CC)n2)cc1=O

>  <Name>  (386) 
nan

>  <Pocket>  (386) 
nan

>  <ATP_Site>  (386) 
nan

>  <Peripheral>  (386) 
nan

>  <Num_H_Atoms_ProtBoundConf>  (386) 
nan

>  <Num_Resolved_Atoms>  (386) 
nan

>  <Num_Not_Resolved_Atoms>  (386) 
nan

$$$$
CHEMBL3680614
     RDKit          3D

  0  0  0  0  0  0  0  0  0  0999 V3000
M  V30 BEGIN CTAB
M  V30 COUNTS 54 57 0 0 0
M  V30 BEGIN ATOM
M  V30 1 C 4.866844 -1.422199 0.740556 0
M  V30 2 C 4.408322 -0.019612 0.455955 0
M  V30 3 O 4.698340 0.803301 -0.432833 0
M  V30 4 O 3.471345 0.360462 1.423067 0
M  V30 5 C 2.823150 1.576576 1.493978 0
M  V30 6 C 1.872346 1.972867 0.429124 0 CFG=2
M  V30 7 C 1.333196 3.368060 0.682242 0
M  V30 8 C 0.965641 3.833794 1.934301 0
M  V30 9 C 0.497433 5.099502 2.186574 0
M  V30 10 C 0.387765 5.966448 1.110247 0
M  V30 11 Cl -0.200431 7.585587 1.378888 0
M  V30 12 C 0.735375 5.566097 -0.153622 0
M  V30 13 F 0.634645 6.407618 -1.236812 0
M  V30 14 C 1.210104 4.269928 -0.386291 0
M  V30 15 N 0.762018 1.064811 0.216510 0
M  V30 16 C 0.888430 -0.256653 0.043139 0
M  V30 17 C -0.144572 -1.137490 -0.161176 0
M  V30 18 C -1.443433 -0.700708 -0.204259 0
M  V30 19 C -2.524429 -1.653635 -0.432258 0
M  V30 20 C -3.852249 -1.388542 -0.519976 0
M  V30 21 C -4.757539 -2.404746 -0.755710 0
M  V30 22 N -4.354725 -3.676507 -0.904486 0
M  V30 23 C -3.019425 -3.956361 -0.817768 0
M  V30 24 N -2.390969 -5.249923 -0.936457 0
M  V30 25 C -1.881279 -6.129578 0.063276 0
M  V30 26 C -1.327058 -7.361762 -0.237369 0
M  V30 27 C -0.966642 -7.844795 1.001670 0
M  V30 28 N -1.294815 -6.941738 1.963931 0
M  V30 29 N -1.865288 -5.870491 1.380022 0
M  V30 30 C -2.339039 -4.704372 2.092651 0
M  V30 31 N -2.173060 -2.941081 -0.587622 0
M  V30 32 C -1.628503 0.653457 -0.030613 0
M  V30 33 C -0.533286 1.462605 0.169067 0
M  V30 34 O -0.860579 2.667895 0.310098 0
M  V30 35 H 5.478260 -1.401677 1.662305 0
M  V30 36 H 5.453877 -1.813959 -0.095103 0
M  V30 37 H 3.989049 -2.088282 0.949674 0
M  V30 38 H 3.625693 2.353443 1.664718 0
M  V30 39 H 2.254012 1.601468 2.469170 0
M  V30 40 H 2.422326 2.040312 -0.521813 0
M  V30 41 H 1.044375 3.173959 2.785114 0
M  V30 42 H 0.227615 5.389254 3.207103 0
M  V30 43 H 1.482264 3.962773 -1.385606 0
M  V30 44 H 1.830059 -0.730127 0.049875 0
M  V30 45 H 0.041780 -2.217253 -0.293949 0
M  V30 46 H -4.148763 -0.343536 -0.395084 0
M  V30 47 H -5.802461 -2.183996 -0.822132 0
M  V30 48 H -2.359257 -5.472195 -1.959096 0
M  V30 49 H -1.204708 -7.836023 -1.205117 0
M  V30 50 H -0.485137 -8.805043 1.217193 0
M  V30 51 H -2.452128 -4.934978 3.191906 0
M  V30 52 H -3.285158 -4.322771 1.664078 0
M  V30 53 H -1.572745 -3.904500 2.004716 0
M  V30 54 H -2.645627 1.010867 -0.057297 0
M  V30 END ATOM
M  V30 BEGIN BOND
M  V30 1 1 1 2
M  V30 2 2 2 3
M  V30 3 1 2 4
M  V30 4 1 4 5
M  V30 5 1 5 6
M  V30 6 1 6 7
M  V30 7 2 7 8
M  V30 8 1 8 9
M  V30 9 2 9 10
M  V30 10 1 10 11
M  V30 11 1 10 12
M  V30 12 1 12 13
M  V30 13 2 12 14
M  V30 14 1 6 15
M  V30 15 1 15 16
M  V30 16 2 16 17
M  V30 17 1 17 18
M  V30 18 1 18 19
M  V30 19 2 19 20
M  V30 20 1 20 21
M  V30 21 2 21 22
M  V30 22 1 22 23
M  V30 23 1 23 24
M  V30 24 1 24 25
M  V30 25 2 25 26
M  V30 26 1 26 27
M  V30 27 2 27 28
M  V30 28 1 28 29
M  V30 29 1 29 30
M  V30 30 2 23 31
M  V30 31 2 18 32
M  V30 32 1 32 33
M  V30 33 2 33 34
M  V30 34 1 14 7
M  V30 35 1 33 15
M  V30 36 1 31 19
M  V30 37 1 29 25
M  V30 38 1 1 35
M  V30 39 1 1 36
M  V30 40 1 1 37
M  V30 41 1 5 38
M  V30 42 1 5 39
M  V30 43 1 6 40 CFG=3
M  V30 44 1 8 41
M  V30 45 1 9 42
M  V30 46 1 14 43
M  V30 47 1 16 44
M  V30 48 1 17 45
M  V30 49 1 20 46
M  V30 50 1 21 47
M  V30 51 1 24 48
M  V30 52 1 26 49
M  V30 53 1 27 50
M  V30 54 1 30 51
M  V30 55 1 30 52
M  V30 56 1 30 53
M  V30 57 1 32 54
M  V30 END BOND
M  V30 END CTAB
M  END
>  <Dataset>  (387) 
ChEMBL_Kinases

>  <Ligand_Instance>  (387) 
nan

>  <PDB_ID>  (387) 
nan

>  <Standardized_SMILES>  (387) 
CC(=O)OC[C@H](c1ccc(Cl)c(F)c1)n1ccc(-c2ccnc(Nc3ccnn3C)n2)cc1=O

>  <Name>  (387) 
nan

>  <Pocket>  (387) 
nan

>  <ATP_Site>  (387) 
nan

>  <Peripheral>  (387) 
nan

>  <Num_H_Atoms_ProtBoundConf>  (387) 
nan

>  <Num_Resolved_Atoms>  (387) 
nan

>  <Num_Not_Resolved_Atoms>  (387) 
nan

$$$$
CHEMBL3680613
     RDKit          3D

  0  0  0  0  0  0  0  0  0  0999 V3000
M  V30 BEGIN CTAB
M  V30 COUNTS 57 61 0 0 0
M  V30 BEGIN ATOM
M  V30 1 O -2.520269 -0.306673 0.670261 0
M  V30 2 C -1.522449 -1.072686 0.768126 0
M  V30 3 C -0.367301 -0.577996 1.379224 0
M  V30 4 C 0.740372 -1.387060 1.502738 0
M  V30 5 C 1.931377 -0.843008 2.145032 0
M  V30 6 C 3.095556 -1.554009 2.325043 0
M  V30 7 C 4.173783 -0.947424 2.947600 0
M  V30 8 N 4.052663 0.325315 3.360809 0
M  V30 9 C 2.917433 1.029900 3.189330 0
M  V30 10 N 2.809334 2.377122 3.634248 0
M  V30 11 C 1.618609 3.195408 3.482934 0
M  V30 12 C 1.823551 4.587440 4.061223 0
M  V30 13 C 2.575464 5.439875 3.083013 0
M  V30 14 O 1.777603 5.750639 1.995868 0
M  V30 15 C 0.795660 4.796505 1.750537 0
M  V30 16 C 1.318417 3.392064 2.001901 0
M  V30 17 N 1.878337 0.427211 2.582839 0
M  V30 18 C 0.641801 -2.668151 1.004177 0
M  V30 19 C -0.505112 -3.143869 0.403001 0
M  V30 20 N -1.582695 -2.346113 0.286686 0
M  V30 21 C -2.819734 -2.822702 -0.348586 0 CFG=2
M  V30 22 C -3.454388 -3.918568 0.474890 0
M  V30 23 O -4.612752 -4.317492 -0.183909 0
M  V30 24 C -2.556272 -3.412919 -1.689076 0
M  V30 25 C -2.260597 -4.734362 -2.020705 0
M  V30 26 C -2.094634 -4.810048 -3.391889 0
M  V30 27 C -1.797714 -5.831385 -4.268685 0
M  V30 28 C -1.681797 -5.652572 -5.638517 0
M  V30 29 F -1.390677 -6.648449 -6.508010 0
M  V30 30 C -1.884921 -4.360921 -6.093652 0
M  V30 31 C -2.188165 -3.284096 -5.258200 0
M  V30 32 C -2.292507 -3.521810 -3.888588 0
M  V30 33 N -2.569552 -2.695238 -2.845512 0
M  V30 34 H -0.365786 0.431258 1.743468 0
M  V30 35 H 3.154891 -2.576324 1.978914 0
M  V30 36 H 5.121906 -1.484147 3.109453 0
M  V30 37 H 3.634208 2.814450 4.100894 0
M  V30 38 H 0.726988 2.760230 3.932575 0
M  V30 39 H 2.302715 4.553311 5.053832 0
M  V30 40 H 0.808498 5.045025 4.179811 0
M  V30 41 H 3.564276 5.041106 2.832303 0
M  V30 42 H 2.759003 6.425215 3.603269 0
M  V30 43 H -0.124409 4.998853 2.337572 0
M  V30 44 H 0.571119 4.859561 0.664855 0
M  V30 45 H 0.565092 2.686734 1.627551 0
M  V30 46 H 2.262598 3.311949 1.416398 0
M  V30 47 H 1.485403 -3.322338 1.084550 0
M  V30 48 H -0.582274 -4.149876 0.011582 0
M  V30 49 H -3.495443 -1.964545 -0.473223 0
M  V30 50 H -3.714921 -3.614092 1.489376 0
M  V30 51 H -2.755948 -4.769491 0.529287 0
M  V30 52 H -5.170983 -3.558489 -0.470032 0
M  V30 53 H -2.177940 -5.553105 -1.313988 0
M  V30 54 H -1.645100 -6.827987 -3.880250 0
M  V30 55 H -1.814804 -4.125642 -7.148339 0
M  V30 56 H -2.335134 -2.296448 -5.681919 0
M  V30 57 H -2.760364 -1.662886 -2.951000 0
M  V30 END ATOM
M  V30 BEGIN BOND
M  V30 1 2 1 2
M  V30 2 1 2 3
M  V30 3 2 3 4
M  V30 4 1 4 5
M  V30 5 2 5 6
M  V30 6 1 6 7
M  V30 7 2 7 8
M  V30 8 1 8 9
M  V30 9 1 9 10
M  V30 10 1 10 11
M  V30 11 1 11 12
M  V30 12 1 12 13
M  V30 13 1 13 14
M  V30 14 1 14 15
M  V30 15 1 15 16
M  V30 16 2 9 17
M  V30 17 1 4 18
M  V30 18 2 18 19
M  V30 19 1 19 20
M  V30 20 1 20 21
M  V30 21 1 21 22
M  V30 22 1 22 23
M  V30 23 1 21 24
M  V30 24 2 24 25
M  V30 25 1 25 26
M  V30 26 2 26 27
M  V30 27 1 27 28
M  V30 28 1 28 29
M  V30 29 2 28 30
M  V30 30 1 30 31
M  V30 31 2 31 32
M  V30 32 1 32 33
M  V30 33 1 20 2
M  V30 34 1 33 24
M  V30 35 1 17 5
M  V30 36 1 32 26
M  V30 37 1 16 11
M  V30 38 1 3 34
M  V30 39 1 6 35
M  V30 40 1 7 36
M  V30 41 1 10 37
M  V30 42 1 11 38
M  V30 43 1 12 39
M  V30 44 1 12 40
M  V30 45 1 13 41
M  V30 46 1 13 42
M  V30 47 1 15 43
M  V30 48 1 15 44
M  V30 49 1 16 45
M  V30 50 1 16 46
M  V30 51 1 18 47
M  V30 52 1 19 48
M  V30 53 1 21 49 CFG=3
M  V30 54 1 22 50
M  V30 55 1 22 51
M  V30 56 1 23 52
M  V30 57 1 25 53
M  V30 58 1 27 54
M  V30 59 1 30 55
M  V30 60 1 31 56
M  V30 61 1 33 57
M  V30 END BOND
M  V30 END CTAB
M  END
>  <Dataset>  (388) 
ChEMBL_Kinases

>  <Ligand_Instance>  (388) 
nan

>  <PDB_ID>  (388) 
nan

>  <Standardized_SMILES>  (388) 
O=c1cc(-c2ccnc(NC3CCOCC3)n2)ccn1[C@H](CO)c1cc2cc(F)ccc2[nH]1

>  <Name>  (388) 
nan

>  <Pocket>  (388) 
nan

>  <ATP_Site>  (388) 
nan

>  <Peripheral>  (388) 
nan

>  <Num_H_Atoms_ProtBoundConf>  (388) 
nan

>  <Num_Resolved_Atoms>  (388) 
nan

>  <Num_Not_Resolved_Atoms>  (388) 
nan

$$$$
CHEMBL3680612
     RDKit          3D

  0  0  0  0  0  0  0  0  0  0999 V3000
M  V30 BEGIN CTAB
M  V30 COUNTS 66 69 0 0 0
M  V30 BEGIN ATOM
M  V30 1 C 2.702864 -1.195964 6.288868 0
M  V30 2 C 1.742489 -1.290982 5.117422 0
M  V30 3 C 0.337816 -1.285057 5.660406 0
M  V30 4 N 1.955733 -2.573847 4.492087 0
M  V30 5 C 2.010300 -0.152745 4.221766 0
M  V30 6 O 1.875844 1.051995 4.602992 0
M  V30 7 O 2.427704 -0.233461 2.897198 0
M  V30 8 C 2.639817 0.992238 2.175237 0
M  V30 9 C 3.089433 0.624897 0.758425 0 CFG=2
M  V30 10 C 3.315506 1.853011 0.000681 0
M  V30 11 C 4.352396 1.866850 -0.940587 0
M  V30 12 C 4.704198 2.932897 -1.739247 0
M  V30 13 C 3.975903 4.090608 -1.605365 0
M  V30 14 Cl 4.329258 5.510737 -2.565253 0
M  V30 15 C 2.948171 4.140899 -0.701359 0
M  V30 16 F 2.196007 5.251436 -0.524875 0
M  V30 17 C 2.635920 3.063870 0.066602 0
M  V30 18 N 2.145533 -0.296624 0.149511 0
M  V30 19 C 0.863725 0.041353 -0.088320 0
M  V30 20 C -0.066043 -0.815743 -0.668790 0
M  V30 21 C 0.360357 -2.082697 -1.017031 0
M  V30 22 C -0.616720 -2.980564 -1.625824 0
M  V30 23 C -0.353824 -4.260172 -2.025117 0
M  V30 24 C -1.328845 -5.060278 -2.597270 0
M  V30 25 N -2.561940 -4.557682 -2.760203 0
M  V30 26 C -2.839541 -3.286292 -2.368119 0
M  V30 27 N -4.159428 -2.788203 -2.557764 0
M  V30 28 C -4.528896 -1.435509 -2.160241 0
M  V30 29 C -4.341274 -1.206863 -0.702309 0
M  V30 30 C -5.489097 -0.486203 -0.043667 0
M  V30 31 O -5.839182 0.571564 -0.912955 0
M  V30 32 C -6.611453 -0.056166 -1.895634 0
M  V30 33 C -5.840469 -1.020147 -2.719361 0
M  V30 34 N -1.876232 -2.539892 -1.819180 0
M  V30 35 C 1.662349 -2.475627 -0.793863 0
M  V30 36 C 2.501335 -1.547276 -0.212687 0
M  V30 37 O 3.706453 -1.877552 0.006238 0
M  V30 38 H 2.791966 -0.129673 6.641348 0
M  V30 39 H 2.365359 -1.814013 7.150390 0
M  V30 40 H 3.727104 -1.530190 6.023190 0
M  V30 41 H 0.375758 -1.742473 6.670617 0
M  V30 42 H -0.325774 -1.886972 5.011456 0
M  V30 43 H -0.062166 -0.266241 5.743267 0
M  V30 44 H 2.368852 -2.494964 3.548201 0
M  V30 45 H 2.473039 -3.240967 5.103178 0
M  V30 46 H 1.674019 1.530091 2.061136 0
M  V30 47 H 3.371415 1.636822 2.671598 0
M  V30 48 H 4.059149 0.087391 0.848160 0
M  V30 49 H 4.945883 0.962724 -1.067380 0
M  V30 50 H 5.516721 2.850669 -2.434520 0
M  V30 51 H 1.827336 3.089524 0.783450 0
M  V30 52 H 0.588869 1.047255 0.206099 0
M  V30 53 H -1.061235 -0.415972 -0.802684 0
M  V30 54 H 0.619075 -4.658443 -1.897117 0
M  V30 55 H -1.091482 -6.080380 -2.907687 0
M  V30 56 H -4.894986 -3.370218 -2.982735 0
M  V30 57 H -3.763219 -0.771165 -2.662395 0
M  V30 58 H -3.419032 -0.652044 -0.433513 0
M  V30 59 H -4.271536 -2.217215 -0.217124 0
M  V30 60 H -6.378701 -1.135737 0.065244 0
M  V30 61 H -5.140101 -0.020175 0.882678 0
M  V30 62 H -7.078277 0.730578 -2.522684 0
M  V30 63 H -7.441762 -0.555131 -1.323997 0
M  V30 64 H -6.484623 -1.942373 -2.821099 0
M  V30 65 H -5.776450 -0.629654 -3.760525 0
M  V30 66 H 2.015413 -3.442164 -1.051726 0
M  V30 END ATOM
M  V30 BEGIN BOND
M  V30 1 1 1 2
M  V30 2 1 2 3
M  V30 3 1 2 4
M  V30 4 1 2 5
M  V30 5 2 5 6
M  V30 6 1 5 7
M  V30 7 1 7 8
M  V30 8 1 8 9
M  V30 9 1 9 10
M  V30 10 2 10 11
M  V30 11 1 11 12
M  V30 12 2 12 13
M  V30 13 1 13 14
M  V30 14 1 13 15
M  V30 15 1 15 16
M  V30 16 2 15 17
M  V30 17 1 9 18
M  V30 18 1 18 19
M  V30 19 2 19 20
M  V30 20 1 20 21
M  V30 21 1 21 22
M  V30 22 2 22 23
M  V30 23 1 23 24
M  V30 24 2 24 25
M  V30 25 1 25 26
M  V30 26 1 26 27
M  V30 27 1 27 28
M  V30 28 1 28 29
M  V30 29 1 29 30
M  V30 30 1 30 31
M  V30 31 1 31 32
M  V30 32 1 32 33
M  V30 33 2 26 34
M  V30 34 2 21 35
M  V30 35 1 35 36
M  V30 36 2 36 37
M  V30 37 1 17 10
M  V30 38 1 36 18
M  V30 39 1 34 22
M  V30 40 1 33 28
M  V30 41 1 1 38
M  V30 42 1 1 39
M  V30 43 1 1 40
M  V30 44 1 3 41
M  V30 45 1 3 42
M  V30 46 1 3 43
M  V30 47 1 4 44
M  V30 48 1 4 45
M  V30 49 1 8 46
M  V30 50 1 8 47
M  V30 51 1 9 48 CFG=1
M  V30 52 1 11 49
M  V30 53 1 12 50
M  V30 54 1 17 51
M  V30 55 1 19 52
M  V30 56 1 20 53
M  V30 57 1 23 54
M  V30 58 1 24 55
M  V30 59 1 27 56
M  V30 60 1 28 57
M  V30 61 1 29 58
M  V30 62 1 29 59
M  V30 63 1 30 60
M  V30 64 1 30 61
M  V30 65 1 32 62
M  V30 66 1 32 63
M  V30 67 1 33 64
M  V30 68 1 33 65
M  V30 69 1 35 66
M  V30 END BOND
M  V30 END CTAB
M  END
>  <Dataset>  (389) 
ChEMBL_Kinases

>  <Ligand_Instance>  (389) 
nan

>  <PDB_ID>  (389) 
nan

>  <Standardized_SMILES>  (389) 
CC(C)(N)C(=O)OC[C@H](c1ccc(Cl)c(F)c1)n1ccc(-c2ccnc(NC3CCOCC3)n2)cc1=O

>  <Name>  (389) 
nan

>  <Pocket>  (389) 
nan

>  <ATP_Site>  (389) 
nan

>  <Peripheral>  (389) 
nan

>  <Num_H_Atoms_ProtBoundConf>  (389) 
nan

>  <Num_Resolved_Atoms>  (389) 
nan

>  <Num_Not_Resolved_Atoms>  (389) 
nan

$$$$
CHEMBL3680611
     RDKit          3D

  0  0  0  0  0  0  0  0  0  0999 V3000
M  V30 BEGIN CTAB
M  V30 COUNTS 53 57 0 0 0
M  V30 BEGIN ATOM
M  V30 1 O -0.449208 -1.502006 2.508533 0
M  V30 2 C -1.187666 -0.942036 1.633253 0
M  V30 3 C -0.635652 0.153863 1.002631 0
M  V30 4 C -1.358957 0.819506 0.045904 0
M  V30 5 C -0.776038 1.976364 -0.619676 0
M  V30 6 C -1.423195 2.708004 -1.591162 0
M  V30 7 C -0.744577 3.779947 -2.132850 0
M  V30 8 N 0.498063 4.087998 -1.720738 0
M  V30 9 C 1.146763 3.371207 -0.761007 0
M  V30 10 N 2.455700 3.736162 -0.363191 0
M  V30 11 C 3.206035 3.035113 0.641305 0
M  V30 12 C 2.471980 3.092772 1.942590 0
M  V30 13 C 3.262687 2.323373 2.999038 0
M  V30 14 O 4.233828 1.554141 2.394345 0
M  V30 15 C 3.698923 0.751107 1.399980 0
M  V30 16 C 3.413389 1.605156 0.181721 0
M  V30 17 N 0.465218 2.349180 -0.263268 0
M  V30 18 C -2.617937 0.326464 -0.218074 0
M  V30 19 C -3.120228 -0.766700 0.437175 0
M  V30 20 N -2.410363 -1.419325 1.375571 0
M  V30 21 C -2.940007 -2.579599 2.072912 0
M  V30 22 C -2.590748 -3.830390 1.329198 0
M  V30 23 C -3.456259 -4.316642 0.356446 0
M  V30 24 C -3.217024 -5.459633 -0.377773 0
M  V30 25 F -4.091973 -5.887874 -1.311399 0
M  V30 26 C -2.049639 -6.161615 -0.132001 0
M  V30 27 C -1.485234 -7.310907 -0.649181 0
M  V30 28 C -0.278670 -7.522621 0.008315 0
M  V30 29 N -0.095071 -6.545919 0.900650 0
M  V30 30 C -1.166987 -5.712132 0.823580 0
M  V30 31 C -1.442667 -4.566410 1.535061 0
M  V30 32 H 0.366504 0.495358 1.255999 0
M  V30 33 H -2.420566 2.429478 -1.895396 0
M  V30 34 H -1.204758 4.389854 -2.899729 0
M  V30 35 H 2.915953 4.555719 -0.812919 0
M  V30 36 H 4.206026 3.452143 0.804929 0
M  V30 37 H 1.440098 2.709454 1.868614 0
M  V30 38 H 2.384554 4.175945 2.211116 0
M  V30 39 H 3.730732 3.057243 3.672109 0
M  V30 40 H 2.581246 1.647880 3.559755 0
M  V30 41 H 2.757011 0.267462 1.722093 0
M  V30 42 H 4.465017 -0.013876 1.119121 0
M  V30 43 H 2.548617 1.199865 -0.372923 0
M  V30 44 H 4.308049 1.587012 -0.465021 0
M  V30 45 H -3.229477 0.814493 -0.963543 0
M  V30 46 H -4.109391 -1.116011 0.197493 0
M  V30 47 H -4.041458 -2.494391 2.138227 0
M  V30 48 H -2.507327 -2.623592 3.095261 0
M  V30 49 H -4.375607 -3.752896 0.171464 0
M  V30 50 H -1.917267 -7.917228 -1.420275 0
M  V30 51 H 0.403169 -8.350762 -0.176510 0
M  V30 52 H 0.723487 -6.448293 1.536166 0
M  V30 53 H -0.753031 -4.225388 2.273683 0
M  V30 END ATOM
M  V30 BEGIN BOND
M  V30 1 2 1 2
M  V30 2 1 2 3
M  V30 3 2 3 4
M  V30 4 1 4 5
M  V30 5 2 5 6
M  V30 6 1 6 7
M  V30 7 2 7 8
M  V30 8 1 8 9
M  V30 9 1 9 10
M  V30 10 1 10 11
M  V30 11 1 11 12
M  V30 12 1 12 13
M  V30 13 1 13 14
M  V30 14 1 14 15
M  V30 15 1 15 16
M  V30 16 2 9 17
M  V30 17 1 4 18
M  V30 18 2 18 19
M  V30 19 1 19 20
M  V30 20 1 20 21
M  V30 21 1 21 22
M  V30 22 2 22 23
M  V30 23 1 23 24
M  V30 24 1 24 25
M  V30 25 2 24 26
M  V30 26 1 26 27
M  V30 27 2 27 28
M  V30 28 1 28 29
M  V30 29 1 29 30
M  V30 30 2 30 31
M  V30 31 1 20 2
M  V30 32 1 31 22
M  V30 33 1 17 5
M  V30 34 1 30 26
M  V30 35 1 16 11
M  V30 36 1 3 32
M  V30 37 1 6 33
M  V30 38 1 7 34
M  V30 39 1 10 35
M  V30 40 1 11 36
M  V30 41 1 12 37
M  V30 42 1 12 38
M  V30 43 1 13 39
M  V30 44 1 13 40
M  V30 45 1 15 41
M  V30 46 1 15 42
M  V30 47 1 16 43
M  V30 48 1 16 44
M  V30 49 1 18 45
M  V30 50 1 19 46
M  V30 51 1 21 47
M  V30 52 1 21 48
M  V30 53 1 23 49
M  V30 54 1 27 50
M  V30 55 1 28 51
M  V30 56 1 29 52
M  V30 57 1 31 53
M  V30 END BOND
M  V30 END CTAB
M  END
>  <Dataset>  (390) 
ChEMBL_Kinases

>  <Ligand_Instance>  (390) 
nan

>  <PDB_ID>  (390) 
nan

>  <Standardized_SMILES>  (390) 
O=c1cc(-c2ccnc(NC3CCOCC3)n2)ccn1Cc1cc(F)c2cc[nH]c2c1

>  <Name>  (390) 
nan

>  <Pocket>  (390) 
nan

>  <ATP_Site>  (390) 
nan

>  <Peripheral>  (390) 
nan

>  <Num_H_Atoms_ProtBoundConf>  (390) 
nan

>  <Num_Resolved_Atoms>  (390) 
nan

>  <Num_Not_Resolved_Atoms>  (390) 
nan

$$$$
CHEMBL3680610
     RDKit          3D

  0  0  0  0  0  0  0  0  0  0999 V3000
M  V30 BEGIN CTAB
M  V30 COUNTS 54 57 0 0 0
M  V30 BEGIN ATOM
M  V30 1 C 2.570658 -3.345921 1.133928 0
M  V30 2 O 3.004424 -2.333619 0.276386 0
M  V30 3 C 3.540198 -2.479749 -0.967688 0
M  V30 4 O 3.595644 -3.725520 -1.266053 0
M  V30 5 C 3.962168 -1.345994 -1.775766 0
M  V30 6 C 3.799162 -0.069217 -1.268547 0
M  V30 7 C 4.216869 1.001974 -2.033164 0
M  V30 8 N 4.007658 2.273788 -1.449500 0
M  V30 9 C 3.049733 2.714897 -0.510153 0
M  V30 10 N 2.940071 3.837965 0.241757 0
M  V30 11 C 1.832634 3.997128 1.046004 0
M  V30 12 C 0.880459 2.932086 1.007345 0
M  V30 13 C 0.943900 1.710165 0.223801 0
M  V30 14 C -0.296732 1.125756 0.661128 0
M  V30 15 C -1.322066 1.320863 1.522324 0
M  V30 16 C -2.342485 0.415978 1.460068 0
M  V30 17 N -2.445975 -0.638689 0.647629 0
M  V30 18 C -3.646664 -1.440528 0.758855 0 CFG=2
M  V30 19 C -4.884787 -0.618331 0.979716 0
M  V30 20 O -6.032991 -1.430945 1.082599 0
M  V30 21 C -3.573228 -2.478854 1.806118 0
M  V30 22 C -3.174416 -3.760176 1.478043 0
M  V30 23 C -3.048486 -4.841352 2.339282 0
M  V30 24 C -3.360934 -4.583130 3.657163 0
M  V30 25 Cl -3.199948 -5.950951 4.754856 0
M  V30 26 C -3.772282 -3.311841 4.067387 0
M  V30 27 F -4.066096 -3.118747 5.375655 0
M  V30 28 C -3.873087 -2.276788 3.134479 0
M  V30 29 C -1.434455 -0.880898 -0.242039 0
M  V30 30 O -1.677970 -1.903673 -0.930735 0
M  V30 31 C -0.348245 0.020807 -0.226098 0
M  V30 32 N 2.012459 2.216264 -0.150902 0
M  V30 33 C 4.791072 0.925397 -3.277863 0
M  V30 34 C 4.922419 -0.395168 -3.722396 0
M  V30 35 N 4.518662 -1.469471 -2.986564 0
M  V30 36 H 2.559190 -2.921632 2.183022 0
M  V30 37 H 1.586973 -3.790538 0.886129 0
M  V30 38 H 3.349333 -4.136405 1.161160 0
M  V30 39 H 3.351648 0.050195 -0.289751 0
M  V30 40 H 4.627878 3.105301 -1.697916 0
M  V30 41 H 1.889167 4.966842 1.597980 0
M  V30 42 H 0.180024 3.434168 1.752485 0
M  V30 43 H -1.171125 2.173514 2.139958 0
M  V30 44 H -3.075477 0.731016 2.227767 0
M  V30 45 H -3.843302 -1.994743 -0.211721 0
M  V30 46 H -4.885468 -0.048907 1.936021 0
M  V30 47 H -4.986164 0.081553 0.150024 0
M  V30 48 H -6.714534 -1.046330 0.448881 0
M  V30 49 H -2.926057 -3.966254 0.432961 0
M  V30 50 H -2.725772 -5.800552 1.963341 0
M  V30 51 H -4.195820 -1.279402 3.458235 0
M  V30 52 H 0.299333 -0.393781 -1.006139 0
M  V30 53 H 5.110631 1.767032 -3.858399 0
M  V30 54 H 5.373154 -0.548032 -4.712393 0
M  V30 END ATOM
M  V30 BEGIN BOND
M  V30 1 1 1 2
M  V30 2 1 2 3
M  V30 3 2 3 4
M  V30 4 1 3 5
M  V30 5 2 5 6
M  V30 6 1 6 7
M  V30 7 1 7 8
M  V30 8 1 8 9
M  V30 9 2 9 10
M  V30 10 1 10 11
M  V30 11 2 11 12
M  V30 12 1 12 13
M  V30 13 1 13 14
M  V30 14 1 14 15
M  V30 15 2 15 16
M  V30 16 1 16 17
M  V30 17 1 17 18
M  V30 18 1 18 19
M  V30 19 1 19 20
M  V30 20 1 18 21
M  V30 21 2 21 22
M  V30 22 1 22 23
M  V30 23 2 23 24
M  V30 24 1 24 25
M  V30 25 1 24 26
M  V30 26 1 26 27
M  V30 27 2 26 28
M  V30 28 1 17 29
M  V30 29 2 29 30
M  V30 30 1 29 31
M  V30 31 2 13 32
M  V30 32 2 7 33
M  V30 33 1 33 34
M  V30 34 2 34 35
M  V30 35 1 35 5
M  V30 36 1 32 9
M  V30 37 2 31 14
M  V30 38 1 28 21
M  V30 39 1 1 36
M  V30 40 1 1 37
M  V30 41 1 1 38
M  V30 42 1 6 39
M  V30 43 1 8 40
M  V30 44 1 11 41
M  V30 45 1 12 42
M  V30 46 1 15 43
M  V30 47 1 16 44
M  V30 48 1 18 45 CFG=3
M  V30 49 1 19 46
M  V30 50 1 19 47
M  V30 51 1 20 48
M  V30 52 1 22 49
M  V30 53 1 23 50
M  V30 54 1 28 51
M  V30 55 1 31 52
M  V30 56 1 33 53
M  V30 57 1 34 54
M  V30 END BOND
M  V30 END CTAB
M  END
>  <Dataset>  (391) 
ChEMBL_Kinases

>  <Ligand_Instance>  (391) 
nan

>  <PDB_ID>  (391) 
nan

>  <Standardized_SMILES>  (391) 
COC(=O)c1cc(Nc2nccc(-c3ccn([C@H](CO)c4ccc(Cl)c(F)c4)c(=O)c3)n2)ccn1

>  <Name>  (391) 
nan

>  <Pocket>  (391) 
nan

>  <ATP_Site>  (391) 
nan

>  <Peripheral>  (391) 
nan

>  <Num_H_Atoms_ProtBoundConf>  (391) 
nan

>  <Num_Resolved_Atoms>  (391) 
nan

>  <Num_Not_Resolved_Atoms>  (391) 
nan

$$$$
CHEMBL3680609
     RDKit          3D

  0  0  0  0  0  0  0  0  0  0999 V3000
M  V30 BEGIN CTAB
M  V30 COUNTS 53 57 0 0 0
M  V30 BEGIN ATOM
M  V30 1 O -3.969858 -1.057148 -0.821469 0
M  V30 2 C -2.911785 -0.623614 -0.296433 0
M  V30 3 C -2.138783 0.337947 -0.904812 0
M  V30 4 C -0.977448 0.833983 -0.359594 0
M  V30 5 C -0.127684 1.850309 -0.965743 0
M  V30 6 C -0.405141 2.435009 -2.177812 0
M  V30 7 C 0.402969 3.399116 -2.750589 0
M  V30 8 N 1.490995 3.755484 -2.073085 0
M  V30 9 C 1.801990 3.203960 -0.874269 0
M  V30 10 N 2.974397 3.610913 -0.180708 0
M  V30 11 C 3.330939 3.043121 1.096363 0
M  V30 12 C 2.294028 3.267688 2.167417 0
M  V30 13 C 2.694183 2.395188 3.350090 0
M  V30 14 O 4.026740 2.027713 3.260853 0
M  V30 15 C 4.247156 1.097178 2.245293 0
M  V30 16 C 3.633818 1.560383 0.933936 0
M  V30 17 N 0.991399 2.272592 -0.354653 0
M  V30 18 C -0.619351 0.304674 0.858067 0
M  V30 19 C -1.407457 -0.663529 1.459651 0
M  V30 20 N -2.539497 -1.133498 0.907333 0
M  V30 21 C -3.332074 -2.142358 1.566425 0
M  V30 22 C -2.925572 -3.521270 1.188059 0
M  V30 23 C -3.456333 -4.241926 0.113036 0
M  V30 24 C -2.854578 -5.481849 0.051634 0
M  V30 25 C -2.994731 -6.567649 -0.789594 0
M  V30 26 F -3.874337 -6.550571 -1.817239 0
M  V30 27 C -2.231652 -7.714794 -0.602840 0
M  V30 28 C -1.323115 -7.732738 0.458419 0
M  V30 29 C -1.177226 -6.636852 1.312693 0
M  V30 30 C -1.953045 -5.513813 1.095898 0
M  V30 31 N -2.004398 -4.341778 1.764733 0
M  V30 32 H -2.454123 0.729249 -1.862008 0
M  V30 33 H -1.286981 2.150778 -2.734016 0
M  V30 34 H 0.140605 3.829080 -3.707609 0
M  V30 35 H 3.594439 4.344434 -0.612963 0
M  V30 36 H 4.273009 3.492806 1.463924 0
M  V30 37 H 1.278326 2.971015 1.899412 0
M  V30 38 H 2.287053 4.333047 2.465414 0
M  V30 39 H 2.024351 1.520973 3.466840 0
M  V30 40 H 2.577418 2.997438 4.267379 0
M  V30 41 H 5.342702 1.041082 2.083558 0
M  V30 42 H 3.842259 0.091560 2.476564 0
M  V30 43 H 4.346180 1.475414 0.103546 0
M  V30 44 H 2.729004 0.979592 0.726364 0
M  V30 45 H 0.275787 0.616889 1.386181 0
M  V30 46 H -1.144364 -1.093090 2.416840 0
M  V30 47 H -4.383846 -2.008655 1.239996 0
M  V30 48 H -3.344038 -2.027563 2.666616 0
M  V30 49 H -4.212483 -3.960043 -0.604073 0
M  V30 50 H -2.337102 -8.572410 -1.261094 0
M  V30 51 H -0.728261 -8.636737 0.597934 0
M  V30 52 H -0.451538 -6.717000 2.119406 0
M  V30 53 H -1.446883 -4.043713 2.608334 0
M  V30 END ATOM
M  V30 BEGIN BOND
M  V30 1 2 1 2
M  V30 2 1 2 3
M  V30 3 2 3 4
M  V30 4 1 4 5
M  V30 5 2 5 6
M  V30 6 1 6 7
M  V30 7 2 7 8
M  V30 8 1 8 9
M  V30 9 1 9 10
M  V30 10 1 10 11
M  V30 11 1 11 12
M  V30 12 1 12 13
M  V30 13 1 13 14
M  V30 14 1 14 15
M  V30 15 1 15 16
M  V30 16 2 9 17
M  V30 17 1 4 18
M  V30 18 2 18 19
M  V30 19 1 19 20
M  V30 20 1 20 21
M  V30 21 1 21 22
M  V30 22 2 22 23
M  V30 23 1 23 24
M  V30 24 2 24 25
M  V30 25 1 25 26
M  V30 26 1 25 27
M  V30 27 2 27 28
M  V30 28 1 28 29
M  V30 29 2 29 30
M  V30 30 1 30 31
M  V30 31 1 20 2
M  V30 32 1 31 22
M  V30 33 1 17 5
M  V30 34 1 30 24
M  V30 35 1 16 11
M  V30 36 1 3 32
M  V30 37 1 6 33
M  V30 38 1 7 34
M  V30 39 1 10 35
M  V30 40 1 11 36
M  V30 41 1 12 37
M  V30 42 1 12 38
M  V30 43 1 13 39
M  V30 44 1 13 40
M  V30 45 1 15 41
M  V30 46 1 15 42
M  V30 47 1 16 43
M  V30 48 1 16 44
M  V30 49 1 18 45
M  V30 50 1 19 46
M  V30 51 1 21 47
M  V30 52 1 21 48
M  V30 53 1 23 49
M  V30 54 1 27 50
M  V30 55 1 28 51
M  V30 56 1 29 52
M  V30 57 1 31 53
M  V30 END BOND
M  V30 END CTAB
M  END
>  <Dataset>  (392) 
ChEMBL_Kinases

>  <Ligand_Instance>  (392) 
nan

>  <PDB_ID>  (392) 
nan

>  <Standardized_SMILES>  (392) 
O=c1cc(-c2ccnc(NC3CCOCC3)n2)ccn1Cc1cc2c(F)cccc2[nH]1

>  <Name>  (392) 
nan

>  <Pocket>  (392) 
nan

>  <ATP_Site>  (392) 
nan

>  <Peripheral>  (392) 
nan

>  <Num_H_Atoms_ProtBoundConf>  (392) 
nan

>  <Num_Resolved_Atoms>  (392) 
nan

>  <Num_Not_Resolved_Atoms>  (392) 
nan

$$$$
CHEMBL3680608
     RDKit          3D

  0  0  0  0  0  0  0  0  0  0999 V3000
M  V30 BEGIN CTAB
M  V30 COUNTS 53 57 0 0 0
M  V30 BEGIN ATOM
M  V30 1 O -1.452788 -0.366383 2.436276 0
M  V30 2 C -0.659321 -1.170214 1.917837 0
M  V30 3 C 0.605048 -0.834311 1.435809 0
M  V30 4 C 1.464132 -1.749601 0.864921 0
M  V30 5 C 2.764552 -1.296092 0.392086 0
M  V30 6 C 3.678150 -2.148861 -0.189067 0
M  V30 7 C 4.872296 -1.590433 -0.592864 0
M  V30 8 N 5.112655 -0.279188 -0.419179 0
M  V30 9 C 4.221100 0.555084 0.148390 0
M  V30 10 N 4.463830 1.942226 0.338396 0
M  V30 11 C 3.524219 2.840431 0.938452 0
M  V30 12 C 2.267213 2.856002 0.112660 0
M  V30 13 C 1.103199 3.347452 0.946305 0
M  V30 14 O 1.643955 4.241230 1.874998 0
M  V30 15 C 2.225248 3.502191 2.890003 0
M  V30 16 C 3.244135 2.495407 2.389941 0
M  V30 17 N 3.045729 0.003208 0.545362 0
M  V30 18 C 0.999181 -3.044411 0.792904 0
M  V30 19 C -0.256523 -3.391107 1.268843 0
M  V30 20 N -1.047799 -2.451739 1.815165 0
M  V30 21 C -2.340072 -2.977040 2.269122 0
M  V30 22 C -3.338305 -2.891370 1.169128 0
M  V30 23 C -4.231150 -1.895647 0.802819 0
M  V30 24 C -4.910348 -2.367905 -0.302133 0
M  V30 25 C -5.905131 -1.785818 -1.064592 0
M  V30 26 C -6.471251 -2.431753 -2.155112 0
M  V30 27 C -5.992973 -3.703114 -2.454753 0
M  V30 28 Cl -6.691042 -4.518378 -3.812052 0
M  V30 29 C -4.995316 -4.291344 -1.693087 0
M  V30 30 C -4.451425 -3.632227 -0.619493 0
M  V30 31 N -3.503110 -3.908666 0.294456 0
M  V30 32 H 0.872923 0.190034 1.536579 0
M  V30 33 H 3.459791 -3.199430 -0.316951 0
M  V30 34 H 5.591325 -2.243406 -1.046384 0
M  V30 35 H 5.409744 2.293171 0.001781 0
M  V30 36 H 3.959112 3.860615 0.959110 0
M  V30 37 H 2.064855 1.929888 -0.438721 0
M  V30 38 H 2.418044 3.655626 -0.671326 0
M  V30 39 H 0.568505 2.569474 1.489727 0
M  V30 40 H 0.364077 3.903033 0.320735 0
M  V30 41 H 1.404355 2.970201 3.427528 0
M  V30 42 H 2.704395 4.241914 3.589325 0
M  V30 43 H 2.928264 1.448156 2.539961 0
M  V30 44 H 4.194212 2.675646 2.938355 0
M  V30 45 H 1.633306 -3.786854 0.357289 0
M  V30 46 H -0.532590 -4.451659 1.163998 0
M  V30 47 H -2.257488 -3.997565 2.658529 0
M  V30 48 H -2.717560 -2.344425 3.096827 0
M  V30 49 H -4.308806 -0.962448 1.339819 0
M  V30 50 H -6.262845 -0.796447 -0.814626 0
M  V30 51 H -7.250379 -1.918077 -2.713458 0
M  V30 52 H -4.640962 -5.284331 -1.949391 0
M  V30 53 H -3.004302 -4.824727 0.257354 0
M  V30 END ATOM
M  V30 BEGIN BOND
M  V30 1 2 1 2
M  V30 2 1 2 3
M  V30 3 2 3 4
M  V30 4 1 4 5
M  V30 5 2 5 6
M  V30 6 1 6 7
M  V30 7 2 7 8
M  V30 8 1 8 9
M  V30 9 1 9 10
M  V30 10 1 10 11
M  V30 11 1 11 12
M  V30 12 1 12 13
M  V30 13 1 13 14
M  V30 14 1 14 15
M  V30 15 1 15 16
M  V30 16 2 9 17
M  V30 17 1 4 18
M  V30 18 2 18 19
M  V30 19 1 19 20
M  V30 20 1 20 21
M  V30 21 1 21 22
M  V30 22 2 22 23
M  V30 23 1 23 24
M  V30 24 2 24 25
M  V30 25 1 25 26
M  V30 26 2 26 27
M  V30 27 1 27 28
M  V30 28 1 27 29
M  V30 29 2 29 30
M  V30 30 1 30 31
M  V30 31 1 20 2
M  V30 32 1 31 22
M  V30 33 1 17 5
M  V30 34 1 30 24
M  V30 35 1 16 11
M  V30 36 1 3 32
M  V30 37 1 6 33
M  V30 38 1 7 34
M  V30 39 1 10 35
M  V30 40 1 11 36
M  V30 41 1 12 37
M  V30 42 1 12 38
M  V30 43 1 13 39
M  V30 44 1 13 40
M  V30 45 1 15 41
M  V30 46 1 15 42
M  V30 47 1 16 43
M  V30 48 1 16 44
M  V30 49 1 18 45
M  V30 50 1 19 46
M  V30 51 1 21 47
M  V30 52 1 21 48
M  V30 53 1 23 49
M  V30 54 1 25 50
M  V30 55 1 26 51
M  V30 56 1 29 52
M  V30 57 1 31 53
M  V30 END BOND
M  V30 END CTAB
M  END
>  <Dataset>  (393) 
ChEMBL_Kinases

>  <Ligand_Instance>  (393) 
nan

>  <PDB_ID>  (393) 
nan

>  <Standardized_SMILES>  (393) 
O=c1cc(-c2ccnc(NC3CCOCC3)n2)ccn1Cc1cc2ccc(Cl)cc2[nH]1

>  <Name>  (393) 
nan

>  <Pocket>  (393) 
nan

>  <ATP_Site>  (393) 
nan

>  <Peripheral>  (393) 
nan

>  <Num_H_Atoms_ProtBoundConf>  (393) 
nan

>  <Num_Resolved_Atoms>  (393) 
nan

>  <Num_Not_Resolved_Atoms>  (393) 
nan

$$$$
CHEMBL3680607
     RDKit          3D

  0  0  0  0  0  0  0  0  0  0999 V3000
M  V30 BEGIN CTAB
M  V30 COUNTS 60 63 0 0 0
M  V30 BEGIN ATOM
M  V30 1 C 3.402653 -2.619143 2.965413 0
M  V30 2 C 4.721311 -2.596138 2.238370 0
M  V30 3 N 4.888684 -1.434633 1.388198 0
M  V30 4 C 5.013379 -0.214585 2.162343 0
M  V30 5 C 5.041186 0.801317 1.009891 0
M  V30 6 C 3.986217 0.228471 0.052338 0
M  V30 7 C 2.791338 1.091613 0.238564 0
M  V30 8 O 2.625440 2.103258 1.002425 0
M  V30 9 N 1.676353 0.732566 -0.550743 0
M  V30 10 C 0.477900 1.527943 -0.420043 0
M  V30 11 C 0.150532 2.653183 -1.163288 0
M  V30 12 C -1.046215 3.285392 -0.898431 0
M  V30 13 C -1.913316 2.832988 0.073731 0
M  V30 14 C -1.586530 1.714526 0.811861 0
M  V30 15 C -2.469248 1.137303 1.888382 0 CFG=1
M  V30 16 C -3.858807 1.672410 1.860661 0
M  V30 17 N -2.427701 -0.316241 1.704385 0
M  V30 18 C -2.840770 -0.855824 0.455482 0
M  V30 19 N -3.259523 -0.037122 -0.532224 0
M  V30 20 C -3.656102 -0.514937 -1.729106 0
M  V30 21 N -3.668907 -1.830676 -2.039999 0
M  V30 22 C -3.257385 -2.698093 -1.083027 0
M  V30 23 C -3.242500 -4.038325 -1.324648 0
M  V30 24 C -3.656760 -4.587282 -2.593907 0
M  V30 25 N -4.119777 -3.892334 -3.740904 0
M  V30 26 O -3.668745 -5.803370 -2.879206 0
M  V30 27 C -2.831329 -4.934369 -0.376129 0
M  V30 28 C -2.418664 -4.455123 0.866858 0
M  V30 29 C -2.445408 -3.094364 1.079471 0
M  V30 30 C -2.856304 -2.196065 0.132223 0
M  V30 31 C -0.384770 1.046649 0.574077 0
M  V30 32 C 3.746001 -1.173729 0.567032 0
M  V30 33 H 2.575869 -3.018381 2.316957 0
M  V30 34 H 3.495845 -3.339708 3.807216 0
M  V30 35 H 3.112481 -1.650184 3.392810 0
M  V30 36 H 4.842768 -3.525432 1.677343 0
M  V30 37 H 5.509592 -2.529736 3.038389 0
M  V30 38 H 5.913747 -0.187740 2.776695 0
M  V30 39 H 4.107653 0.022849 2.761863 0
M  V30 40 H 4.821592 1.819065 1.329354 0
M  V30 41 H 6.039022 0.690626 0.512028 0
M  V30 42 H 4.344440 0.224538 -0.985308 0
M  V30 43 H 1.579769 -0.056974 -1.247041 0
M  V30 44 H 0.886238 2.939222 -1.903264 0
M  V30 45 H -1.276836 4.156135 -1.489519 0
M  V30 46 H -2.847591 3.331201 0.278341 0
M  V30 47 H -1.974898 1.424903 2.836007 0
M  V30 48 H -3.894808 2.619585 2.464188 0
M  V30 49 H -4.555587 0.910185 2.312258 0
M  V30 50 H -4.152909 1.858897 0.806903 0
M  V30 51 H -2.093408 -0.857235 2.515161 0
M  V30 52 H -3.964195 0.278668 -2.415919 0
M  V30 53 H -5.119854 -3.791822 -4.000832 0
M  V30 54 H -3.575837 -3.381008 -4.496000 0
M  V30 55 H -2.805721 -6.007402 -0.529192 0
M  V30 56 H -2.088843 -5.160120 1.629586 0
M  V30 57 H -2.114188 -2.798571 2.058668 0
M  V30 58 H -0.152046 0.169027 1.169341 0
M  V30 59 H 3.634734 -1.897457 -0.268972 0
M  V30 60 H 2.797410 -1.123362 1.177755 0
M  V30 END ATOM
M  V30 BEGIN BOND
M  V30 1 1 1 2
M  V30 2 1 2 3
M  V30 3 1 3 4
M  V30 4 1 4 5
M  V30 5 1 5 6
M  V30 6 1 6 7
M  V30 7 2 7 8
M  V30 8 1 7 9
M  V30 9 1 9 10
M  V30 10 2 10 11
M  V30 11 1 11 12
M  V30 12 2 12 13
M  V30 13 1 13 14
M  V30 14 1 14 15
M  V30 15 1 15 16
M  V30 16 1 15 17
M  V30 17 1 17 18
M  V30 18 2 18 19
M  V30 19 1 19 20
M  V30 20 2 20 21
M  V30 21 1 21 22
M  V30 22 2 22 23
M  V30 23 1 23 24
M  V30 24 1 24 25
M  V30 25 2 24 26
M  V30 26 1 23 27
M  V30 27 2 27 28
M  V30 28 1 28 29
M  V30 29 2 29 30
M  V30 30 2 14 31
M  V30 31 1 6 32
M  V30 32 1 32 3
M  V30 33 1 31 10
M  V30 34 1 30 18
M  V30 35 1 30 22
M  V30 36 1 1 33
M  V30 37 1 1 34
M  V30 38 1 1 35
M  V30 39 1 2 36
M  V30 40 1 2 37
M  V30 41 1 4 38
M  V30 42 1 4 39
M  V30 43 1 5 40
M  V30 44 1 5 41
M  V30 45 1 6 42
M  V30 46 1 9 43
M  V30 47 1 11 44
M  V30 48 1 12 45
M  V30 49 1 13 46
M  V30 50 1 15 47 CFG=1
M  V30 51 1 16 48
M  V30 52 1 16 49
M  V30 53 1 16 50
M  V30 54 1 17 51
M  V30 55 1 20 52
M  V30 56 1 25 53
M  V30 57 1 25 54
M  V30 58 1 27 55
M  V30 59 1 28 56
M  V30 60 1 29 57
M  V30 61 1 31 58
M  V30 62 1 32 59
M  V30 63 1 32 60
M  V30 END BOND
M  V30 END CTAB
M  END
>  <Dataset>  (394) 
ChEMBL_Kinases

>  <Ligand_Instance>  (394) 
nan

>  <PDB_ID>  (394) 
nan

>  <Standardized_SMILES>  (394) 
CCN1CCC(C(=O)Nc2cccc([C@@H](C)Nc3ncnc4c(C(N)=O)cccc34)c2)C1

>  <Name>  (394) 
nan

>  <Pocket>  (394) 
nan

>  <ATP_Site>  (394) 
nan

>  <Peripheral>  (394) 
nan

>  <Num_H_Atoms_ProtBoundConf>  (394) 
nan

>  <Num_Resolved_Atoms>  (394) 
nan

>  <Num_Not_Resolved_Atoms>  (394) 
nan

$$$$
CHEMBL3680603
     RDKit          3D

  0  0  0  0  0  0  0  0  0  0999 V3000
M  V30 BEGIN CTAB
M  V30 COUNTS 55 59 0 0 0
M  V30 BEGIN ATOM
M  V30 1 C 1.998497 -2.332957 1.713402 0
M  V30 2 C 2.842477 -1.105537 1.769592 0
M  V30 3 C 3.940139 -1.025203 2.632415 0
M  V30 4 C 4.694726 0.146281 2.648836 0
M  V30 5 C 4.386402 1.216617 1.841573 0
M  V30 6 C 5.141342 2.349848 1.889005 0
M  V30 7 C 4.811078 3.407339 1.080811 0
M  V30 8 N 3.767851 3.354201 0.248210 0
M  V30 9 C 2.994092 2.264932 0.162695 0
M  V30 10 N 1.837219 2.007978 -0.631488 0
M  V30 11 C 0.618645 2.086853 0.123298 0
M  V30 12 C 0.618162 2.450772 1.448194 0
M  V30 13 C -0.560621 2.498638 2.184694 0
M  V30 14 C -1.733611 2.167283 1.538766 0
M  V30 15 C -1.742893 1.795600 0.190074 0
M  V30 16 C -3.119228 1.487727 -0.260488 0
M  V30 17 N -3.501540 0.112180 0.015350 0
M  V30 18 C -2.899270 -1.059536 -0.528546 0
M  V30 19 N -1.884232 -0.968318 -1.401872 0
M  V30 20 C -1.255285 -2.003943 -1.974312 0
M  V30 21 N -1.614989 -3.269187 -1.700318 0
M  V30 22 C -2.631889 -3.428217 -0.827512 0
M  V30 23 C -3.089519 -4.678020 -0.462487 0
M  V30 24 C -2.473983 -5.897187 -1.031617 0
M  V30 25 N -1.426943 -5.778160 -1.971530 0
M  V30 26 O -2.811061 -7.072678 -0.744748 0
M  V30 27 C -4.119195 -4.930229 0.425414 0
M  V30 28 C -4.740735 -3.815781 0.993811 0
M  V30 29 C -4.301640 -2.556783 0.644504 0
M  V30 30 C -3.285906 -2.346578 -0.232376 0
M  V30 31 C -0.566496 1.754811 -0.523453 0
M  V30 32 C 3.299063 1.172399 0.967807 0
M  V30 33 C 2.598993 -0.013282 1.003834 0
M  V30 34 H 2.599656 -3.226053 1.995839 0
M  V30 35 H 1.115062 -2.180260 2.361784 0
M  V30 36 H 1.703281 -2.484150 0.644323 0
M  V30 37 H 4.154363 -1.883096 3.254382 0
M  V30 38 H 5.546342 0.219475 3.312914 0
M  V30 39 H 5.993131 2.491000 2.518057 0
M  V30 40 H 5.310787 4.377984 1.000873 0
M  V30 41 H 1.824382 1.785752 -1.644710 0
M  V30 42 H 1.542270 2.715161 1.971104 0
M  V30 43 H -0.501487 2.789543 3.224569 0
M  V30 44 H -2.594630 2.233933 2.189060 0
M  V30 45 H -3.878481 2.163731 0.168383 0
M  V30 46 H -3.174285 1.695256 -1.371290 0
M  V30 47 H -4.292956 0.017117 0.679569 0
M  V30 48 H -0.438404 -1.917467 -2.677393 0
M  V30 49 H -0.539395 -5.684834 -2.502953 0
M  V30 50 H -0.524841 -5.685271 -2.483511 0
M  V30 51 H -4.382324 -5.937251 0.628430 0
M  V30 52 H -5.547334 -4.009404 1.688997 0
M  V30 53 H -4.844777 -1.781683 1.136141 0
M  V30 54 H -0.654865 1.470530 -1.559630 0
M  V30 55 H 1.739939 -0.102808 0.340771 0
M  V30 END ATOM
M  V30 BEGIN BOND
M  V30 1 1 1 2
M  V30 2 2 2 3
M  V30 3 1 3 4
M  V30 4 2 4 5
M  V30 5 1 5 6
M  V30 6 2 6 7
M  V30 7 1 7 8
M  V30 8 2 8 9
M  V30 9 1 9 10
M  V30 10 1 10 11
M  V30 11 2 11 12
M  V30 12 1 12 13
M  V30 13 2 13 14
M  V30 14 1 14 15
M  V30 15 1 15 16
M  V30 16 1 16 17
M  V30 17 1 17 18
M  V30 18 2 18 19
M  V30 19 1 19 20
M  V30 20 2 20 21
M  V30 21 1 21 22
M  V30 22 2 22 23
M  V30 23 1 23 24
M  V30 24 1 24 25
M  V30 25 2 24 26
M  V30 26 1 23 27
M  V30 27 2 27 28
M  V30 28 1 28 29
M  V30 29 2 29 30
M  V30 30 2 15 31
M  V30 31 1 9 32
M  V30 32 2 32 33
M  V30 33 1 33 2
M  V30 34 1 32 5
M  V30 35 1 31 11
M  V30 36 1 30 18
M  V30 37 1 30 22
M  V30 38 1 1 34
M  V30 39 1 1 35
M  V30 40 1 1 36
M  V30 41 1 3 37
M  V30 42 1 4 38
M  V30 43 1 6 39
M  V30 44 1 7 40
M  V30 45 1 10 41
M  V30 46 1 12 42
M  V30 47 1 13 43
M  V30 48 1 14 44
M  V30 49 1 16 45
M  V30 50 1 16 46
M  V30 51 1 17 47
M  V30 52 1 20 48
M  V30 53 1 25 49
M  V30 54 1 25 50
M  V30 55 1 27 51
M  V30 56 1 28 52
M  V30 57 1 29 53
M  V30 58 1 31 54
M  V30 59 1 33 55
M  V30 END BOND
M  V30 END CTAB
M  END
>  <Dataset>  (395) 
ChEMBL_Kinases

>  <Ligand_Instance>  (395) 
nan

>  <PDB_ID>  (395) 
nan

>  <Standardized_SMILES>  (395) 
Cc1ccc2ccnc(Nc3cccc(CNc4ncnc5c(C(N)=O)cccc45)c3)c2c1

>  <Name>  (395) 
nan

>  <Pocket>  (395) 
nan

>  <ATP_Site>  (395) 
nan

>  <Peripheral>  (395) 
nan

>  <Num_H_Atoms_ProtBoundConf>  (395) 
nan

>  <Num_Resolved_Atoms>  (395) 
nan

>  <Num_Not_Resolved_Atoms>  (395) 
nan

$$$$
CHEMBL3680553
     RDKit          3D

  0  0  0  0  0  0  0  0  0  0999 V3000
M  V30 BEGIN CTAB
M  V30 COUNTS 55 58 0 0 0
M  V30 BEGIN ATOM
M  V30 1 C 6.645567 -3.618845 4.928356 0
M  V30 2 O 6.243119 -2.268495 5.186538 0
M  V30 3 C 5.499260 -1.561210 4.255631 0
M  V30 4 C 5.086920 -0.245171 4.467268 0
M  V30 5 C 4.345748 0.469125 3.547136 0
M  V30 6 C 3.979588 -0.116844 2.352127 0
M  V30 7 C 3.185970 0.553706 1.291346 0
M  V30 8 O 3.678314 1.842396 1.084961 0
M  V30 9 N 1.782174 0.655648 1.611710 0
M  V30 10 C 0.870475 1.260769 0.706833 0
M  V30 11 C 1.321273 1.753091 -0.482156 0
M  V30 12 C 0.417648 2.333347 -1.340149 0
M  V30 13 C -0.927873 2.443147 -1.057835 0
M  V30 14 C -1.398514 1.949037 0.142092 0
M  V30 15 C -2.811264 2.003224 0.580614 0
M  V30 16 N -3.495106 0.734739 0.508673 0
M  V30 17 C -3.626947 0.043636 -0.724623 0
M  V30 18 N -3.107396 0.570997 -1.846516 0
M  V30 19 C -3.199166 -0.040539 -3.049481 0
M  V30 20 N -3.813225 -1.222760 -3.232765 0
M  V30 21 C -4.349118 -1.789090 -2.135726 0
M  V30 22 C -4.986918 -3.002766 -2.288487 0
M  V30 23 C -5.093862 -3.676478 -3.579039 0
M  V30 24 N -4.533622 -3.095184 -4.736798 0
M  V30 25 O -5.681883 -4.781107 -3.691629 0
M  V30 26 C -5.542803 -3.598464 -1.174775 0
M  V30 27 C -5.462312 -2.993486 0.064175 0
M  V30 28 C -4.815372 -1.779974 0.172988 0
M  V30 29 C -4.257809 -1.168546 -0.906971 0
M  V30 30 C -0.474655 1.368948 0.992415 0
M  V30 31 F -0.892953 0.871844 2.179262 0
M  V30 32 C 4.410827 -1.429247 2.180974 0
M  V30 33 C 5.150937 -2.188576 3.063827 0
M  V30 34 H 7.125881 -3.601546 3.909822 0
M  V30 35 H 7.434519 -3.929317 5.626702 0
M  V30 36 H 5.802109 -4.309613 4.851050 0
M  V30 37 H 5.366475 0.245859 5.411843 0
M  V30 38 H 4.032912 1.486193 3.723296 0
M  V30 39 H 3.292458 -0.039490 0.363140 0
M  V30 40 H 3.043338 2.517041 1.441015 0
M  V30 41 H 1.397256 0.284310 2.521846 0
M  V30 42 H 2.331029 1.729305 -0.816637 0
M  V30 43 H 0.728698 2.744192 -2.306804 0
M  V30 44 H -1.607224 2.900791 -1.737494 0
M  V30 45 H -3.366327 2.801211 0.006251 0
M  V30 46 H -2.786116 2.375580 1.623150 0
M  V30 47 H -3.876378 0.372385 1.408389 0
M  V30 48 H -2.754041 0.440932 -3.932868 0
M  V30 49 H -3.581274 -3.518903 -4.729470 0
M  V30 50 H -3.576619 -3.202138 -5.175414 0
M  V30 51 H -6.057027 -4.561190 -1.256476 0
M  V30 52 H -5.910601 -3.488805 0.917408 0
M  V30 53 H -4.784985 -1.365144 1.147349 0
M  V30 54 H 4.123161 -1.902954 1.232507 0
M  V30 55 H 5.420818 -3.196508 2.808667 0
M  V30 END ATOM
M  V30 BEGIN BOND
M  V30 1 1 1 2
M  V30 2 1 2 3
M  V30 3 2 3 4
M  V30 4 1 4 5
M  V30 5 2 5 6
M  V30 6 1 6 7
M  V30 7 1 7 8
M  V30 8 1 7 9
M  V30 9 1 9 10
M  V30 10 2 10 11
M  V30 11 1 11 12
M  V30 12 2 12 13
M  V30 13 1 13 14
M  V30 14 1 14 15
M  V30 15 1 15 16
M  V30 16 1 16 17
M  V30 17 2 17 18
M  V30 18 1 18 19
M  V30 19 2 19 20
M  V30 20 1 20 21
M  V30 21 2 21 22
M  V30 22 1 22 23
M  V30 23 1 23 24
M  V30 24 2 23 25
M  V30 25 1 22 26
M  V30 26 2 26 27
M  V30 27 1 27 28
M  V30 28 2 28 29
M  V30 29 2 14 30
M  V30 30 1 30 31
M  V30 31 1 6 32
M  V30 32 2 32 33
M  V30 33 1 33 3
M  V30 34 1 30 10
M  V30 35 1 29 17
M  V30 36 1 29 21
M  V30 37 1 1 34
M  V30 38 1 1 35
M  V30 39 1 1 36
M  V30 40 1 4 37
M  V30 41 1 5 38
M  V30 42 1 7 39
M  V30 43 1 8 40
M  V30 44 1 9 41
M  V30 45 1 11 42
M  V30 46 1 12 43
M  V30 47 1 13 44
M  V30 48 1 15 45
M  V30 49 1 15 46
M  V30 50 1 16 47
M  V30 51 1 19 48
M  V30 52 1 24 49
M  V30 53 1 24 50
M  V30 54 1 26 51
M  V30 55 1 27 52
M  V30 56 1 28 53
M  V30 57 1 32 54
M  V30 58 1 33 55
M  V30 END BOND
M  V30 END CTAB
M  END
>  <Dataset>  (396) 
ChEMBL_Kinases

>  <Ligand_Instance>  (396) 
nan

>  <PDB_ID>  (396) 
nan

>  <Standardized_SMILES>  (396) 
COc1ccc(C(O)Nc2cccc(CNc3ncnc4c(C(N)=O)cccc34)c2F)cc1

>  <Name>  (396) 
nan

>  <Pocket>  (396) 
nan

>  <ATP_Site>  (396) 
nan

>  <Peripheral>  (396) 
nan

>  <Num_H_Atoms_ProtBoundConf>  (396) 
nan

>  <Num_Resolved_Atoms>  (396) 
nan

>  <Num_Not_Resolved_Atoms>  (396) 
nan

$$$$
CHEMBL3680555
     RDKit          3D

  0  0  0  0  0  0  0  0  0  0999 V3000
M  V30 BEGIN CTAB
M  V30 COUNTS 53 57 0 0 0
M  V30 BEGIN ATOM
M  V30 1 N 3.585355 -3.627075 3.223572 0
M  V30 2 C 4.918117 -3.359213 2.732011 0
M  V30 3 O 6.015660 -3.873206 2.953398 0
M  V30 4 C 4.861557 -2.220916 1.772005 0
M  V30 5 C 6.143589 -1.791679 1.381921 0
M  V30 6 C 6.245336 -0.720973 0.478994 0
M  V30 7 C 5.118859 -0.107683 -0.012245 0
M  V30 8 C 3.900828 -0.549642 0.385704 0
M  V30 9 C 2.724843 0.024090 -0.085704 0
M  V30 10 N 2.730535 1.132095 -0.976576 0
M  V30 11 C 1.599622 1.824007 -1.559869 0
M  V30 12 C 0.595784 2.230399 -0.517870 0
M  V30 13 C 0.697189 3.348472 0.275013 0
M  V30 14 C -0.311128 3.633171 1.172786 0
M  V30 15 C -1.406664 2.818579 1.281170 0
M  V30 16 C -1.564201 1.688670 0.515706 0
M  V30 17 N -2.742216 0.936134 0.701155 0
M  V30 18 C -3.146641 -0.233630 0.019920 0
M  V30 19 O -2.436871 -0.740793 -0.868121 0
M  V30 20 C -4.319372 -1.073457 0.118728 0
M  V30 21 C -5.490548 -0.357378 -0.016662 0
M  V30 22 C -6.736741 -0.990102 0.041569 0
M  V30 23 C -6.784232 -2.345986 0.236590 0
M  V30 24 C -5.609879 -3.046122 0.369454 0
M  V30 25 C -5.305056 -4.371654 0.568622 0
M  V30 26 C -3.917260 -4.515788 0.626453 0
M  V30 27 N -3.344719 -3.289002 0.465227 0
M  V30 28 C -4.370588 -2.433295 0.314433 0
M  V30 29 C -0.541676 1.442190 -0.360378 0
M  V30 30 N 1.567190 -0.491342 0.358321 0
M  V30 31 C 1.458424 -1.515883 1.222247 0
M  V30 32 N 2.589463 -2.093565 1.699228 0
M  V30 33 C 3.744276 -1.595711 1.269514 0
M  V30 34 H 2.848178 -4.312795 2.943927 0
M  V30 35 H 3.081604 -3.137481 4.014446 0
M  V30 36 H 7.100592 -2.189058 1.695020 0
M  V30 37 H 7.233411 -0.362502 0.155395 0
M  V30 38 H 5.263702 0.693538 -0.689983 0
M  V30 39 H 3.632010 1.512289 -1.258204 0
M  V30 40 H 1.955439 2.692574 -2.113962 0
M  V30 41 H 1.070537 1.164267 -2.290000 0
M  V30 42 H 1.586244 3.963173 0.149286 0
M  V30 43 H -0.248566 4.495108 1.796826 0
M  V30 44 H -2.176715 3.088195 2.006084 0
M  V30 45 H -3.455987 1.207004 1.409721 0
M  V30 46 H -5.570292 0.709807 -0.175153 0
M  V30 47 H -7.690858 -0.466435 -0.060644 0
M  V30 48 H -7.729802 -2.887526 0.288588 0
M  V30 49 H -5.987625 -5.188186 0.667995 0
M  V30 50 H -3.309272 -5.416111 0.771781 0
M  V30 51 H -2.334034 -3.050694 0.457859 0
M  V30 52 H -0.609272 0.574735 -0.988554 0
M  V30 53 H 0.457936 -1.837598 1.500859 0
M  V30 END ATOM
M  V30 BEGIN BOND
M  V30 1 1 1 2
M  V30 2 2 2 3
M  V30 3 1 2 4
M  V30 4 2 4 5
M  V30 5 1 5 6
M  V30 6 2 6 7
M  V30 7 1 7 8
M  V30 8 2 8 9
M  V30 9 1 9 10
M  V30 10 1 10 11
M  V30 11 1 11 12
M  V30 12 2 12 13
M  V30 13 1 13 14
M  V30 14 2 14 15
M  V30 15 1 15 16
M  V30 16 1 16 17
M  V30 17 1 17 18
M  V30 18 2 18 19
M  V30 19 1 18 20
M  V30 20 2 20 21
M  V30 21 1 21 22
M  V30 22 2 22 23
M  V30 23 1 23 24
M  V30 24 1 24 25
M  V30 25 2 25 26
M  V30 26 1 26 27
M  V30 27 1 27 28
M  V30 28 2 16 29
M  V30 29 1 9 30
M  V30 30 2 30 31
M  V30 31 1 31 32
M  V30 32 2 32 33
M  V30 33 1 33 4
M  V30 34 1 33 8
M  V30 35 1 29 12
M  V30 36 1 28 20
M  V30 37 2 28 24
M  V30 38 1 1 34
M  V30 39 1 1 35
M  V30 40 1 5 36
M  V30 41 1 6 37
M  V30 42 1 7 38
M  V30 43 1 10 39
M  V30 44 1 11 40
M  V30 45 1 11 41
M  V30 46 1 13 42
M  V30 47 1 14 43
M  V30 48 1 15 44
M  V30 49 1 17 45
M  V30 50 1 21 46
M  V30 51 1 22 47
M  V30 52 1 23 48
M  V30 53 1 25 49
M  V30 54 1 26 50
M  V30 55 1 27 51
M  V30 56 1 29 52
M  V30 57 1 31 53
M  V30 END BOND
M  V30 END CTAB
M  END
>  <Dataset>  (397) 
ChEMBL_Kinases

>  <Ligand_Instance>  (397) 
nan

>  <PDB_ID>  (397) 
nan

>  <Standardized_SMILES>  (397) 
NC(=O)c1cccc2c(NCc3cccc(NC(=O)c4cccc5cc[nH]c45)c3)ncnc12

>  <Name>  (397) 
nan

>  <Pocket>  (397) 
nan

>  <ATP_Site>  (397) 
nan

>  <Peripheral>  (397) 
nan

>  <Num_H_Atoms_ProtBoundConf>  (397) 
nan

>  <Num_Resolved_Atoms>  (397) 
nan

>  <Num_Not_Resolved_Atoms>  (397) 
nan

$$$$
CHEMBL3680558
     RDKit          3D

  0  0  0  0  0  0  0  0  0  0999 V3000
M  V30 BEGIN CTAB
M  V30 COUNTS 66 70 0 0 0
M  V30 BEGIN ATOM
M  V30 1 C 4.358181 -2.707570 5.149027 0
M  V30 2 N 3.108962 -3.381353 4.827768 0
M  V30 3 C 2.519773 -2.871247 3.611233 0
M  V30 4 C 2.032423 -1.447809 3.746360 0
M  V30 5 C 1.409272 -0.953319 2.459432 0
M  V30 6 N 0.940542 0.401066 2.558825 0
M  V30 7 C 0.486392 1.012545 1.366235 0
M  V30 8 N 0.507221 0.371734 0.186266 0
M  V30 9 C 0.107133 0.912838 -0.978862 0
M  V30 10 N -0.357823 2.173002 -1.046010 0
M  V30 11 C -0.388560 2.844794 0.137119 0
M  V30 12 C -0.852879 4.138540 0.131241 0
M  V30 13 C -1.252155 4.679824 -1.149392 0
M  V30 14 N -1.722454 5.995684 -1.333080 0
M  V30 15 O -1.389768 4.473837 -2.364450 0
M  V30 16 C -0.961423 4.971392 1.222377 0
M  V30 17 C -0.536100 4.364551 2.411837 0
M  V30 18 C -0.057323 3.075793 2.499677 0
M  V30 19 C 0.015267 2.315608 1.353764 0
M  V30 20 C 0.242129 -1.818178 2.086737 0
M  V30 21 C -0.787343 -1.597474 3.002850 0
M  V30 22 C -1.960327 -2.320455 2.856395 0
M  V30 23 C -2.128708 -3.230502 1.846835 0
M  V30 24 C -1.091043 -3.443701 0.931475 0
M  V30 25 N -1.155703 -4.382269 -0.136031 0
M  V30 26 C -0.178160 -4.628269 -1.182672 0
M  V30 27 O 1.099391 -4.844224 -0.753790 0
M  V30 28 C -0.224227 -3.549802 -2.208516 0
M  V30 29 C -1.541780 -3.210732 -2.541089 0
M  V30 30 C -1.515173 -2.200815 -3.506953 0
M  V30 31 C -2.682894 -1.535300 -4.146110 0
M  V30 32 C -2.594536 -0.854096 -5.442004 0
M  V30 33 C -2.537536 -0.009593 -4.222348 0
M  V30 34 N -0.211985 -1.957216 -3.731472 0
M  V30 35 N 0.531620 -2.745705 -2.971901 0
M  V30 36 C 0.092634 -2.733094 1.058632 0
M  V30 37 H 4.916558 -2.456012 4.246162 0
M  V30 38 H 4.935620 -3.358463 5.827981 0
M  V30 39 H 4.052422 -1.809578 5.755844 0
M  V30 40 H 2.449994 -3.384980 5.628049 0
M  V30 41 H 1.689831 -3.564905 3.336161 0
M  V30 42 H 3.269350 -2.986792 2.802147 0
M  V30 43 H 1.346390 -1.357404 4.615942 0
M  V30 44 H 2.902856 -0.802511 3.953121 0
M  V30 45 H 2.148358 -1.029910 1.658778 0
M  V30 46 H 0.978817 0.819438 3.508751 0
M  V30 47 H 0.164716 0.313415 -1.881657 0
M  V30 48 H -1.477585 7.028502 -1.405233 0
M  V30 49 H -2.089354 6.935335 -1.468950 0
M  V30 50 H -1.325462 5.989878 1.213333 0
M  V30 51 H -0.580234 4.935223 3.336311 0
M  V30 52 H 0.247925 2.671910 3.430339 0
M  V30 53 H -0.837589 -0.937787 3.835106 0
M  V30 54 H -2.825120 -2.222973 3.520616 0
M  V30 55 H -3.036235 -3.804414 1.732929 0
M  V30 56 H -2.050114 -4.939253 -0.115352 0
M  V30 57 H -0.562116 -5.543021 -1.746630 0
M  V30 58 H 1.733247 -4.394043 -1.353880 0
M  V30 59 H -2.524033 -3.582177 -2.195090 0
M  V30 60 H -3.661489 -1.915387 -3.757600 0
M  V30 61 H -1.625929 -1.015152 -6.003947 0
M  V30 62 H -3.538792 -0.766250 -6.031943 0
M  V30 63 H -1.553430 0.447414 -3.994009 0
M  V30 64 H -3.418304 0.548979 -3.900878 0
M  V30 65 H 1.546291 -2.912558 -2.804115 0
M  V30 66 H 0.957152 -2.789309 0.445548 0
M  V30 END ATOM
M  V30 BEGIN BOND
M  V30 1 1 1 2
M  V30 2 1 2 3
M  V30 3 1 3 4
M  V30 4 1 4 5
M  V30 5 1 5 6
M  V30 6 1 6 7
M  V30 7 2 7 8
M  V30 8 1 8 9
M  V30 9 2 9 10
M  V30 10 1 10 11
M  V30 11 2 11 12
M  V30 12 1 12 13
M  V30 13 1 13 14
M  V30 14 2 13 15
M  V30 15 1 12 16
M  V30 16 2 16 17
M  V30 17 1 17 18
M  V30 18 2 18 19
M  V30 19 1 5 20
M  V30 20 2 20 21
M  V30 21 1 21 22
M  V30 22 2 22 23
M  V30 23 1 23 24
M  V30 24 1 24 25
M  V30 25 1 25 26
M  V30 26 1 26 27
M  V30 27 1 26 28
M  V30 28 2 28 29
M  V30 29 1 29 30
M  V30 30 1 30 31
M  V30 31 1 31 32
M  V30 32 1 32 33
M  V30 33 2 30 34
M  V30 34 1 34 35
M  V30 35 2 24 36
M  V30 36 1 19 7
M  V30 37 1 36 20
M  V30 38 1 19 11
M  V30 39 1 35 28
M  V30 40 1 33 31
M  V30 41 1 1 37
M  V30 42 1 1 38
M  V30 43 1 1 39
M  V30 44 1 2 40
M  V30 45 1 3 41
M  V30 46 1 3 42
M  V30 47 1 4 43
M  V30 48 1 4 44
M  V30 49 1 5 45
M  V30 50 1 6 46
M  V30 51 1 9 47
M  V30 52 1 14 48
M  V30 53 1 14 49
M  V30 54 1 16 50
M  V30 55 1 17 51
M  V30 56 1 18 52
M  V30 57 1 21 53
M  V30 58 1 22 54
M  V30 59 1 23 55
M  V30 60 1 25 56
M  V30 61 1 26 57
M  V30 62 1 27 58
M  V30 63 1 29 59
M  V30 64 1 31 60
M  V30 65 1 32 61
M  V30 66 1 32 62
M  V30 67 1 33 63
M  V30 68 1 33 64
M  V30 69 1 35 65
M  V30 70 1 36 66
M  V30 END BOND
M  V30 END CTAB
M  END
>  <Dataset>  (398) 
ChEMBL_Kinases

>  <Ligand_Instance>  (398) 
nan

>  <PDB_ID>  (398) 
nan

>  <Standardized_SMILES>  (398) 
CNCCC(Nc1ncnc2c(C(N)=O)cccc12)c1cccc(NC(O)c2cc(C3CC3)n[nH]2)c1

>  <Name>  (398) 
nan

>  <Pocket>  (398) 
nan

>  <ATP_Site>  (398) 
nan

>  <Peripheral>  (398) 
nan

>  <Num_H_Atoms_ProtBoundConf>  (398) 
nan

>  <Num_Resolved_Atoms>  (398) 
nan

>  <Num_Not_Resolved_Atoms>  (398) 
nan

$$$$
CHEMBL3680559
     RDKit          3D

  0  0  0  0  0  0  0  0  0  0999 V3000
M  V30 BEGIN CTAB
M  V30 COUNTS 71 76 0 0 0
M  V30 BEGIN ATOM
M  V30 1 N 1.810898 -6.781931 2.553995 0
M  V30 2 C 2.962810 -5.969985 2.504212 0
M  V30 3 O 3.993751 -6.294645 3.138603 0
M  V30 4 C 2.911529 -4.756235 1.699132 0
M  V30 5 C 4.009779 -3.950562 1.628298 0
M  V30 6 C 3.986927 -2.783692 0.865650 0
M  V30 7 C 2.826313 -2.474615 0.191208 0
M  V30 8 C 1.708666 -3.250802 0.235016 0
M  V30 9 C 0.581458 -2.880152 -0.465421 0
M  V30 10 N 0.495899 -1.697245 -1.264188 0
M  V30 11 C -0.733012 -1.413511 -1.950058 0
M  V30 12 C -0.657670 -0.126766 -2.754048 0
M  V30 13 C 0.414980 -0.185321 -3.793074 0
M  V30 14 N 0.486556 1.047518 -4.562445 0
M  V30 15 C 1.527369 0.992152 -5.569957 0
M  V30 16 C 1.017015 1.682641 -6.790799 0
M  V30 17 C -0.374880 2.136345 -6.470288 0
M  V30 18 C -0.747568 1.318384 -5.276320 0
M  V30 19 C -1.901445 -1.382305 -1.021539 0
M  V30 20 C -3.134996 -1.970184 -1.223403 0
M  V30 21 C -4.112774 -1.844074 -0.257127 0
M  V30 22 C -3.898983 -1.145740 0.912504 0
M  V30 23 C -2.687543 -0.541738 1.161481 0
M  V30 24 N -2.356572 0.209777 2.343753 0
M  V30 25 C -2.601790 1.621791 2.371880 0
M  V30 26 O -3.107856 2.163186 1.340529 0
M  V30 27 C -2.261902 2.376029 3.577737 0
M  V30 28 C -1.707905 1.927793 4.772956 0
M  V30 29 C -1.566409 3.015565 5.630178 0
M  V30 30 C -1.006105 2.951467 7.017162 0
M  V30 31 C -1.211664 1.620838 7.771230 0
M  V30 32 C 0.132193 1.897412 7.203495 0
M  V30 33 N -2.025075 4.074480 4.956538 0
M  V30 34 N -2.440362 3.702562 3.735525 0
M  V30 35 C -1.703222 -0.677342 0.172266 0
M  V30 36 N -0.477569 -3.700310 -0.369278 0
M  V30 37 C -0.405134 -4.811302 0.377579 0
M  V30 38 N 0.692111 -5.183610 1.066911 0
M  V30 39 C 1.784643 -4.392789 1.003454 0
M  V30 40 H 1.070701 -6.414457 3.190881 0
M  V30 41 H 0.994296 -7.412571 2.551854 0
M  V30 42 H 4.860105 -4.288768 2.194442 0
M  V30 43 H 4.892756 -2.175022 0.843392 0
M  V30 44 H 2.862618 -1.578650 -0.372378 0
M  V30 45 H 1.254987 -1.001457 -1.402891 0
M  V30 46 H -0.941000 -2.229118 -2.682118 0
M  V30 47 H -0.392764 0.735143 -2.084074 0
M  V30 48 H -1.646625 0.120802 -3.179334 0
M  V30 49 H 1.392431 -0.328209 -3.322283 0
M  V30 50 H 0.290445 -1.068399 -4.481685 0
M  V30 51 H 2.426256 1.478231 -5.137811 0
M  V30 52 H 1.801872 -0.052608 -5.824630 0
M  V30 53 H 1.061075 1.017520 -7.702190 0
M  V30 54 H 1.675645 2.560061 -7.019768 0
M  V30 55 H -0.387179 3.224525 -6.238198 0
M  V30 56 H -1.068447 1.970146 -7.337589 0
M  V30 57 H -1.300102 0.386476 -5.517724 0
M  V30 58 H -1.384784 1.943001 -4.627329 0
M  V30 59 H -3.244561 -2.498216 -2.146209 0
M  V30 60 H -5.069381 -2.301907 -0.417349 0
M  V30 61 H -4.646587 -1.029806 1.688207 0
M  V30 62 H -1.938257 -0.297689 3.168809 0
M  V30 63 H -1.439975 0.920781 4.988219 0
M  V30 64 H -0.936369 3.869814 7.618043 0
M  V30 65 H -1.870846 0.900137 7.248765 0
M  V30 66 H -1.361207 1.680083 8.868842 0
M  V30 67 H 0.442912 1.360438 6.275946 0
M  V30 68 H 0.921118 2.127159 7.920579 0
M  V30 69 H -2.850533 4.326251 2.984606 0
M  V30 70 H -0.733022 -0.193315 0.372341 0
M  V30 71 H -1.320767 -5.402890 0.384889 0
M  V30 END ATOM
M  V30 BEGIN BOND
M  V30 1 1 1 2
M  V30 2 2 2 3
M  V30 3 1 2 4
M  V30 4 2 4 5
M  V30 5 1 5 6
M  V30 6 2 6 7
M  V30 7 1 7 8
M  V30 8 2 8 9
M  V30 9 1 9 10
M  V30 10 1 10 11
M  V30 11 1 11 12
M  V30 12 1 12 13
M  V30 13 1 13 14
M  V30 14 1 14 15
M  V30 15 1 15 16
M  V30 16 1 16 17
M  V30 17 1 17 18
M  V30 18 1 11 19
M  V30 19 2 19 20
M  V30 20 1 20 21
M  V30 21 2 21 22
M  V30 22 1 22 23
M  V30 23 1 23 24
M  V30 24 1 24 25
M  V30 25 2 25 26
M  V30 26 1 25 27
M  V30 27 2 27 28
M  V30 28 1 28 29
M  V30 29 1 29 30
M  V30 30 1 30 31
M  V30 31 1 31 32
M  V30 32 2 29 33
M  V30 33 1 33 34
M  V30 34 2 23 35
M  V30 35 1 9 36
M  V30 36 2 36 37
M  V30 37 1 37 38
M  V30 38 2 38 39
M  V30 39 1 39 4
M  V30 40 1 39 8
M  V30 41 1 18 14
M  V30 42 1 35 19
M  V30 43 1 34 27
M  V30 44 1 32 30
M  V30 45 1 1 40
M  V30 46 1 1 41
M  V30 47 1 5 42
M  V30 48 1 6 43
M  V30 49 1 7 44
M  V30 50 1 10 45
M  V30 51 1 11 46
M  V30 52 1 12 47
M  V30 53 1 12 48
M  V30 54 1 13 49
M  V30 55 1 13 50
M  V30 56 1 15 51
M  V30 57 1 15 52
M  V30 58 1 16 53
M  V30 59 1 16 54
M  V30 60 1 17 55
M  V30 61 1 17 56
M  V30 62 1 18 57
M  V30 63 1 18 58
M  V30 64 1 20 59
M  V30 65 1 21 60
M  V30 66 1 22 61
M  V30 67 1 24 62
M  V30 68 1 28 63
M  V30 69 1 30 64
M  V30 70 1 31 65
M  V30 71 1 31 66
M  V30 72 1 32 67
M  V30 73 1 32 68
M  V30 74 1 34 69
M  V30 75 1 35 70
M  V30 76 1 37 71
M  V30 END BOND
M  V30 END CTAB
M  END
>  <Dataset>  (399) 
ChEMBL_Kinases

>  <Ligand_Instance>  (399) 
nan

>  <PDB_ID>  (399) 
nan

>  <Standardized_SMILES>  (399) 
NC(=O)c1cccc2c(NC(CCN3CCCC3)c3cccc(NC(=O)c4cc(C5CC5)n[nH]4)c3)ncnc12

>  <Name>  (399) 
nan

>  <Pocket>  (399) 
nan

>  <ATP_Site>  (399) 
nan

>  <Peripheral>  (399) 
nan

>  <Num_H_Atoms_ProtBoundConf>  (399) 
nan

>  <Num_Resolved_Atoms>  (399) 
nan

>  <Num_Not_Resolved_Atoms>  (399) 
nan

$$$$
CHEMBL3680560
     RDKit          3D

  0  0  0  0  0  0  0  0  0  0999 V3000
M  V30 BEGIN CTAB
M  V30 COUNTS 53 57 0 0 0
M  V30 BEGIN ATOM
M  V30 1 N 5.173215 -3.238750 1.956889 0
M  V30 2 C 6.018681 -2.177520 2.389794 0
M  V30 3 O 7.090365 -2.396702 3.009945 0
M  V30 4 C 5.640901 -0.782344 2.111007 0
M  V30 5 C 6.474558 0.229145 2.539392 0
M  V30 6 C 6.093510 1.532847 2.262934 0
M  V30 7 C 4.914554 1.747685 1.581971 0
M  V30 8 C 4.067361 0.754675 1.145036 0
M  V30 9 C 2.912044 1.076712 0.472652 0
M  V30 10 N 2.509490 2.397435 0.180349 0
M  V30 11 C 1.311206 2.759578 -0.517122 0
M  V30 12 C 0.040877 2.381544 0.099482 0
M  V30 13 C -0.406186 3.357423 1.004017 0
M  V30 14 C -1.598399 3.214117 1.705538 0
M  V30 15 C -2.391880 2.091553 1.532465 0
M  V30 16 C -1.946181 1.153556 0.652241 0
M  V30 17 N -2.690635 -0.035558 0.405182 0
M  V30 18 C -3.701809 -0.337481 -0.538711 0
M  V30 19 O -4.133396 0.488620 -1.383955 0
M  V30 20 C -4.272428 -1.679978 -0.528399 0
M  V30 21 C -5.253495 -2.093513 -1.388320 0
M  V30 22 C -5.516940 -3.410797 -1.060464 0
M  V30 23 C -6.390423 -4.372826 -1.550996 0
M  V30 24 C -6.456954 -5.648248 -1.031481 0
M  V30 25 Cl -7.551886 -6.875371 -1.636554 0
M  V30 26 C -5.634108 -6.001506 0.014065 0
M  V30 27 C -4.747370 -5.075347 0.535420 0
M  V30 28 C -4.695741 -3.803101 0.001407 0
M  V30 29 N -3.965297 -2.710093 0.277961 0
M  V30 30 C -0.775315 1.279429 -0.046149 0
M  V30 31 N 2.185446 0.010403 0.107758 0
M  V30 32 C 2.548583 -1.254007 0.372247 0
M  V30 33 N 3.701357 -1.548817 1.041927 0
M  V30 34 C 4.478852 -0.514432 1.437248 0
M  V30 35 H 5.432285 -3.637645 1.013424 0
M  V30 36 H 4.335291 -3.738488 2.348279 0
M  V30 37 H 7.382614 -0.020241 3.067720 0
M  V30 38 H 6.748004 2.320135 2.599556 0
M  V30 39 H 4.707729 2.791726 1.416575 0
M  V30 40 H 3.050493 3.246928 0.447495 0
M  V30 41 H 1.257205 3.800666 -0.866273 0
M  V30 42 H 1.354315 2.168690 -1.488150 0
M  V30 43 H 0.116486 4.296374 1.242311 0
M  V30 44 H -1.954068 3.958223 2.405057 0
M  V30 45 H -3.319921 1.920924 2.041869 0
M  V30 46 H -2.308973 -0.683537 1.114388 0
M  V30 47 H -5.748234 -1.526107 -2.181410 0
M  V30 48 H -7.043363 -4.111838 -2.371699 0
M  V30 49 H -5.605419 -6.967249 0.492175 0
M  V30 50 H -4.074700 -5.288824 1.355259 0
M  V30 51 H -3.234579 -2.642246 1.029704 0
M  V30 52 H -0.380340 0.573847 -0.755382 0
M  V30 53 H 1.838685 -1.993655 0.001933 0
M  V30 END ATOM
M  V30 BEGIN BOND
M  V30 1 1 1 2
M  V30 2 2 2 3
M  V30 3 1 2 4
M  V30 4 2 4 5
M  V30 5 1 5 6
M  V30 6 2 6 7
M  V30 7 1 7 8
M  V30 8 2 8 9
M  V30 9 1 9 10
M  V30 10 1 10 11
M  V30 11 1 11 12
M  V30 12 2 12 13
M  V30 13 1 13 14
M  V30 14 2 14 15
M  V30 15 1 15 16
M  V30 16 1 16 17
M  V30 17 1 17 18
M  V30 18 2 18 19
M  V30 19 1 18 20
M  V30 20 2 20 21
M  V30 21 1 21 22
M  V30 22 2 22 23
M  V30 23 1 23 24
M  V30 24 1 24 25
M  V30 25 2 24 26
M  V30 26 1 26 27
M  V30 27 2 27 28
M  V30 28 1 28 29
M  V30 29 2 16 30
M  V30 30 1 9 31
M  V30 31 2 31 32
M  V30 32 1 32 33
M  V30 33 2 33 34
M  V30 34 1 34 4
M  V30 35 1 34 8
M  V30 36 1 30 12
M  V30 37 1 29 20
M  V30 38 1 28 22
M  V30 39 1 1 35
M  V30 40 1 1 36
M  V30 41 1 5 37
M  V30 42 1 6 38
M  V30 43 1 7 39
M  V30 44 1 10 40
M  V30 45 1 11 41
M  V30 46 1 11 42
M  V30 47 1 13 43
M  V30 48 1 14 44
M  V30 49 1 15 45
M  V30 50 1 17 46
M  V30 51 1 21 47
M  V30 52 1 23 48
M  V30 53 1 26 49
M  V30 54 1 27 50
M  V30 55 1 29 51
M  V30 56 1 30 52
M  V30 57 1 32 53
M  V30 END BOND
M  V30 END CTAB
M  END
>  <Dataset>  (400) 
ChEMBL_Kinases

>  <Ligand_Instance>  (400) 
nan

>  <PDB_ID>  (400) 
nan

>  <Standardized_SMILES>  (400) 
NC(=O)c1cccc2c(NCc3cccc(NC(=O)c4cc5cc(Cl)ccc5[nH]4)c3)ncnc12

>  <Name>  (400) 
nan

>  <Pocket>  (400) 
nan

>  <ATP_Site>  (400) 
nan

>  <Peripheral>  (400) 
nan

>  <Num_H_Atoms_ProtBoundConf>  (400) 
nan

>  <Num_Resolved_Atoms>  (400) 
nan

>  <Num_Not_Resolved_Atoms>  (400) 
nan

$$$$
CHEMBL3680561
     RDKit          3D

  0  0  0  0  0  0  0  0  0  0999 V3000
M  V30 BEGIN CTAB
M  V30 COUNTS 53 57 0 0 0
M  V30 BEGIN ATOM
M  V30 1 N 4.136151 -3.674945 2.592131 0
M  V30 2 C 5.339042 -3.111522 2.088255 0
M  V30 3 O 6.433338 -3.433497 2.620984 0
M  V30 4 C 5.286615 -2.177040 0.972205 0
M  V30 5 C 6.450256 -1.626858 0.476620 0
M  V30 6 C 6.391912 -0.727384 -0.595118 0
M  V30 7 C 5.147084 -0.431285 -1.111438 0
M  V30 8 C 3.981702 -0.957818 -0.644146 0
M  V30 9 C 2.777192 -0.607830 -1.218252 0
M  V30 10 N 2.647423 0.294717 -2.297829 0
M  V30 11 C 1.403145 0.684127 -2.920655 0
M  V30 12 C 0.440127 1.332379 -2.021820 0
M  V30 13 C 0.614011 2.700307 -1.880194 0
M  V30 14 C -0.229129 3.437917 -1.071342 0
M  V30 15 C -1.273737 2.856766 -0.372859 0
M  V30 16 C -1.457986 1.490619 -0.506543 0
M  V30 17 N -2.500613 0.763959 0.159295 0
M  V30 18 C -2.642676 0.077661 1.414900 0
M  V30 19 O -1.633048 0.090921 2.139938 0
M  V30 20 C -3.942230 -0.528023 1.649152 0
M  V30 21 C -5.071651 -0.548733 0.859061 0
M  V30 22 C -6.211074 -1.192701 1.285011 0
M  V30 23 C -6.264745 -1.842734 2.521470 0
M  V30 24 N -7.291325 -2.513899 3.086513 0
M  V30 25 C -6.803106 -2.924068 4.252621 0
M  V30 26 C -5.495918 -2.537621 4.454413 0
M  V30 27 C -5.130521 -1.823755 3.318451 0
M  V30 28 C -3.989163 -1.176151 2.886693 0
M  V30 29 C -0.606374 0.780305 -1.316501 0
M  V30 30 N 1.727523 -1.213773 -0.641818 0
M  V30 31 C 1.804199 -2.074536 0.385822 0
M  V30 32 N 2.980463 -2.412173 0.942249 0
M  V30 33 C 4.075723 -1.837695 0.408939 0
M  V30 34 H 3.929248 -4.055035 3.540876 0
M  V30 35 H 4.118036 -4.012029 3.600506 0
M  V30 36 H 7.386313 -1.891148 0.914521 0
M  V30 37 H 7.313300 -0.314204 -0.960228 0
M  V30 38 H 5.186392 0.254814 -1.918242 0
M  V30 39 H 3.478297 0.752290 -2.726400 0
M  V30 40 H 0.958339 -0.257347 -3.310513 0
M  V30 41 H 1.563129 1.318279 -3.799270 0
M  V30 42 H 1.367225 3.346484 -2.337767 0
M  V30 43 H -0.150351 4.525143 -0.912306 0
M  V30 44 H -1.971219 3.368595 0.277328 0
M  V30 45 H -3.205346 0.884528 -0.602791 0
M  V30 46 H -4.941167 -0.028486 -0.064931 0
M  V30 47 H -7.035185 -1.149130 0.593366 0
M  V30 48 H -8.226540 -2.637435 2.641847 0
M  V30 49 H -7.398876 -3.506555 4.961511 0
M  V30 50 H -4.852740 -2.729937 5.306970 0
M  V30 51 H -3.180387 -1.238211 3.602596 0
M  V30 52 H -0.739013 -0.269479 -1.435409 0
M  V30 53 H 0.894000 -2.510754 0.779732 0
M  V30 END ATOM
M  V30 BEGIN BOND
M  V30 1 1 1 2
M  V30 2 2 2 3
M  V30 3 1 2 4
M  V30 4 2 4 5
M  V30 5 1 5 6
M  V30 6 2 6 7
M  V30 7 1 7 8
M  V30 8 2 8 9
M  V30 9 1 9 10
M  V30 10 1 10 11
M  V30 11 1 11 12
M  V30 12 2 12 13
M  V30 13 1 13 14
M  V30 14 2 14 15
M  V30 15 1 15 16
M  V30 16 1 16 17
M  V30 17 1 17 18
M  V30 18 2 18 19
M  V30 19 1 18 20
M  V30 20 2 20 21
M  V30 21 1 21 22
M  V30 22 2 22 23
M  V30 23 1 23 24
M  V30 24 1 24 25
M  V30 25 2 25 26
M  V30 26 1 26 27
M  V30 27 2 27 28
M  V30 28 2 16 29
M  V30 29 1 9 30
M  V30 30 2 30 31
M  V30 31 1 31 32
M  V30 32 2 32 33
M  V30 33 1 33 4
M  V30 34 1 33 8
M  V30 35 1 29 12
M  V30 36 1 28 20
M  V30 37 1 27 23
M  V30 38 1 1 34
M  V30 39 1 1 35
M  V30 40 1 5 36
M  V30 41 1 6 37
M  V30 42 1 7 38
M  V30 43 1 10 39
M  V30 44 1 11 40
M  V30 45 1 11 41
M  V30 46 1 13 42
M  V30 47 1 14 43
M  V30 48 1 15 44
M  V30 49 1 17 45
M  V30 50 1 21 46
M  V30 51 1 22 47
M  V30 52 1 24 48
M  V30 53 1 25 49
M  V30 54 1 26 50
M  V30 55 1 28 51
M  V30 56 1 29 52
M  V30 57 1 31 53
M  V30 END BOND
M  V30 END CTAB
M  END
>  <Dataset>  (401) 
ChEMBL_Kinases

>  <Ligand_Instance>  (401) 
nan

>  <PDB_ID>  (401) 
nan

>  <Standardized_SMILES>  (401) 
NC(=O)c1cccc2c(NCc3cccc(NC(=O)c4ccc5[nH]ccc5c4)c3)ncnc12

>  <Name>  (401) 
nan

>  <Pocket>  (401) 
nan

>  <ATP_Site>  (401) 
nan

>  <Peripheral>  (401) 
nan

>  <Num_H_Atoms_ProtBoundConf>  (401) 
nan

>  <Num_Resolved_Atoms>  (401) 
nan

>  <Num_Not_Resolved_Atoms>  (401) 
nan

$$$$
CHEMBL3680562
     RDKit          3D

  0  0  0  0  0  0  0  0  0  0999 V3000
M  V30 BEGIN CTAB
M  V30 COUNTS 53 56 0 0 0
M  V30 BEGIN ATOM
M  V30 1 N -3.746781 -3.167684 -4.854067 0
M  V30 2 C -3.355779 -4.137391 -3.907867 0
M  V30 3 O -3.433488 -5.330276 -4.302128 0
M  V30 4 C -2.885533 -3.867977 -2.556262 0
M  V30 5 C -2.553049 -4.972373 -1.794164 0
M  V30 6 C -2.100951 -4.721891 -0.495891 0
M  V30 7 C -2.006484 -3.429185 -0.039108 0
M  V30 8 C -2.339203 -2.336008 -0.803524 0
M  V30 9 C -2.209670 -1.077136 -0.253900 0
M  V30 10 N -1.754419 -0.801867 1.056450 0
M  V30 11 C -1.682769 0.590513 1.465024 0
M  V30 12 C -1.178531 0.723697 2.862775 0
M  V30 13 C 0.190802 0.154415 3.032598 0
M  V30 14 O 0.654253 0.284082 4.355694 0
M  V30 15 C -0.994711 1.427406 0.471711 0
M  V30 16 C -1.517516 2.681566 0.130901 0
M  V30 17 C -0.976239 3.561963 -0.783107 0
M  V30 18 C 0.184241 3.172148 -1.418597 0
M  V30 19 C 0.753968 1.939823 -1.125406 0
M  V30 20 N 1.952449 1.577894 -1.805203 0
M  V30 21 C 3.123604 1.977760 -1.138790 0
M  V30 22 O 3.501420 2.574505 -0.097818 0
M  V30 23 C 4.486896 1.734607 -1.614514 0
M  V30 24 C 4.691223 2.042652 -3.098270 0
M  V30 25 C 4.854328 0.675905 -2.573124 0
M  V30 26 F 3.927235 -0.309762 -2.847074 0
M  V30 27 F 6.158023 0.217686 -2.538092 0
M  V30 28 C 0.165033 1.102871 -0.201293 0
M  V30 29 N -2.565302 -0.095233 -1.098630 0
M  V30 30 C -3.002468 -0.316488 -2.350915 0
M  V30 31 N -3.125248 -1.548745 -2.877774 0
M  V30 32 C -2.786462 -2.574445 -2.086556 0
M  V30 33 H -3.229943 -3.174316 -5.779717 0
M  V30 34 H -4.488592 -2.414259 -4.795145 0
M  V30 35 H -2.621329 -5.978403 -2.135065 0
M  V30 36 H -1.832222 -5.580353 0.125110 0
M  V30 37 H -1.654457 -3.328328 0.957760 0
M  V30 38 H -1.467097 -1.506831 1.754575 0
M  V30 39 H -2.764012 0.932282 1.501244 0
M  V30 40 H -1.877801 0.186143 3.546411 0
M  V30 41 H -1.248206 1.789237 3.182342 0
M  V30 42 H 0.174868 -0.928624 2.799072 0
M  V30 43 H 0.931736 0.616417 2.334794 0
M  V30 44 H 1.124253 -0.531157 4.631690 0
M  V30 45 H -2.443954 3.003056 0.632353 0
M  V30 46 H -1.470476 4.506496 -0.965129 0
M  V30 47 H 0.650402 3.824416 -2.144105 0
M  V30 48 H 2.103633 1.071585 -2.704724 0
M  V30 49 H 5.302454 2.130627 -0.948160 0
M  V30 50 H 5.555554 2.662980 -3.392497 0
M  V30 51 H 3.790965 2.190386 -3.731706 0
M  V30 52 H 0.614535 0.156667 0.012144 0
M  V30 53 H -3.236412 0.614407 -2.863915 0
M  V30 END ATOM
M  V30 BEGIN BOND
M  V30 1 1 1 2
M  V30 2 2 2 3
M  V30 3 1 2 4
M  V30 4 2 4 5
M  V30 5 1 5 6
M  V30 6 2 6 7
M  V30 7 1 7 8
M  V30 8 2 8 9
M  V30 9 1 9 10
M  V30 10 1 10 11
M  V30 11 1 11 12
M  V30 12 1 12 13
M  V30 13 1 13 14
M  V30 14 1 11 15
M  V30 15 2 15 16
M  V30 16 1 16 17
M  V30 17 2 17 18
M  V30 18 1 18 19
M  V30 19 1 19 20
M  V30 20 1 20 21
M  V30 21 2 21 22
M  V30 22 1 21 23
M  V30 23 1 23 24
M  V30 24 1 24 25
M  V30 25 1 25 26
M  V30 26 1 25 27
M  V30 27 2 19 28
M  V30 28 1 9 29
M  V30 29 2 29 30
M  V30 30 1 30 31
M  V30 31 2 31 32
M  V30 32 1 32 4
M  V30 33 1 32 8
M  V30 34 1 28 15
M  V30 35 1 25 23
M  V30 36 1 1 33
M  V30 37 1 1 34
M  V30 38 1 5 35
M  V30 39 1 6 36
M  V30 40 1 7 37
M  V30 41 1 10 38
M  V30 42 1 11 39
M  V30 43 1 12 40
M  V30 44 1 12 41
M  V30 45 1 13 42
M  V30 46 1 13 43
M  V30 47 1 14 44
M  V30 48 1 16 45
M  V30 49 1 17 46
M  V30 50 1 18 47
M  V30 51 1 20 48
M  V30 52 1 23 49
M  V30 53 1 24 50
M  V30 54 1 24 51
M  V30 55 1 28 52
M  V30 56 1 30 53
M  V30 END BOND
M  V30 END CTAB
M  END
>  <Dataset>  (402) 
ChEMBL_Kinases

>  <Ligand_Instance>  (402) 
nan

>  <PDB_ID>  (402) 
nan

>  <Standardized_SMILES>  (402) 
NC(=O)c1cccc2c(NC(CCO)c3cccc(NC(=O)C4CC4(F)F)c3)ncnc12

>  <Name>  (402) 
nan

>  <Pocket>  (402) 
nan

>  <ATP_Site>  (402) 
nan

>  <Peripheral>  (402) 
nan

>  <Num_H_Atoms_ProtBoundConf>  (402) 
nan

>  <Num_Resolved_Atoms>  (402) 
nan

>  <Num_Not_Resolved_Atoms>  (402) 
nan

$$$$
CHEMBL3680563
     RDKit          3D

  0  0  0  0  0  0  0  0  0  0999 V3000
M  V30 BEGIN CTAB
M  V30 COUNTS 54 57 0 0 0
M  V30 BEGIN ATOM
M  V30 1 C 6.854161 -3.546215 3.618273 0
M  V30 2 O 6.039132 -2.598228 4.278326 0
M  V30 3 C 5.200587 -1.812790 3.499611 0
M  V30 4 C 4.410116 -0.887321 4.187511 0
M  V30 5 N 3.545118 -0.055637 3.549571 0
M  V30 6 C 3.445644 -0.126254 2.198551 0
M  V30 7 C 2.564743 0.696040 1.361172 0
M  V30 8 O 2.494960 0.606098 0.087890 0
M  V30 9 N 1.676201 1.697949 1.858161 0
M  V30 10 C 0.979645 2.296836 0.791543 0
M  V30 11 C 1.486242 3.401519 0.160978 0
M  V30 12 C 0.781163 3.949798 -0.866710 0
M  V30 13 C -0.409410 3.382878 -1.238483 0
M  V30 14 C -0.999213 2.250922 -0.645198 0
M  V30 15 C -2.269259 1.815023 -1.203874 0 CFG=1
M  V30 16 C -2.628858 2.606028 -2.458255 0
M  V30 17 N -2.500605 0.437049 -1.403530 0
M  V30 18 C -2.787830 -0.591652 -0.471954 0
M  V30 19 N -2.934848 -0.422526 0.843387 0
M  V30 20 C -3.228350 -1.385444 1.725654 0
M  V30 21 N -3.405796 -2.659580 1.331125 0
M  V30 22 C -3.273855 -2.911797 0.016179 0
M  V30 23 C -3.457074 -4.218958 -0.374985 0
M  V30 24 C -3.777294 -5.255062 0.601135 0
M  V30 25 N -3.916337 -4.967987 1.987010 0
M  V30 26 O -3.946350 -6.439879 0.282925 0
M  V30 27 C -3.344250 -4.587254 -1.697872 0
M  V30 28 C -3.043550 -3.597449 -2.596074 0
M  V30 29 C -2.868502 -2.304279 -2.163613 0
M  V30 30 C -2.972028 -1.898686 -0.859940 0
M  V30 31 C -0.217669 1.775795 0.372724 0
M  V30 32 C 4.221704 -1.036413 1.511064 0
M  V30 33 N 5.068526 -1.846268 2.169095 0
M  V30 34 H 7.451190 -4.139540 4.345106 0
M  V30 35 H 6.236631 -4.188445 2.958579 0
M  V30 36 H 7.549871 -3.008739 2.936387 0
M  V30 37 H 4.423406 -0.761245 5.264007 0
M  V30 38 H 1.658003 1.851340 2.905348 0
M  V30 39 H 2.421039 3.798223 0.497217 0
M  V30 40 H 1.203560 4.814874 -1.341294 0
M  V30 41 H -0.885059 3.913905 -2.078586 0
M  V30 42 H -3.060255 2.164478 -0.451341 0
M  V30 43 H -3.574208 2.117820 -2.824730 0
M  V30 44 H -2.897381 3.639663 -2.170587 0
M  V30 45 H -1.843498 2.547620 -3.238606 0
M  V30 46 H -2.432491 0.194926 -2.410838 0
M  V30 47 H -3.316115 -1.086324 2.776352 0
M  V30 48 H -3.435141 -4.791315 2.877264 0
M  V30 49 H -4.961551 -4.918392 2.158889 0
M  V30 50 H -3.494893 -5.620198 -1.965106 0
M  V30 51 H -2.959967 -3.914907 -3.634796 0
M  V30 52 H -2.636251 -1.623186 -2.964778 0
M  V30 53 H -0.587737 0.919427 0.873979 0
M  V30 54 H 4.244940 -1.199695 0.444837 0
M  V30 END ATOM
M  V30 BEGIN BOND
M  V30 1 1 1 2
M  V30 2 1 2 3
M  V30 3 2 3 4
M  V30 4 1 4 5
M  V30 5 2 5 6
M  V30 6 1 6 7
M  V30 7 2 7 8
M  V30 8 1 7 9
M  V30 9 1 9 10
M  V30 10 2 10 11
M  V30 11 1 11 12
M  V30 12 2 12 13
M  V30 13 1 13 14
M  V30 14 1 14 15
M  V30 15 1 15 16
M  V30 16 1 15 17
M  V30 17 1 17 18
M  V30 18 2 18 19
M  V30 19 1 19 20
M  V30 20 2 20 21
M  V30 21 1 21 22
M  V30 22 2 22 23
M  V30 23 1 23 24
M  V30 24 1 24 25
M  V30 25 2 24 26
M  V30 26 1 23 27
M  V30 27 2 27 28
M  V30 28 1 28 29
M  V30 29 2 29 30
M  V30 30 2 14 31
M  V30 31 1 6 32
M  V30 32 2 32 33
M  V30 33 1 33 3
M  V30 34 1 31 10
M  V30 35 1 30 18
M  V30 36 1 30 22
M  V30 37 1 1 34
M  V30 38 1 1 35
M  V30 39 1 1 36
M  V30 40 1 4 37
M  V30 41 1 9 38
M  V30 42 1 11 39
M  V30 43 1 12 40
M  V30 44 1 13 41
M  V30 45 1 15 42 CFG=1
M  V30 46 1 16 43
M  V30 47 1 16 44
M  V30 48 1 16 45
M  V30 49 1 17 46
M  V30 50 1 20 47
M  V30 51 1 25 48
M  V30 52 1 25 49
M  V30 53 1 27 50
M  V30 54 1 28 51
M  V30 55 1 29 52
M  V30 56 1 31 53
M  V30 57 1 32 54
M  V30 END BOND
M  V30 END CTAB
M  END
>  <Dataset>  (403) 
ChEMBL_Kinases

>  <Ligand_Instance>  (403) 
nan

>  <PDB_ID>  (403) 
nan

>  <Standardized_SMILES>  (403) 
COc1cnc(C(=O)Nc2cccc([C@@H](C)Nc3ncnc4c(C(N)=O)cccc34)c2)cn1

>  <Name>  (403) 
nan

>  <Pocket>  (403) 
nan

>  <ATP_Site>  (403) 
nan

>  <Peripheral>  (403) 
nan

>  <Num_H_Atoms_ProtBoundConf>  (403) 
nan

>  <Num_Resolved_Atoms>  (403) 
nan

>  <Num_Not_Resolved_Atoms>  (403) 
nan

$$$$
CHEMBL3680598
     RDKit          3D

  0  0  0  0  0  0  0  0  0  0999 V3000
M  V30 BEGIN CTAB
M  V30 COUNTS 64 68 0 0 0
M  V30 BEGIN ATOM
M  V30 1 N 4.780497 3.835436 4.560098 0
M  V30 2 C 5.444650 2.596953 4.419888 0
M  V30 3 O 6.475214 2.566154 5.140459 0
M  V30 4 C 5.071227 1.469301 3.593666 0
M  V30 5 C 5.899237 0.372283 3.641294 0
M  V30 6 C 5.546860 -0.712346 2.850677 0
M  V30 7 C 4.405732 -0.640181 2.070326 0
M  V30 8 C 3.574185 0.452642 2.017945 0
M  V30 9 C 2.450096 0.478218 1.225622 0
M  V30 10 N 2.090776 -0.622856 0.402313 0
M  V30 11 C 0.922679 -0.716535 -0.472803 0
M  V30 12 C 0.825685 0.474005 -1.355388 0
M  V30 13 C -0.367524 0.404923 -2.262095 0
M  V30 14 N -1.577004 0.353527 -1.462401 0
M  V30 15 C -1.800456 1.606595 -0.763894 0
M  V30 16 C -3.228269 1.462059 -0.315548 0
M  V30 17 C -3.882895 0.577455 -1.365168 0
M  V30 18 C -2.752719 0.214161 -2.297290 0
M  V30 19 C -0.270959 -1.168453 0.215669 0
M  V30 20 C -0.784463 -0.782274 1.424430 0
M  V30 21 C -1.918814 -1.244430 2.039777 0
M  V30 22 C -2.655493 -2.224263 1.377480 0
M  V30 23 C -2.255774 -2.709944 0.147755 0
M  V30 24 N -2.958013 -3.708713 -0.573996 0
M  V30 25 C -3.977473 -3.787936 -1.527913 0
M  V30 26 O -4.580802 -2.801044 -2.021912 0
M  V30 27 C -4.325591 -5.158661 -1.945006 0
M  V30 28 C -3.431012 -6.314995 -1.760296 0
M  V30 29 C -4.540139 -6.118656 -0.764960 0
M  V30 30 F -4.273663 -5.677039 0.508253 0
M  V30 31 F -5.558953 -7.045733 -0.851485 0
M  V30 32 C -1.089326 -2.157088 -0.364084 0
M  V30 33 N 1.781966 1.634885 1.320568 0
M  V30 34 C 2.107694 2.683376 2.073771 0
M  V30 35 N 3.220116 2.647865 2.852782 0
M  V30 36 C 3.942214 1.516153 2.809084 0
M  V30 37 H 5.170982 4.741246 4.238274 0
M  V30 38 H 3.825787 3.915196 5.011470 0
M  V30 39 H 6.779610 0.355081 4.263214 0
M  V30 40 H 6.200910 -1.578258 2.888677 0
M  V30 41 H 4.240383 -1.531516 1.509378 0
M  V30 42 H 2.696173 -1.455990 0.404917 0
M  V30 43 H 1.173713 -1.574669 -1.206960 0
M  V30 44 H 1.720139 0.438327 -2.047093 0
M  V30 45 H 0.925056 1.457144 -0.856456 0
M  V30 46 H -0.357766 1.275918 -2.947816 0
M  V30 47 H -0.307551 -0.506492 -2.878919 0
M  V30 48 H -1.772501 2.435269 -1.525354 0
M  V30 49 H -1.084863 1.770920 0.047715 0
M  V30 50 H -3.748606 2.455323 -0.250873 0
M  V30 51 H -3.240915 0.944923 0.669493 0
M  V30 52 H -4.319176 -0.315789 -0.889125 0
M  V30 53 H -4.659345 1.169488 -1.904111 0
M  V30 54 H -2.652544 0.992346 -3.087396 0
M  V30 55 H -2.829480 -0.799419 -2.706467 0
M  V30 56 H -0.261438 -0.032396 1.985990 0
M  V30 57 H -2.254259 -0.881907 3.000689 0
M  V30 58 H -3.544869 -2.616202 1.814511 0
M  V30 59 H -2.425393 -4.485827 -0.134211 0
M  V30 60 H -5.134482 -5.267012 -2.713214 0
M  V30 61 H -3.501043 -7.171181 -2.462674 0
M  V30 62 H -2.405907 -6.085508 -1.391386 0
M  V30 63 H -0.790515 -2.549608 -1.330777 0
M  V30 64 H 1.458879 3.560370 2.044598 0
M  V30 END ATOM
M  V30 BEGIN BOND
M  V30 1 1 1 2
M  V30 2 2 2 3
M  V30 3 1 2 4
M  V30 4 2 4 5
M  V30 5 1 5 6
M  V30 6 2 6 7
M  V30 7 1 7 8
M  V30 8 2 8 9
M  V30 9 1 9 10
M  V30 10 1 10 11
M  V30 11 1 11 12
M  V30 12 1 12 13
M  V30 13 1 13 14
M  V30 14 1 14 15
M  V30 15 1 15 16
M  V30 16 1 16 17
M  V30 17 1 17 18
M  V30 18 1 11 19
M  V30 19 2 19 20
M  V30 20 1 20 21
M  V30 21 2 21 22
M  V30 22 1 22 23
M  V30 23 1 23 24
M  V30 24 1 24 25
M  V30 25 2 25 26
M  V30 26 1 25 27
M  V30 27 1 27 28
M  V30 28 1 28 29
M  V30 29 1 29 30
M  V30 30 1 29 31
M  V30 31 2 23 32
M  V30 32 1 9 33
M  V30 33 2 33 34
M  V30 34 1 34 35
M  V30 35 2 35 36
M  V30 36 1 36 4
M  V30 37 1 36 8
M  V30 38 1 18 14
M  V30 39 1 32 19
M  V30 40 1 29 27
M  V30 41 1 1 37
M  V30 42 1 1 38
M  V30 43 1 5 39
M  V30 44 1 6 40
M  V30 45 1 7 41
M  V30 46 1 10 42
M  V30 47 1 11 43
M  V30 48 1 12 44
M  V30 49 1 12 45
M  V30 50 1 13 46
M  V30 51 1 13 47
M  V30 52 1 15 48
M  V30 53 1 15 49
M  V30 54 1 16 50
M  V30 55 1 16 51
M  V30 56 1 17 52
M  V30 57 1 17 53
M  V30 58 1 18 54
M  V30 59 1 18 55
M  V30 60 1 20 56
M  V30 61 1 21 57
M  V30 62 1 22 58
M  V30 63 1 24 59
M  V30 64 1 27 60
M  V30 65 1 28 61
M  V30 66 1 28 62
M  V30 67 1 32 63
M  V30 68 1 34 64
M  V30 END BOND
M  V30 END CTAB
M  END
>  <Dataset>  (404) 
ChEMBL_Kinases

>  <Ligand_Instance>  (404) 
nan

>  <PDB_ID>  (404) 
nan

>  <Standardized_SMILES>  (404) 
NC(=O)c1cccc2c(NC(CCN3CCCC3)c3cccc(NC(=O)C4CC4(F)F)c3)ncnc12

>  <Name>  (404) 
nan

>  <Pocket>  (404) 
nan

>  <ATP_Site>  (404) 
nan

>  <Peripheral>  (404) 
nan

>  <Num_H_Atoms_ProtBoundConf>  (404) 
nan

>  <Num_Resolved_Atoms>  (404) 
nan

>  <Num_Not_Resolved_Atoms>  (404) 
nan

$$$$
CHEMBL3680565
     RDKit          3D

  0  0  0  0  0  0  0  0  0  0999 V3000
M  V30 BEGIN CTAB
M  V30 COUNTS 74 79 0 0 0
M  V30 BEGIN ATOM
M  V30 1 N 7.905424 1.228783 2.587006 0
M  V30 2 C 6.573198 1.516362 2.955965 0
M  V30 3 O 6.354747 1.830319 4.151920 0
M  V30 4 C 5.532690 1.430922 1.924469 0
M  V30 5 C 5.852901 1.068294 0.612382 0
M  V30 6 C 4.831240 1.000474 -0.341728 0
M  V30 7 C 3.514403 1.291937 0.018563 0
M  V30 8 C 3.352965 1.627115 1.318974 0
M  V30 9 C 2.040134 1.905693 1.612717 0
M  V30 10 N 0.816201 1.924061 0.933167 0
M  V30 11 C -0.483086 1.999082 0.425451 0
M  V30 12 C -0.731344 1.634247 -1.016863 0
M  V30 13 C -2.154661 1.769254 -1.384743 0
M  V30 14 N -2.474829 1.440723 -2.733991 0
M  V30 15 C -2.352797 0.079276 -3.101189 0
M  V30 16 C -1.373133 -0.041620 -4.242703 0
M  V30 17 C -2.062186 0.562310 -5.466060 0
M  V30 18 C -2.455977 1.958639 -5.080748 0
M  V30 19 C -1.981071 2.351450 -3.709552 0
M  V30 20 C -1.358577 1.147229 1.328593 0
M  V30 21 C -2.591410 1.578848 1.796613 0
M  V30 22 C -3.342358 0.762620 2.617738 0
M  V30 23 C -2.870501 -0.470866 2.969509 0
M  V30 24 C -1.648408 -0.906381 2.509196 0
M  V30 25 N -1.302224 -2.222069 2.974086 0
M  V30 26 C -1.789805 -3.206984 2.078077 0
M  V30 27 O -2.406901 -2.786789 1.083924 0
M  V30 28 C -1.611104 -4.639200 2.256957 0
M  V30 29 C -2.120657 -5.562131 1.372959 0
M  V30 30 C -1.761074 -6.814792 1.858145 0
M  V30 31 C -2.120765 -8.097298 1.203259 0
M  V30 32 C -3.388500 -8.216709 0.444171 0
M  V30 33 C -2.110355 -8.035237 -0.336965 0
M  V30 34 N -1.049089 -6.644461 3.011156 0
M  V30 35 N -0.978545 -5.323788 3.220589 0
M  V30 36 C -0.893976 -0.098186 1.689805 0
M  V30 37 N 1.665570 2.269401 2.877947 0
M  V30 38 C 2.601761 2.360635 3.874968 0
M  V30 39 N 3.881001 2.085931 3.575380 0
M  V30 40 C 4.248048 1.730882 2.340864 0
M  V30 41 H 8.576993 0.461306 2.802356 0
M  V30 42 H 8.388187 1.917572 1.940610 0
M  V30 43 H 6.895166 0.847253 0.366988 0
M  V30 44 H 5.135158 0.718016 -1.325956 0
M  V30 45 H 2.779443 1.222000 -0.757271 0
M  V30 46 H 1.179220 1.632999 0.022790 0
M  V30 47 H -0.845411 3.056704 0.581694 0
M  V30 48 H -0.128382 2.360555 -1.634796 0
M  V30 49 H -0.273470 0.667898 -1.192350 0
M  V30 50 H -2.536413 2.782973 -1.150484 0
M  V30 51 H -2.753817 1.088619 -0.724687 0
M  V30 52 H -3.361893 -0.236226 -3.501911 0
M  V30 53 H -2.164563 -0.623423 -2.268475 0
M  V30 54 H -0.443833 0.547117 -4.097843 0
M  V30 55 H -1.084415 -1.095780 -4.434371 0
M  V30 56 H -2.984170 -0.078142 -5.593807 0
M  V30 57 H -1.420199 0.480000 -6.349607 0
M  V30 58 H -2.004855 2.630284 -5.858635 0
M  V30 59 H -3.550551 2.117914 -5.185696 0
M  V30 60 H -0.882506 2.497612 -3.721999 0
M  V30 61 H -2.452397 3.358412 -3.507162 0
M  V30 62 H -2.949573 2.557855 1.508068 0
M  V30 63 H -4.289699 1.128626 2.959846 0
M  V30 64 H -3.515988 -1.045161 3.611983 0
M  V30 65 H -0.774570 -2.532646 3.827180 0
M  V30 66 H -2.693091 -5.390136 0.467323 0
M  V30 67 H -1.739613 -8.987534 1.702689 0
M  V30 68 H -3.822516 -9.233125 0.369383 0
M  V30 69 H -4.153968 -7.413695 0.455382 0
M  V30 70 H -2.047132 -7.032598 -0.803512 0
M  V30 71 H -1.662181 -8.897292 -0.850206 0
M  V30 72 H -0.493927 -4.911559 4.027047 0
M  V30 73 H 0.049330 -0.526066 1.379172 0
M  V30 74 H 2.504895 2.626486 4.917711 0
M  V30 END ATOM
M  V30 BEGIN BOND
M  V30 1 1 1 2
M  V30 2 2 2 3
M  V30 3 1 2 4
M  V30 4 2 4 5
M  V30 5 1 5 6
M  V30 6 2 6 7
M  V30 7 1 7 8
M  V30 8 2 8 9
M  V30 9 1 9 10
M  V30 10 1 10 11
M  V30 11 1 11 12
M  V30 12 1 12 13
M  V30 13 1 13 14
M  V30 14 1 14 15
M  V30 15 1 15 16
M  V30 16 1 16 17
M  V30 17 1 17 18
M  V30 18 1 18 19
M  V30 19 1 11 20
M  V30 20 2 20 21
M  V30 21 1 21 22
M  V30 22 2 22 23
M  V30 23 1 23 24
M  V30 24 1 24 25
M  V30 25 1 25 26
M  V30 26 2 26 27
M  V30 27 1 26 28
M  V30 28 2 28 29
M  V30 29 1 29 30
M  V30 30 1 30 31
M  V30 31 1 31 32
M  V30 32 1 32 33
M  V30 33 2 30 34
M  V30 34 1 34 35
M  V30 35 2 24 36
M  V30 36 1 9 37
M  V30 37 2 37 38
M  V30 38 1 38 39
M  V30 39 2 39 40
M  V30 40 1 40 4
M  V30 41 1 40 8
M  V30 42 1 19 14
M  V30 43 1 36 20
M  V30 44 1 35 28
M  V30 45 1 33 31
M  V30 46 1 1 41
M  V30 47 1 1 42
M  V30 48 1 5 43
M  V30 49 1 6 44
M  V30 50 1 7 45
M  V30 51 1 10 46
M  V30 52 1 11 47
M  V30 53 1 12 48
M  V30 54 1 12 49
M  V30 55 1 13 50
M  V30 56 1 13 51
M  V30 57 1 15 52
M  V30 58 1 15 53
M  V30 59 1 16 54
M  V30 60 1 16 55
M  V30 61 1 17 56
M  V30 62 1 17 57
M  V30 63 1 18 58
M  V30 64 1 18 59
M  V30 65 1 19 60
M  V30 66 1 19 61
M  V30 67 1 21 62
M  V30 68 1 22 63
M  V30 69 1 23 64
M  V30 70 1 25 65
M  V30 71 1 29 66
M  V30 72 1 31 67
M  V30 73 1 32 68
M  V30 74 1 32 69
M  V30 75 1 33 70
M  V30 76 1 33 71
M  V30 77 1 35 72
M  V30 78 1 36 73
M  V30 79 1 38 74
M  V30 END BOND
M  V30 END CTAB
M  END
>  <Dataset>  (405) 
ChEMBL_Kinases

>  <Ligand_Instance>  (405) 
nan

>  <PDB_ID>  (405) 
nan

>  <Standardized_SMILES>  (405) 
NC(=O)c1cccc2c(NC(CCN3CCCCC3)c3cccc(NC(=O)c4cc(C5CC5)n[nH]4)c3)ncnc12

>  <Name>  (405) 
nan

>  <Pocket>  (405) 
nan

>  <ATP_Site>  (405) 
nan

>  <Peripheral>  (405) 
nan

>  <Num_H_Atoms_ProtBoundConf>  (405) 
nan

>  <Num_Resolved_Atoms>  (405) 
nan

>  <Num_Not_Resolved_Atoms>  (405) 
nan

$$$$
CHEMBL3680566
     RDKit          3D

  0  0  0  0  0  0  0  0  0  0999 V3000
M  V30 BEGIN CTAB
M  V30 COUNTS 56 60 0 0 0
M  V30 BEGIN ATOM
M  V30 1 C 8.215173 -2.534642 -2.357809 0
M  V30 2 N 7.355045 -1.363752 -2.363998 0
M  V30 3 C 7.913851 -0.146571 -2.461740 0
M  V30 4 C 6.797730 0.698823 -2.434489 0
M  V30 5 C 5.592167 -0.007912 -2.322458 0
M  V30 6 C 4.281244 0.397529 -2.259022 0
M  V30 7 C 3.391447 -0.647150 -2.147351 0
M  V30 8 C 1.975018 -0.214242 -2.081385 0
M  V30 9 O 1.620098 0.985531 -2.199403 0
M  V30 10 N 0.858153 -1.101132 -1.875998 0
M  V30 11 C -0.391566 -0.415717 -1.855792 0
M  V30 12 C -1.149702 -0.233069 -3.024448 0
M  V30 13 C -2.350754 0.440781 -2.941826 0
M  V30 14 C -2.867476 0.956029 -1.772684 0
M  V30 15 C -2.122697 0.783029 -0.592768 0
M  V30 16 C -2.684076 1.361106 0.652616 0
M  V30 17 N -3.541906 0.568269 1.435110 0
M  V30 18 C -4.478970 -0.225425 2.088552 0
M  V30 19 N -5.650917 -0.784894 1.745143 0
M  V30 20 C -6.410447 -1.517498 2.561685 0
M  V30 21 N -5.989813 -1.712020 3.793519 0
M  V30 22 C -4.850011 -1.218190 4.267354 0
M  V30 23 C -4.475932 -1.460899 5.554584 0
M  V30 24 C -5.241765 -2.230353 6.487028 0
M  V30 25 N -6.489296 -2.756325 5.963160 0
M  V30 26 O -5.742924 -2.849758 7.423697 0
M  V30 27 C -3.306838 -0.968206 6.072455 0
M  V30 28 C -2.468093 -0.198106 5.277103 0
M  V30 29 C -2.911899 0.004079 3.991961 0
M  V30 30 C -4.092061 -0.472826 3.412627 0
M  V30 31 C -0.952293 0.117062 -0.718018 0
M  V30 32 C 3.697934 -1.984433 -2.097541 0
M  V30 33 C 5.051260 -2.304493 -2.168600 0
M  V30 34 C 6.025094 -1.341539 -2.281354 0
M  V30 35 H 9.060439 -2.404480 -3.067998 0
M  V30 36 H 7.685455 -3.473418 -2.579124 0
M  V30 37 H 8.675169 -2.579460 -1.339423 0
M  V30 38 H 8.910697 0.221385 -2.544619 0
M  V30 39 H 6.858931 1.798993 -2.491979 0
M  V30 40 H 4.009145 1.433384 -2.294403 0
M  V30 41 H 1.064618 -2.117171 -1.765261 0
M  V30 42 H -0.720343 -0.646192 -3.932527 0
M  V30 43 H -2.896094 0.549895 -3.893574 0
M  V30 44 H -3.814443 1.479287 -1.732710 0
M  V30 45 H -3.059467 2.396339 0.464954 0
M  V30 46 H -1.743156 1.524065 1.302923 0
M  V30 47 H -4.105937 0.566150 0.518663 0
M  V30 48 H -7.327709 -1.898988 2.132687 0
M  V30 49 H -6.806376 -3.420397 5.191725 0
M  V30 50 H -6.916697 -3.393067 5.232976 0
M  V30 51 H -2.962054 -1.137833 7.100544 0
M  V30 52 H -1.548559 0.210289 5.623492 0
M  V30 53 H -2.257935 0.601791 3.379681 0
M  V30 54 H -0.381488 -0.015637 0.191277 0
M  V30 55 H 2.961134 -2.769211 -2.009728 0
M  V30 56 H 5.333399 -3.354675 -2.134642 0
M  V30 END ATOM
M  V30 BEGIN BOND
M  V30 1 1 1 2
M  V30 2 1 2 3
M  V30 3 2 3 4
M  V30 4 1 4 5
M  V30 5 2 5 6
M  V30 6 1 6 7
M  V30 7 1 7 8
M  V30 8 2 8 9
M  V30 9 1 8 10
M  V30 10 1 10 11
M  V30 11 2 11 12
M  V30 12 1 12 13
M  V30 13 2 13 14
M  V30 14 1 14 15
M  V30 15 1 15 16
M  V30 16 1 16 17
M  V30 17 1 17 18
M  V30 18 2 18 19
M  V30 19 1 19 20
M  V30 20 2 20 21
M  V30 21 1 21 22
M  V30 22 2 22 23
M  V30 23 1 23 24
M  V30 24 1 24 25
M  V30 25 2 24 26
M  V30 26 1 23 27
M  V30 27 2 27 28
M  V30 28 1 28 29
M  V30 29 2 29 30
M  V30 30 2 15 31
M  V30 31 2 7 32
M  V30 32 1 32 33
M  V30 33 2 33 34
M  V30 34 1 34 2
M  V30 35 1 34 5
M  V30 36 1 31 11
M  V30 37 1 30 18
M  V30 38 1 30 22
M  V30 39 1 1 35
M  V30 40 1 1 36
M  V30 41 1 1 37
M  V30 42 1 3 38
M  V30 43 1 4 39
M  V30 44 1 6 40
M  V30 45 1 10 41
M  V30 46 1 12 42
M  V30 47 1 13 43
M  V30 48 1 14 44
M  V30 49 1 16 45
M  V30 50 1 16 46
M  V30 51 1 17 47
M  V30 52 1 20 48
M  V30 53 1 25 49
M  V30 54 1 25 50
M  V30 55 1 27 51
M  V30 56 1 28 52
M  V30 57 1 29 53
M  V30 58 1 31 54
M  V30 59 1 32 55
M  V30 60 1 33 56
M  V30 END BOND
M  V30 END CTAB
M  END
>  <Dataset>  (406) 
ChEMBL_Kinases

>  <Ligand_Instance>  (406) 
nan

>  <PDB_ID>  (406) 
nan

>  <Standardized_SMILES>  (406) 
Cn1ccc2cc(C(=O)Nc3cccc(CNc4ncnc5c(C(N)=O)cccc45)c3)ccc21

>  <Name>  (406) 
nan

>  <Pocket>  (406) 
nan

>  <ATP_Site>  (406) 
nan

>  <Peripheral>  (406) 
nan

>  <Num_H_Atoms_ProtBoundConf>  (406) 
nan

>  <Num_Resolved_Atoms>  (406) 
nan

>  <Num_Not_Resolved_Atoms>  (406) 
nan

$$$$
CHEMBL3680569
     RDKit          3D

  0  0  0  0  0  0  0  0  0  0999 V3000
M  V30 BEGIN CTAB
M  V30 COUNTS 53 57 0 0 0
M  V30 BEGIN ATOM
M  V30 1 N -8.215385 -0.842008 -4.521261 0
M  V30 2 C -7.507757 -0.100241 -3.514543 0
M  V30 3 O -8.085740 0.997449 -3.312613 0
M  V30 4 C -6.309239 -0.673093 -2.909503 0
M  V30 5 C -5.864122 -1.914454 -3.312342 0
M  V30 6 C -4.725233 -2.414342 -2.714937 0
M  V30 7 C -4.002099 -1.744732 -1.735824 0
M  V30 8 C -4.472195 -0.523677 -1.365223 0
M  V30 9 C -3.806038 0.198601 -0.396669 0
M  V30 10 N -2.605212 -0.257742 0.250827 0
M  V30 11 C -1.960407 0.552722 1.264525 0
M  V30 12 C -0.704728 -0.087256 1.768050 0
M  V30 13 C -0.729274 -0.950992 2.842901 0
M  V30 14 C 0.477480 -1.496739 3.224136 0
M  V30 15 C 1.657736 -1.211266 2.582907 0
M  V30 16 C 1.700828 -0.353743 1.510860 0
M  V30 17 N 2.844686 0.008981 0.756499 0
M  V30 18 C 4.178940 -0.458781 0.877664 0
M  V30 19 O 4.423169 -1.311236 1.759965 0
M  V30 20 C 5.231519 0.057993 -0.023345 0
M  V30 21 C 6.431077 0.561787 0.463807 0
M  V30 22 C 7.349802 1.026488 -0.444709 0
M  V30 23 C 7.108960 1.002747 -1.799176 0
M  V30 24 C 5.915101 0.500742 -2.282222 0
M  V30 25 N 5.385443 0.340487 -3.516402 0
M  V30 26 C 4.160083 -0.208100 -3.481509 0
M  V30 27 C 3.869668 -0.420732 -2.129062 0
M  V30 28 C 4.949979 0.016361 -1.392909 0
M  V30 29 C 0.492372 0.181836 1.143603 0
M  V30 30 N -4.284845 1.424151 -0.026679 0
M  V30 31 C -5.416682 1.908698 -0.626331 0
M  V30 32 N -6.106980 1.230503 -1.588209 0
M  V30 33 C -5.621183 0.026215 -1.939632 0
M  V30 34 H -9.203778 -1.185577 -4.588163 0
M  V30 35 H -7.690974 -1.134396 -5.400395 0
M  V30 36 H -6.389613 -2.482440 -4.074096 0
M  V30 37 H -4.354501 -3.395706 -3.017799 0
M  V30 38 H -3.137045 -2.185071 -1.319605 0
M  V30 39 H -2.128483 -1.159326 0.049525 0
M  V30 40 H -2.633295 0.894365 2.063626 0
M  V30 41 H -1.643208 1.482011 0.733710 0
M  V30 42 H -1.645107 -1.190231 3.363711 0
M  V30 43 H 0.484179 -2.180732 4.067557 0
M  V30 44 H 2.539034 -1.670076 2.937649 0
M  V30 45 H 2.735129 0.719420 0.001183 0
M  V30 46 H 6.587905 0.564778 1.544505 0
M  V30 47 H 8.297209 1.424562 -0.058861 0
M  V30 48 H 7.862255 1.381605 -2.474431 0
M  V30 49 H 5.844663 0.599329 -4.415187 0
M  V30 50 H 3.493715 -0.455753 -4.279369 0
M  V30 51 H 2.948041 -0.856330 -1.768388 0
M  V30 52 H 0.435791 0.874376 0.300317 0
M  V30 53 H -5.818868 2.884021 -0.347722 0
M  V30 END ATOM
M  V30 BEGIN BOND
M  V30 1 1 1 2
M  V30 2 2 2 3
M  V30 3 1 2 4
M  V30 4 2 4 5
M  V30 5 1 5 6
M  V30 6 2 6 7
M  V30 7 1 7 8
M  V30 8 2 8 9
M  V30 9 1 9 10
M  V30 10 1 10 11
M  V30 11 1 11 12
M  V30 12 2 12 13
M  V30 13 1 13 14
M  V30 14 2 14 15
M  V30 15 1 15 16
M  V30 16 1 16 17
M  V30 17 1 17 18
M  V30 18 2 18 19
M  V30 19 1 18 20
M  V30 20 2 20 21
M  V30 21 1 21 22
M  V30 22 2 22 23
M  V30 23 1 23 24
M  V30 24 1 24 25
M  V30 25 1 25 26
M  V30 26 2 26 27
M  V30 27 1 27 28
M  V30 28 2 16 29
M  V30 29 1 9 30
M  V30 30 2 30 31
M  V30 31 1 31 32
M  V30 32 2 32 33
M  V30 33 1 33 4
M  V30 34 1 33 8
M  V30 35 1 29 12
M  V30 36 1 28 20
M  V30 37 2 28 24
M  V30 38 1 1 34
M  V30 39 1 1 35
M  V30 40 1 5 36
M  V30 41 1 6 37
M  V30 42 1 7 38
M  V30 43 1 10 39
M  V30 44 1 11 40
M  V30 45 1 11 41
M  V30 46 1 13 42
M  V30 47 1 14 43
M  V30 48 1 15 44
M  V30 49 1 17 45
M  V30 50 1 21 46
M  V30 51 1 22 47
M  V30 52 1 23 48
M  V30 53 1 25 49
M  V30 54 1 26 50
M  V30 55 1 27 51
M  V30 56 1 29 52
M  V30 57 1 31 53
M  V30 END BOND
M  V30 END CTAB
M  END
>  <Dataset>  (407) 
ChEMBL_Kinases

>  <Ligand_Instance>  (407) 
nan

>  <PDB_ID>  (407) 
nan

>  <Standardized_SMILES>  (407) 
NC(=O)c1cccc2c(NCc3cccc(NC(=O)c4cccc5[nH]ccc45)c3)ncnc12

>  <Name>  (407) 
nan

>  <Pocket>  (407) 
nan

>  <ATP_Site>  (407) 
nan

>  <Peripheral>  (407) 
nan

>  <Num_H_Atoms_ProtBoundConf>  (407) 
nan

>  <Num_Resolved_Atoms>  (407) 
nan

>  <Num_Not_Resolved_Atoms>  (407) 
nan

$$$$
CHEMBL3680576
     RDKit          3D

  0  0  0  0  0  0  0  0  0  0999 V3000
M  V30 BEGIN CTAB
M  V30 COUNTS 53 56 0 0 0
M  V30 BEGIN ATOM
M  V30 1 C -0.706042 -0.903154 3.001557 0
M  V30 2 C -0.271521 0.518828 2.685430 0 CFG=1
M  V30 3 N 1.115614 0.703805 3.107786 0
M  V30 4 C 2.175642 -0.070519 2.517875 0
M  V30 5 N 1.815629 -0.923141 1.580764 0
M  V30 6 C 2.620098 -1.711772 0.915586 0
M  V30 7 N 3.948036 -1.603732 1.262469 0
M  V30 8 C 4.316175 -0.747673 2.205408 0
M  V30 9 C 5.677820 -0.647185 2.561758 0
M  V30 10 C 6.657804 -1.491953 1.872305 0
M  V30 11 N 6.187656 -2.331556 0.839072 0
M  V30 12 O 7.911703 -1.578872 2.079805 0
M  V30 13 C 6.129290 0.223557 3.545586 0
M  V30 14 C 5.171891 1.015974 4.185858 0
M  V30 15 C 3.829213 0.979687 3.897684 0
M  V30 16 C 3.510319 0.097708 2.927852 0
M  V30 17 C -0.460152 0.838877 1.264199 0
M  V30 18 C 0.041220 1.903140 0.578615 0
M  V30 19 C -0.079686 2.279450 -0.715511 0
M  V30 20 C -0.860578 1.425704 -1.498095 0
M  V30 21 C -1.444766 0.290811 -0.939662 0
M  V30 22 N -2.298796 -0.721854 -1.526464 0
M  V30 23 C -3.679885 -0.262210 -1.294030 0
M  V30 24 O -3.190967 0.713358 -0.751610 0
M  V30 25 C -4.545524 -1.286217 -1.867274 0
M  V30 26 C -5.855737 -0.834006 -1.630205 0
M  V30 27 N -6.864183 -1.652769 -2.072642 0
M  V30 28 C -6.540862 -2.801842 -2.686714 0
M  V30 29 C -7.646331 -3.674339 -3.151254 0
M  V30 30 F -8.817181 -3.422204 -2.452760 0
M  V30 31 F -7.952134 -3.476488 -4.491683 0
M  V30 32 F -7.286376 -4.973075 -2.916292 0
M  V30 33 C -5.255695 -3.233674 -2.913474 0
M  V30 34 N -4.265973 -2.441871 -2.485994 0
M  V30 35 C -1.225953 0.037751 0.412101 0
M  V30 36 H -0.335017 -1.124965 4.023193 0
M  V30 37 H -1.826426 -0.924954 3.091122 0
M  V30 38 H -0.317330 -1.647957 2.303015 0
M  V30 39 H -0.897985 1.183029 3.304847 0
M  V30 40 H 1.292571 1.426559 3.866583 0
M  V30 41 H 2.510816 -2.447436 0.142522 0
M  V30 42 H 6.368427 -3.217819 0.341767 0
M  V30 43 H 5.663733 -2.763162 0.057584 0
M  V30 44 H 7.192306 0.199342 3.720848 0
M  V30 45 H 5.620682 1.673523 4.946050 0
M  V30 46 H 3.138888 1.603999 4.412945 0
M  V30 47 H 0.665427 2.603453 1.157178 0
M  V30 48 H 0.336933 3.130164 -1.208271 0
M  V30 49 H -1.090351 1.522537 -2.532891 0
M  V30 50 H -1.784836 -1.562921 -1.988497 0
M  V30 51 H -6.237339 0.056655 -1.154885 0
M  V30 52 H -4.917180 -4.127284 -3.387654 0
M  V30 53 H -1.657024 -0.835288 0.924101 0
M  V30 END ATOM
M  V30 BEGIN BOND
M  V30 1 1 1 2
M  V30 2 1 2 3
M  V30 3 1 3 4
M  V30 4 2 4 5
M  V30 5 1 5 6
M  V30 6 2 6 7
M  V30 7 1 7 8
M  V30 8 2 8 9
M  V30 9 1 9 10
M  V30 10 1 10 11
M  V30 11 2 10 12
M  V30 12 1 9 13
M  V30 13 2 13 14
M  V30 14 1 14 15
M  V30 15 2 15 16
M  V30 16 1 2 17
M  V30 17 2 17 18
M  V30 18 1 18 19
M  V30 19 2 19 20
M  V30 20 1 20 21
M  V30 21 1 21 22
M  V30 22 1 22 23
M  V30 23 2 23 24
M  V30 24 1 23 25
M  V30 25 2 25 26
M  V30 26 1 26 27
M  V30 27 2 27 28
M  V30 28 1 28 29
M  V30 29 1 29 30
M  V30 30 1 29 31
M  V30 31 1 29 32
M  V30 32 1 28 33
M  V30 33 2 33 34
M  V30 34 2 21 35
M  V30 35 1 16 4
M  V30 36 1 35 17
M  V30 37 1 16 8
M  V30 38 1 34 25
M  V30 39 1 1 36
M  V30 40 1 1 37
M  V30 41 1 1 38
M  V30 42 1 2 39 CFG=1
M  V30 43 1 3 40
M  V30 44 1 6 41
M  V30 45 1 11 42
M  V30 46 1 11 43
M  V30 47 1 13 44
M  V30 48 1 14 45
M  V30 49 1 15 46
M  V30 50 1 18 47
M  V30 51 1 19 48
M  V30 52 1 20 49
M  V30 53 1 22 50
M  V30 54 1 26 51
M  V30 55 1 33 52
M  V30 56 1 35 53
M  V30 END BOND
M  V30 END CTAB
M  END
>  <Dataset>  (408) 
ChEMBL_Kinases

>  <Ligand_Instance>  (408) 
nan

>  <PDB_ID>  (408) 
nan

>  <Standardized_SMILES>  (408) 
C[C@@H](Nc1ncnc2c(C(N)=O)cccc12)c1cccc(NC(=O)c2cnc(C(F)(F)F)cn2)c1

>  <Name>  (408) 
nan

>  <Pocket>  (408) 
nan

>  <ATP_Site>  (408) 
nan

>  <Peripheral>  (408) 
nan

>  <Num_H_Atoms_ProtBoundConf>  (408) 
nan

>  <Num_Resolved_Atoms>  (408) 
nan

>  <Num_Not_Resolved_Atoms>  (408) 
nan

$$$$
CHEMBL3680580
     RDKit          3D

  0  0  0  0  0  0  0  0  0  0999 V3000
M  V30 BEGIN CTAB
M  V30 COUNTS 73 78 0 0 0
M  V30 BEGIN ATOM
M  V30 1 N 4.511705 -2.730851 6.940286 0
M  V30 2 C 3.987466 -1.806120 6.013248 0
M  V30 3 O 3.625663 -0.762280 6.643413 0
M  V30 4 C 3.913984 -2.090739 4.586100 0
M  V30 5 C 4.319821 -3.254094 3.969767 0
M  V30 6 C 4.171252 -3.335679 2.600788 0
M  V30 7 C 3.631394 -2.269800 1.905779 0
M  V30 8 C 3.220591 -1.099546 2.506035 0
M  V30 9 C 2.693175 -0.085202 1.739274 0
M  V30 10 N 2.539986 -0.165912 0.329843 0
M  V30 11 C 1.965346 0.984534 -0.366679 0
M  V30 12 C 1.866835 0.763533 -1.860471 0
M  V30 13 C 1.271685 1.964761 -2.552192 0
M  V30 14 N 1.162953 1.788464 -3.978282 0
M  V30 15 C 0.581749 2.972587 -4.581242 0
M  V30 16 C 0.721966 2.954409 -6.089444 0
M  V30 17 N 0.577304 1.626624 -6.602441 0
M  V30 18 C -0.153319 0.746752 -5.730508 0
M  V30 19 C 0.503456 0.584736 -4.362039 0
M  V30 20 C 0.592723 1.144476 0.231927 0
M  V30 21 C 0.110999 2.373186 0.607172 0
M  V30 22 C -1.140147 2.561345 1.157879 0
M  V30 23 C -1.901087 1.396419 1.312204 0
M  V30 24 C -1.468731 0.143607 0.954252 0
M  V30 25 N -2.361913 -0.940886 1.174015 0
M  V30 26 C -2.641216 -1.853035 2.219693 0
M  V30 27 O -2.024275 -1.833024 3.311177 0
M  V30 28 C -3.722674 -2.798333 1.858618 0
M  V30 29 C -4.501832 -2.961720 0.710629 0
M  V30 30 C -5.364268 -4.015312 0.937649 0
M  V30 31 C -6.351732 -4.483395 -0.070442 0
M  V30 32 C -6.925409 -5.838311 0.017233 0
M  V30 33 C -7.781908 -4.717272 0.495765 0
M  V30 34 N -5.102580 -4.459638 2.179845 0
M  V30 35 N -4.127615 -3.746190 2.742860 0
M  V30 36 C -0.207102 0.008757 0.406767 0
M  V30 37 N 2.321513 1.015815 2.412155 0
M  V30 38 C 2.457053 1.117910 3.748257 0
M  V30 39 N 2.972257 0.126237 4.494200 0
M  V30 40 C 3.367908 -1.010557 3.889337 0
M  V30 41 H 4.945601 -3.348140 7.636170 0
M  V30 42 H 4.423949 -3.704903 7.328550 0
M  V30 43 H 4.726344 -4.016123 4.620568 0
M  V30 44 H 4.483797 -4.232800 2.123254 0
M  V30 45 H 3.552861 -2.416276 0.859101 0
M  V30 46 H 2.789475 -0.955137 -0.282732 0
M  V30 47 H 2.540304 1.907226 -0.158032 0
M  V30 48 H 2.899665 0.658081 -2.249344 0
M  V30 49 H 1.307135 -0.154334 -2.020601 0
M  V30 50 H 0.251178 2.136986 -2.153857 0
M  V30 51 H 1.864625 2.872831 -2.324516 0
M  V30 52 H -0.495355 2.973077 -4.348274 0
M  V30 53 H 1.062360 3.898693 -4.208552 0
M  V30 54 H -0.060016 3.600851 -6.499132 0
M  V30 55 H 1.742856 3.319868 -6.319167 0
M  V30 56 H 1.475910 1.258321 -6.944551 0
M  V30 57 H -1.183076 1.128301 -5.636238 0
M  V30 58 H -0.227887 -0.244493 -6.228533 0
M  V30 59 H 1.182351 -0.284450 -4.470546 0
M  V30 60 H -0.345424 0.360860 -3.671077 0
M  V30 61 H 0.708132 3.269788 0.483401 0
M  V30 62 H -1.531987 3.524265 1.458281 0
M  V30 63 H -2.893660 1.541272 1.749036 0
M  V30 64 H -2.827584 -0.890907 0.239059 0
M  V30 65 H -4.345664 -2.296657 -0.144752 0
M  V30 66 H -6.330152 -3.911102 -1.012925 0
M  V30 67 H -7.264712 -6.278548 -0.964326 0
M  V30 68 H -6.500292 -6.569345 0.704349 0
M  V30 69 H -7.913867 -4.526222 1.575727 0
M  V30 70 H -8.622175 -4.337327 -0.123855 0
M  V30 71 H -3.741941 -3.904342 3.721272 0
M  V30 72 H 0.134801 -0.966538 0.126333 0
M  V30 73 H 2.120208 2.065342 4.196608 0
M  V30 END ATOM
M  V30 BEGIN BOND
M  V30 1 1 1 2
M  V30 2 2 2 3
M  V30 3 1 2 4
M  V30 4 2 4 5
M  V30 5 1 5 6
M  V30 6 2 6 7
M  V30 7 1 7 8
M  V30 8 2 8 9
M  V30 9 1 9 10
M  V30 10 1 10 11
M  V30 11 1 11 12
M  V30 12 1 12 13
M  V30 13 1 13 14
M  V30 14 1 14 15
M  V30 15 1 15 16
M  V30 16 1 16 17
M  V30 17 1 17 18
M  V30 18 1 18 19
M  V30 19 1 11 20
M  V30 20 2 20 21
M  V30 21 1 21 22
M  V30 22 2 22 23
M  V30 23 1 23 24
M  V30 24 1 24 25
M  V30 25 1 25 26
M  V30 26 2 26 27
M  V30 27 1 26 28
M  V30 28 2 28 29
M  V30 29 1 29 30
M  V30 30 1 30 31
M  V30 31 1 31 32
M  V30 32 1 32 33
M  V30 33 2 30 34
M  V30 34 1 34 35
M  V30 35 2 24 36
M  V30 36 1 9 37
M  V30 37 2 37 38
M  V30 38 1 38 39
M  V30 39 2 39 40
M  V30 40 1 40 4
M  V30 41 1 40 8
M  V30 42 1 19 14
M  V30 43 1 36 20
M  V30 44 1 35 28
M  V30 45 1 33 31
M  V30 46 1 1 41
M  V30 47 1 1 42
M  V30 48 1 5 43
M  V30 49 1 6 44
M  V30 50 1 7 45
M  V30 51 1 10 46
M  V30 52 1 11 47
M  V30 53 1 12 48
M  V30 54 1 12 49
M  V30 55 1 13 50
M  V30 56 1 13 51
M  V30 57 1 15 52
M  V30 58 1 15 53
M  V30 59 1 16 54
M  V30 60 1 16 55
M  V30 61 1 17 56
M  V30 62 1 18 57
M  V30 63 1 18 58
M  V30 64 1 19 59
M  V30 65 1 19 60
M  V30 66 1 21 61
M  V30 67 1 22 62
M  V30 68 1 23 63
M  V30 69 1 25 64
M  V30 70 1 29 65
M  V30 71 1 31 66
M  V30 72 1 32 67
M  V30 73 1 32 68
M  V30 74 1 33 69
M  V30 75 1 33 70
M  V30 76 1 35 71
M  V30 77 1 36 72
M  V30 78 1 38 73
M  V30 END BOND
M  V30 END CTAB
M  END
>  <Dataset>  (409) 
ChEMBL_Kinases

>  <Ligand_Instance>  (409) 
nan

>  <PDB_ID>  (409) 
nan

>  <Standardized_SMILES>  (409) 
NC(=O)c1cccc2c(NC(CCN3CCNCC3)c3cccc(NC(=O)c4cc(C5CC5)n[nH]4)c3)ncnc12

>  <Name>  (409) 
nan

>  <Pocket>  (409) 
nan

>  <ATP_Site>  (409) 
nan

>  <Peripheral>  (409) 
nan

>  <Num_H_Atoms_ProtBoundConf>  (409) 
nan

>  <Num_Resolved_Atoms>  (409) 
nan

>  <Num_Not_Resolved_Atoms>  (409) 
nan

$$$$
CHEMBL3680581
     RDKit          3D

  0  0  0  0  0  0  0  0  0  0999 V3000
M  V30 BEGIN CTAB
M  V30 COUNTS 76 81 0 0 0
M  V30 BEGIN ATOM
M  V30 1 C -0.185563 -4.488587 5.456386 0
M  V30 2 N 0.853329 -4.323037 4.488278 0
M  V30 3 C 0.966064 -5.351278 3.511546 0
M  V30 4 C 0.023702 -5.127859 2.385428 0
M  V30 5 N 0.247266 -3.855419 1.699418 0
M  V30 6 C 1.440279 -3.920072 0.900966 0
M  V30 7 C 1.616856 -2.723170 0.036329 0
M  V30 8 C 0.512456 -2.538708 -0.938069 0
M  V30 9 N 0.721227 -1.365558 -1.807430 0
M  V30 10 C 1.828731 -1.184593 -2.681327 0
M  V30 11 N 2.810245 -2.106988 -2.774490 0
M  V30 12 C 3.878187 -1.980773 -3.580519 0
M  V30 13 N 3.990726 -0.870098 -4.350565 0
M  V30 14 C 3.032784 0.098899 -4.302966 0
M  V30 15 C 3.144719 1.227315 -5.086653 0
M  V30 16 C 4.277399 1.440383 -5.987924 0
M  V30 17 N 5.375650 0.555763 -6.168580 0
M  V30 18 O 4.390851 2.461946 -6.712346 0
M  V30 19 C 2.190140 2.222833 -5.059998 0
M  V30 20 C 1.080984 2.084467 -4.217125 0
M  V30 21 C 1.026225 0.933265 -3.458217 0
M  V30 22 C 1.953184 -0.062254 -3.466184 0
M  V30 23 C -0.854219 -2.486720 -0.354376 0
M  V30 24 C -1.701347 -3.574193 -0.296279 0
M  V30 25 C -2.967248 -3.404065 0.243908 0
M  V30 26 C -3.304973 -2.148400 0.693878 0
M  V30 27 C -2.510851 -1.028631 0.665364 0
M  V30 28 N -2.842899 0.270259 1.113586 0
M  V30 29 C -4.022744 0.777981 1.671305 0
M  V30 30 O -4.979252 -0.017543 1.817781 0
M  V30 31 C -4.170919 2.162505 2.075447 0
M  V30 32 C -3.216016 3.147731 1.973043 0
M  V30 33 C -3.707459 4.330076 2.454313 0
M  V30 34 C -2.941294 5.597067 2.490823 0
M  V30 35 C -1.488051 5.633457 2.353745 0
M  V30 36 C -2.304949 5.910334 1.118339 0
M  V30 37 N -4.961197 4.048869 2.845373 0
M  V30 38 N -5.231395 2.774803 2.621675 0
M  V30 39 C -1.268777 -1.259811 0.119608 0
M  V30 40 C 0.262168 -2.767065 2.649485 0
M  V30 41 C 0.965382 -3.011301 3.926649 0
M  V30 42 H -0.510600 -3.544249 5.926568 0
M  V30 43 H -1.084599 -4.923491 4.947677 0
M  V30 44 H 0.203308 -5.173649 6.243162 0
M  V30 45 H 0.661669 -6.311044 3.999257 0
M  V30 46 H 2.025008 -5.441160 3.187110 0
M  V30 47 H -1.020777 -5.191265 2.689430 0
M  V30 48 H 0.211317 -5.896059 1.608691 0
M  V30 49 H 2.300484 -4.061833 1.599397 0
M  V30 50 H 1.386041 -4.865576 0.314410 0
M  V30 51 H 2.541245 -2.947886 -0.593851 0
M  V30 52 H 1.903413 -1.798621 0.575045 0
M  V30 53 H 0.532283 -3.416896 -1.633865 0
M  V30 54 H -0.005782 -0.649061 -1.763969 0
M  V30 55 H 4.618847 -2.789456 -3.580226 0
M  V30 56 H 6.085882 0.661261 -5.401367 0
M  V30 57 H 5.614382 -0.156317 -6.886396 0
M  V30 58 H 2.284354 3.110309 -5.679674 0
M  V30 59 H 0.357532 2.876780 -4.221366 0
M  V30 60 H 0.138592 0.915468 -2.844284 0
M  V30 61 H -1.366574 -4.522414 -0.667360 0
M  V30 62 H -3.656346 -4.231168 0.305140 0
M  V30 63 H -4.297739 -2.063902 1.105376 0
M  V30 64 H -2.104417 1.023315 1.035464 0
M  V30 65 H -2.221577 3.002354 1.568377 0
M  V30 66 H -3.498243 6.429325 2.966969 0
M  V30 67 H -0.834468 4.760818 2.411996 0
M  V30 68 H -0.971460 6.552335 2.751075 0
M  V30 69 H -2.244026 5.121962 0.365149 0
M  V30 70 H -2.434379 6.956613 0.790648 0
M  V30 71 H -6.138167 2.302203 2.835905 0
M  V30 72 H -0.582803 -0.399268 0.084618 0
M  V30 73 H 0.695503 -1.887045 2.149910 0
M  V30 74 H -0.815870 -2.475715 2.827731 0
M  V30 75 H 2.036734 -2.708276 3.911276 0
M  V30 76 H 0.494439 -2.320053 4.689805 0
M  V30 END ATOM
M  V30 BEGIN BOND
M  V30 1 1 1 2
M  V30 2 1 2 3
M  V30 3 1 3 4
M  V30 4 1 4 5
M  V30 5 1 5 6
M  V30 6 1 6 7
M  V30 7 1 7 8
M  V30 8 1 8 9
M  V30 9 1 9 10
M  V30 10 2 10 11
M  V30 11 1 11 12
M  V30 12 2 12 13
M  V30 13 1 13 14
M  V30 14 2 14 15
M  V30 15 1 15 16
M  V30 16 1 16 17
M  V30 17 2 16 18
M  V30 18 1 15 19
M  V30 19 2 19 20
M  V30 20 1 20 21
M  V30 21 2 21 22
M  V30 22 1 8 23
M  V30 23 2 23 24
M  V30 24 1 24 25
M  V30 25 2 25 26
M  V30 26 1 26 27
M  V30 27 1 27 28
M  V30 28 1 28 29
M  V30 29 2 29 30
M  V30 30 1 29 31
M  V30 31 2 31 32
M  V30 32 1 32 33
M  V30 33 1 33 34
M  V30 34 1 34 35
M  V30 35 1 35 36
M  V30 36 2 33 37
M  V30 37 1 37 38
M  V30 38 2 27 39
M  V30 39 1 5 40
M  V30 40 1 40 41
M  V30 41 1 41 2
M  V30 42 1 22 10
M  V30 43 1 39 23
M  V30 44 1 22 14
M  V30 45 1 38 31
M  V30 46 1 36 34
M  V30 47 1 1 42
M  V30 48 1 1 43
M  V30 49 1 1 44
M  V30 50 1 3 45
M  V30 51 1 3 46
M  V30 52 1 4 47
M  V30 53 1 4 48
M  V30 54 1 6 49
M  V30 55 1 6 50
M  V30 56 1 7 51
M  V30 57 1 7 52
M  V30 58 1 8 53
M  V30 59 1 9 54
M  V30 60 1 12 55
M  V30 61 1 17 56
M  V30 62 1 17 57
M  V30 63 1 19 58
M  V30 64 1 20 59
M  V30 65 1 21 60
M  V30 66 1 24 61
M  V30 67 1 25 62
M  V30 68 1 26 63
M  V30 69 1 28 64
M  V30 70 1 32 65
M  V30 71 1 34 66
M  V30 72 1 35 67
M  V30 73 1 35 68
M  V30 74 1 36 69
M  V30 75 1 36 70
M  V30 76 1 38 71
M  V30 77 1 39 72
M  V30 78 1 40 73
M  V30 79 1 40 74
M  V30 80 1 41 75
M  V30 81 1 41 76
M  V30 END BOND
M  V30 END CTAB
M  END
>  <Dataset>  (410) 
ChEMBL_Kinases

>  <Ligand_Instance>  (410) 
nan

>  <PDB_ID>  (410) 
nan

>  <Standardized_SMILES>  (410) 
CN1CCN(CCC(Nc2ncnc3c(C(N)=O)cccc23)c2cccc(NC(=O)c3cc(C4CC4)n[nH]3)c2)CC1

>  <Name>  (410) 
nan

>  <Pocket>  (410) 
nan

>  <ATP_Site>  (410) 
nan

>  <Peripheral>  (410) 
nan

>  <Num_H_Atoms_ProtBoundConf>  (410) 
nan

>  <Num_Resolved_Atoms>  (410) 
nan

>  <Num_Not_Resolved_Atoms>  (410) 
nan

$$$$
CHEMBL3680585
     RDKit          3D

  0  0  0  0  0  0  0  0  0  0999 V3000
M  V30 BEGIN CTAB
M  V30 COUNTS 61 65 0 0 0
M  V30 BEGIN ATOM
M  V30 1 N 3.003496 -1.900687 4.631872 0
M  V30 2 C 4.120249 -1.065771 4.410499 0
M  V30 3 O 5.160275 -1.287379 5.078182 0
M  V30 4 C 4.007703 0.000985 3.424806 0
M  V30 5 C 5.099314 0.816512 3.241345 0
M  V30 6 C 4.967429 1.826977 2.300161 0
M  V30 7 C 3.786557 1.974854 1.604236 0
M  V30 8 C 2.694172 1.175387 1.773189 0
M  V30 9 C 1.536392 1.340178 1.063996 0
M  V30 10 N 1.372873 2.379428 0.112126 0
M  V30 11 C 0.188091 2.618960 -0.689415 0
M  V30 12 C -1.033222 2.726076 0.144086 0
M  V30 13 C -1.494862 3.834995 0.812792 0
M  V30 14 C -2.673660 3.813546 1.546547 0
M  V30 15 C -3.445397 2.651594 1.635727 0
M  V30 16 C -3.040609 1.486451 0.982546 0
M  V30 17 N -3.754998 0.259023 0.998753 0
M  V30 18 C -3.179932 -0.889400 0.339561 0
M  V30 19 C -3.227891 -1.220837 -1.005355 0
M  V30 20 C -2.597447 -2.388921 -1.392109 0
M  V30 21 C -1.955075 -3.173292 -0.457625 0
M  V30 22 C -1.286715 -4.420807 -0.960663 0
M  V30 23 C 0.042497 -4.033213 -1.614330 0
M  V30 24 C -0.124986 -3.544356 -3.024829 0
M  V30 25 N -0.992721 -4.373285 -3.810020 0
M  V30 26 C -1.329054 -5.585792 -3.086487 0
M  V30 27 C -2.153544 -5.234481 -1.863406 0
M  V30 28 C -1.919859 -2.825296 0.877839 0
M  V30 29 N -2.545799 -1.673677 1.231196 0
M  V30 30 C -1.850246 1.606906 0.275213 0
M  V30 31 N 0.612324 0.436458 1.394213 0
M  V30 32 C 0.712507 -0.533843 2.284056 0
M  V30 33 N 1.843477 -0.670027 2.956224 0
M  V30 34 C 2.847941 0.179113 2.712103 0
M  V30 35 H 2.381061 -2.726119 4.677601 0
M  V30 36 H 2.205007 -2.544703 4.779771 0
M  V30 37 H 5.957232 0.584677 3.855019 0
M  V30 38 H 5.837475 2.457178 2.171302 0
M  V30 39 H 3.799311 2.786042 0.904357 0
M  V30 40 H 2.140767 3.041757 -0.054351 0
M  V30 41 H 0.295209 3.563600 -1.233390 0
M  V30 42 H 0.037912 1.779419 -1.415255 0
M  V30 43 H -0.869842 4.729247 0.724735 0
M  V30 44 H -2.999221 4.708271 2.058693 0
M  V30 45 H -4.354479 2.611942 2.196739 0
M  V30 46 H -4.671233 0.280329 1.503820 0
M  V30 47 H -3.773034 -0.495248 -1.593302 0
M  V30 48 H -2.669641 -2.594713 -2.451405 0
M  V30 49 H -0.979122 -5.003280 -0.051037 0
M  V30 50 H 0.413871 -3.146406 -1.025392 0
M  V30 51 H 0.815982 -4.809817 -1.485364 0
M  V30 52 H 0.894576 -3.635834 -3.501516 0
M  V30 53 H -0.352373 -2.464710 -3.078763 0
M  V30 54 H -1.778438 -3.907220 -4.271197 0
M  V30 55 H -0.369078 -6.009059 -2.706452 0
M  V30 56 H -1.796950 -6.301762 -3.759261 0
M  V30 57 H -2.463098 -6.187003 -1.389022 0
M  V30 58 H -3.084546 -4.670868 -2.139100 0
M  V30 59 H -1.396147 -3.492003 1.546097 0
M  V30 60 H -1.547941 0.703981 -0.246359 0
M  V30 61 H -0.090352 -1.224689 2.491431 0
M  V30 END ATOM
M  V30 BEGIN BOND
M  V30 1 1 1 2
M  V30 2 2 2 3
M  V30 3 1 2 4
M  V30 4 2 4 5
M  V30 5 1 5 6
M  V30 6 2 6 7
M  V30 7 1 7 8
M  V30 8 2 8 9
M  V30 9 1 9 10
M  V30 10 1 10 11
M  V30 11 1 11 12
M  V30 12 2 12 13
M  V30 13 1 13 14
M  V30 14 2 14 15
M  V30 15 1 15 16
M  V30 16 1 16 17
M  V30 17 1 17 18
M  V30 18 2 18 19
M  V30 19 1 19 20
M  V30 20 2 20 21
M  V30 21 1 21 22
M  V30 22 1 22 23
M  V30 23 1 23 24
M  V30 24 1 24 25
M  V30 25 1 25 26
M  V30 26 1 26 27
M  V30 27 1 21 28
M  V30 28 2 28 29
M  V30 29 2 16 30
M  V30 30 1 9 31
M  V30 31 2 31 32
M  V30 32 1 32 33
M  V30 33 2 33 34
M  V30 34 1 34 4
M  V30 35 1 34 8
M  V30 36 1 30 12
M  V30 37 1 29 18
M  V30 38 1 27 22
M  V30 39 1 1 35
M  V30 40 1 1 36
M  V30 41 1 5 37
M  V30 42 1 6 38
M  V30 43 1 7 39
M  V30 44 1 10 40
M  V30 45 1 11 41
M  V30 46 1 11 42
M  V30 47 1 13 43
M  V30 48 1 14 44
M  V30 49 1 15 45
M  V30 50 1 17 46
M  V30 51 1 19 47
M  V30 52 1 20 48
M  V30 53 1 22 49
M  V30 54 1 23 50
M  V30 55 1 23 51
M  V30 56 1 24 52
M  V30 57 1 24 53
M  V30 58 1 25 54
M  V30 59 1 26 55
M  V30 60 1 26 56
M  V30 61 1 27 57
M  V30 62 1 27 58
M  V30 63 1 28 59
M  V30 64 1 30 60
M  V30 65 1 32 61
M  V30 END BOND
M  V30 END CTAB
M  END
>  <Dataset>  (411) 
ChEMBL_Kinases

>  <Ligand_Instance>  (411) 
nan

>  <PDB_ID>  (411) 
nan

>  <Standardized_SMILES>  (411) 
NC(=O)c1cccc2c(NCc3cccc(Nc4ccc(C5CCNCC5)cn4)c3)ncnc12

>  <Name>  (411) 
nan

>  <Pocket>  (411) 
nan

>  <ATP_Site>  (411) 
nan

>  <Peripheral>  (411) 
nan

>  <Num_H_Atoms_ProtBoundConf>  (411) 
nan

>  <Num_Resolved_Atoms>  (411) 
nan

>  <Num_Not_Resolved_Atoms>  (411) 
nan

$$$$
CHEMBL3680594
     RDKit          3D

  0  0  0  0  0  0  0  0  0  0999 V3000
M  V30 BEGIN CTAB
M  V30 COUNTS 56 60 0 0 0
M  V30 BEGIN ATOM
M  V30 1 C 5.150760 -4.917578 1.136826 0
M  V30 2 N 4.291075 -3.885709 0.540258 0
M  V30 3 C 4.034543 -2.700556 1.162601 0
M  V30 4 C 3.194240 -1.975274 0.320740 0
M  V30 5 C 2.596112 -0.629047 0.481252 0
M  V30 6 O 1.418739 -0.462980 0.033889 0
M  V30 7 N 3.190588 0.531024 1.089684 0
M  V30 8 C 2.138560 1.518494 0.947995 0
M  V30 9 C 2.096944 2.316854 -0.176289 0
M  V30 10 C 1.059388 3.243856 -0.272098 0
M  V30 11 C 0.162615 3.281531 0.767993 0
M  V30 12 C 0.219332 2.475109 1.884250 0
M  V30 13 C -0.779748 2.499300 2.994740 0
M  V30 14 N -1.777298 1.447333 2.794096 0
M  V30 15 C -2.609492 1.272420 1.662990 0
M  V30 16 N -2.579003 2.076106 0.594439 0
M  V30 17 C -3.328667 1.963445 -0.505431 0
M  V30 18 N -4.216597 0.944817 -0.575484 0
M  V30 19 C -4.307093 0.086250 0.468764 0
M  V30 20 C -5.213785 -0.947549 0.385918 0
M  V30 21 C -6.024418 -1.066664 -0.821495 0
M  V30 22 N -5.934169 -0.180885 -1.927586 0
M  V30 23 O -6.884095 -1.993980 -0.962553 0
M  V30 24 C -5.398514 -1.883912 1.380127 0
M  V30 25 C -4.577172 -1.691050 2.489102 0
M  V30 26 C -3.671262 -0.665252 2.581911 0
M  V30 27 C -3.514511 0.240610 1.583793 0
M  V30 28 C 1.245431 1.547935 1.995777 0
M  V30 29 C 2.940263 -2.735808 -0.827361 0
M  V30 30 C 2.194550 -2.556258 -1.997579 0
M  V30 31 C 2.163191 -3.547259 -2.957165 0
M  V30 32 C 2.866502 -4.689089 -2.740754 0
M  V30 33 C 3.627401 -4.926172 -1.595390 0
M  V30 34 C 3.643674 -3.907722 -0.637709 0
M  V30 35 H 6.052813 -4.468954 1.591952 0
M  V30 36 H 5.456988 -5.616047 0.327684 0
M  V30 37 H 4.536372 -5.498850 1.857593 0
M  V30 38 H 4.368010 -2.322226 2.105695 0
M  V30 39 H 4.159497 0.353125 1.445618 0
M  V30 40 H 2.826675 2.250684 -0.970596 0
M  V30 41 H 0.939223 3.914577 -1.110741 0
M  V30 42 H -0.643230 4.022905 0.686062 0
M  V30 43 H -1.292378 3.475575 3.074710 0
M  V30 44 H -0.200755 2.382151 3.924968 0
M  V30 45 H -1.810858 0.813338 3.609736 0
M  V30 46 H -3.105554 2.733923 -1.206763 0
M  V30 47 H -5.171914 -0.429037 -2.619474 0
M  V30 48 H -6.566560 0.618964 -2.019164 0
M  V30 49 H -6.088669 -2.705561 1.364209 0
M  V30 50 H -4.702094 -2.422516 3.299555 0
M  V30 51 H -3.110674 -0.636683 3.483788 0
M  V30 52 H 1.318447 0.905267 2.852979 0
M  V30 53 H 1.654181 -1.600541 -2.092223 0
M  V30 54 H 1.578769 -3.380001 -3.848399 0
M  V30 55 H 2.824069 -5.454202 -3.513168 0
M  V30 56 H 4.183061 -5.824096 -1.421431 0
M  V30 END ATOM
M  V30 BEGIN BOND
M  V30 1 1 1 2
M  V30 2 1 2 3
M  V30 3 2 3 4
M  V30 4 1 4 5
M  V30 5 2 5 6
M  V30 6 1 5 7
M  V30 7 1 7 8
M  V30 8 2 8 9
M  V30 9 1 9 10
M  V30 10 2 10 11
M  V30 11 1 11 12
M  V30 12 1 12 13
M  V30 13 1 13 14
M  V30 14 1 14 15
M  V30 15 2 15 16
M  V30 16 1 16 17
M  V30 17 2 17 18
M  V30 18 1 18 19
M  V30 19 2 19 20
M  V30 20 1 20 21
M  V30 21 1 21 22
M  V30 22 2 21 23
M  V30 23 1 20 24
M  V30 24 2 24 25
M  V30 25 1 25 26
M  V30 26 2 26 27
M  V30 27 2 12 28
M  V30 28 1 4 29
M  V30 29 2 29 30
M  V30 30 1 30 31
M  V30 31 2 31 32
M  V30 32 1 32 33
M  V30 33 2 33 34
M  V30 34 1 34 2
M  V30 35 1 28 8
M  V30 36 1 34 29
M  V30 37 1 27 15
M  V30 38 1 27 19
M  V30 39 1 1 35
M  V30 40 1 1 36
M  V30 41 1 1 37
M  V30 42 1 3 38
M  V30 43 1 7 39
M  V30 44 1 9 40
M  V30 45 1 10 41
M  V30 46 1 11 42
M  V30 47 1 13 43
M  V30 48 1 13 44
M  V30 49 1 14 45
M  V30 50 1 17 46
M  V30 51 1 22 47
M  V30 52 1 22 48
M  V30 53 1 24 49
M  V30 54 1 25 50
M  V30 55 1 26 51
M  V30 56 1 28 52
M  V30 57 1 30 53
M  V30 58 1 31 54
M  V30 59 1 32 55
M  V30 60 1 33 56
M  V30 END BOND
M  V30 END CTAB
M  END
>  <Dataset>  (412) 
ChEMBL_Kinases

>  <Ligand_Instance>  (412) 
nan

>  <PDB_ID>  (412) 
nan

>  <Standardized_SMILES>  (412) 
Cn1cc(C(=O)Nc2cccc(CNc3ncnc4c(C(N)=O)cccc34)c2)c2ccccc21

>  <Name>  (412) 
nan

>  <Pocket>  (412) 
nan

>  <ATP_Site>  (412) 
nan

>  <Peripheral>  (412) 
nan

>  <Num_H_Atoms_ProtBoundConf>  (412) 
nan

>  <Num_Resolved_Atoms>  (412) 
nan

>  <Num_Not_Resolved_Atoms>  (412) 
nan

$$$$
CHEMBL3680564
     RDKit          3D

  0  0  0  0  0  0  0  0  0  0999 V3000
M  V30 BEGIN CTAB
M  V30 COUNTS 55 59 0 0 0
M  V30 BEGIN ATOM
M  V30 1 N 3.762411 -3.187560 3.345668 0
M  V30 2 C 4.193704 -2.282798 4.370712 0
M  V30 3 O 4.776220 -2.722752 5.387357 0
M  V30 4 C 3.954634 -0.848881 4.230853 0
M  V30 5 C 4.392601 -0.023902 5.249503 0
M  V30 6 C 4.152648 1.314996 5.087617 0
M  V30 7 C 3.514309 1.780944 3.971957 0
M  V30 8 C 3.074923 0.985427 2.957032 0
M  V30 9 C 2.435390 1.500095 1.849536 0
M  V30 10 N 2.191335 2.869379 1.680436 0
M  V30 11 C 1.533072 3.518927 0.570073 0
M  V30 12 C 0.141920 3.039052 0.463219 0
M  V30 13 C -0.773828 3.714055 1.251415 0
M  V30 14 C -2.122995 3.436314 1.297241 0
M  V30 15 C -2.628286 2.414617 0.509815 0
M  V30 16 C -1.723451 1.735750 -0.279698 0
M  V30 17 N -2.219820 0.682680 -1.096889 0
M  V30 18 C -2.326734 -0.672664 -0.726595 0
M  V30 19 O -1.933775 -0.916401 0.441253 0
M  V30 20 C -2.848349 -1.703331 -1.621493 0
M  V30 21 C -3.281104 -1.443340 -2.906458 0
M  V30 22 C -3.764211 -2.466810 -3.700778 0
M  V30 23 C -3.817484 -3.775542 -3.205773 0
M  V30 24 C -3.381626 -4.019148 -1.919967 0
M  V30 25 C -2.895784 -3.006899 -1.112992 0
M  V30 26 O -3.490757 -5.348721 -1.562078 0
M  V30 27 C -3.215989 -6.405897 -2.458084 0
M  V30 28 C -3.557708 -6.092174 -3.891946 0
M  V30 29 O -4.280624 -4.874367 -3.910662 0
M  V30 30 C -0.378179 2.042142 -0.299795 0
M  V30 31 N 2.081597 0.557904 0.965327 0
M  V30 32 C 2.305881 -0.757695 1.102454 0
M  V30 33 N 2.929802 -1.235446 2.188285 0
M  V30 34 C 3.313788 -0.348054 3.118062 0
M  V30 35 H 4.139436 -3.661840 2.489795 0
M  V30 36 H 2.754568 -3.446930 3.518740 0
M  V30 37 H 4.891694 -0.434607 6.111387 0
M  V30 38 H 4.502202 1.966143 5.899068 0
M  V30 39 H 3.383592 2.850387 3.959301 0
M  V30 40 H 2.482640 3.575127 2.386335 0
M  V30 41 H 1.513584 4.604664 0.608536 0
M  V30 42 H 2.067480 3.251420 -0.395816 0
M  V30 43 H -0.477896 4.542242 1.914038 0
M  V30 44 H -2.813145 3.983056 1.924638 0
M  V30 45 H -3.664462 2.141273 0.492516 0
M  V30 46 H -2.516501 1.002427 -2.044785 0
M  V30 47 H -3.241344 -0.439234 -3.289381 0
M  V30 48 H -4.115792 -2.288637 -4.725264 0
M  V30 49 H -2.572222 -3.281077 -0.113215 0
M  V30 50 H -2.149765 -6.736635 -2.377020 0
M  V30 51 H -3.883842 -7.256671 -2.143390 0
M  V30 52 H -2.615190 -5.970834 -4.506042 0
M  V30 53 H -4.137684 -6.927880 -4.322799 0
M  V30 54 H 0.324227 1.511171 -0.927149 0
M  V30 55 H 1.959973 -1.384406 0.303151 0
M  V30 END ATOM
M  V30 BEGIN BOND
M  V30 1 1 1 2
M  V30 2 2 2 3
M  V30 3 1 2 4
M  V30 4 2 4 5
M  V30 5 1 5 6
M  V30 6 2 6 7
M  V30 7 1 7 8
M  V30 8 2 8 9
M  V30 9 1 9 10
M  V30 10 1 10 11
M  V30 11 1 11 12
M  V30 12 2 12 13
M  V30 13 1 13 14
M  V30 14 2 14 15
M  V30 15 1 15 16
M  V30 16 1 16 17
M  V30 17 1 17 18
M  V30 18 2 18 19
M  V30 19 1 18 20
M  V30 20 2 20 21
M  V30 21 1 21 22
M  V30 22 2 22 23
M  V30 23 1 23 24
M  V30 24 2 24 25
M  V30 25 1 24 26
M  V30 26 1 26 27
M  V30 27 1 27 28
M  V30 28 1 28 29
M  V30 29 2 16 30
M  V30 30 1 9 31
M  V30 31 2 31 32
M  V30 32 1 32 33
M  V30 33 2 33 34
M  V30 34 1 34 4
M  V30 35 1 34 8
M  V30 36 1 30 12
M  V30 37 1 25 20
M  V30 38 1 29 23
M  V30 39 1 1 35
M  V30 40 1 1 36
M  V30 41 1 5 37
M  V30 42 1 6 38
M  V30 43 1 7 39
M  V30 44 1 10 40
M  V30 45 1 11 41
M  V30 46 1 11 42
M  V30 47 1 13 43
M  V30 48 1 14 44
M  V30 49 1 15 45
M  V30 50 1 17 46
M  V30 51 1 21 47
M  V30 52 1 22 48
M  V30 53 1 25 49
M  V30 54 1 27 50
M  V30 55 1 27 51
M  V30 56 1 28 52
M  V30 57 1 28 53
M  V30 58 1 30 54
M  V30 59 1 32 55
M  V30 END BOND
M  V30 END CTAB
M  END
>  <Dataset>  (413) 
ChEMBL_Kinases

>  <Ligand_Instance>  (413) 
nan

>  <PDB_ID>  (413) 
nan

>  <Standardized_SMILES>  (413) 
NC(=O)c1cccc2c(NCc3cccc(NC(=O)c4ccc5c(c4)OCCO5)c3)ncnc12

>  <Name>  (413) 
nan

>  <Pocket>  (413) 
nan

>  <ATP_Site>  (413) 
nan

>  <Peripheral>  (413) 
nan

>  <Num_H_Atoms_ProtBoundConf>  (413) 
nan

>  <Num_Resolved_Atoms>  (413) 
nan

>  <Num_Not_Resolved_Atoms>  (413) 
nan

$$$$
CHEMBL3684340
     RDKit          3D

  0  0  0  0  0  0  0  0  0  0999 V3000
M  V30 BEGIN CTAB
M  V30 COUNTS 57 62 0 0 0
M  V30 BEGIN ATOM
M  V30 1 O 1.376290 0.933634 2.174966 0
M  V30 2 C 2.545598 0.517913 2.386886 0
M  V30 3 N 2.994248 -0.543577 1.551724 0
M  V30 4 C 2.001766 -0.946900 0.603452 0
M  V30 5 C 1.989003 -0.316899 -0.618290 0
M  V30 6 C 1.040489 -0.691774 -1.544926 0
M  V30 7 C 0.082657 -1.692879 -1.295147 0
M  V30 8 C -0.902929 -2.131395 -2.256952 0
M  V30 9 N -0.347460 -2.656841 -3.386857 0
M  V30 10 N -1.321335 -3.086371 -4.207928 0
M  V30 11 C -2.494982 -2.840169 -3.612456 0
M  V30 12 N -2.216652 -2.260132 -2.437082 0
M  V30 13 C -3.103463 -1.803298 -1.440510 0
M  V30 14 C -2.515480 -0.814066 -0.701054 0
M  V30 15 C -3.244068 -0.302611 0.352900 0
M  V30 16 C -4.518755 -0.824478 0.585994 0
M  V30 17 N -5.100293 -1.810227 -0.160435 0
M  V30 18 C -4.362827 -2.291340 -1.185909 0
M  V30 19 N -5.123183 -3.268096 -1.934293 0
M  V30 20 C -4.926650 -3.422795 -3.361129 0
M  V30 21 C -6.124330 -3.829157 -3.958598 0
M  V30 22 C -6.112386 -4.006516 -5.325302 0
M  V30 23 C -4.968490 -3.794691 -6.088104 0
M  V30 24 C -3.778438 -3.394567 -5.516684 0
M  V30 25 C -3.792422 -3.219242 -4.156667 0
M  V30 26 C 0.203893 -2.256946 -0.011428 0
M  V30 27 C 1.113247 -1.939289 0.956401 0
M  V30 28 C 3.360455 1.116984 3.437564 0
M  V30 29 C 2.738777 2.149791 4.146659 0
M  V30 30 C 3.426728 2.790123 5.170180 0
M  V30 31 C 2.774260 3.885574 5.925841 0
M  V30 32 F 1.637648 4.294944 5.263331 0
M  V30 33 F 3.624237 4.982670 6.016584 0
M  V30 34 F 2.428084 3.510404 7.210406 0
M  V30 35 C 4.712636 2.375296 5.449047 0
M  V30 36 C 5.282795 1.351564 4.721156 0
M  V30 37 C 6.670933 0.958395 5.077777 0
M  V30 38 F 7.337888 2.047696 5.592567 0
M  V30 39 F 6.721421 -0.081753 5.981169 0
M  V30 40 F 7.330634 0.512440 3.939031 0
M  V30 41 C 4.624835 0.695218 3.697706 0
M  V30 42 H 3.955900 -0.926535 1.684297 0
M  V30 43 H 2.705614 0.466894 -0.871378 0
M  V30 44 H 1.011104 -0.204692 -2.523278 0
M  V30 45 H -1.592906 -0.306530 -0.800495 0
M  V30 46 H -2.918279 0.487638 1.040205 0
M  V30 47 H -5.131207 -0.463682 1.396922 0
M  V30 48 H -5.826678 -3.852030 -1.449421 0
M  V30 49 H -6.976675 -3.979142 -3.312372 0
M  V30 50 H -7.026728 -4.320167 -5.807725 0
M  V30 51 H -4.961208 -3.934049 -7.161189 0
M  V30 52 H -2.838652 -3.202761 -6.004857 0
M  V30 53 H -0.532286 -3.038499 0.203576 0
M  V30 54 H 1.097577 -2.446514 1.895150 0
M  V30 55 H 1.732174 2.495549 3.949716 0
M  V30 56 H 5.207357 2.903483 6.253759 0
M  V30 57 H 5.092533 -0.089349 3.156586 0
M  V30 END ATOM
M  V30 BEGIN BOND
M  V30 1 2 1 2
M  V30 2 1 2 3
M  V30 3 1 3 4
M  V30 4 2 4 5
M  V30 5 1 5 6
M  V30 6 2 6 7
M  V30 7 1 7 8
M  V30 8 2 8 9
M  V30 9 1 9 10
M  V30 10 2 10 11
M  V30 11 1 11 12
M  V30 12 1 12 13
M  V30 13 2 13 14
M  V30 14 1 14 15
M  V30 15 2 15 16
M  V30 16 1 16 17
M  V30 17 2 17 18
M  V30 18 1 18 19
M  V30 19 1 19 20
M  V30 20 2 20 21
M  V30 21 1 21 22
M  V30 22 2 22 23
M  V30 23 1 23 24
M  V30 24 2 24 25
M  V30 25 1 7 26
M  V30 26 2 26 27
M  V30 27 1 2 28
M  V30 28 2 28 29
M  V30 29 1 29 30
M  V30 30 1 30 31
M  V30 31 1 31 32
M  V30 32 1 31 33
M  V30 33 1 31 34
M  V30 34 2 30 35
M  V30 35 1 35 36
M  V30 36 1 36 37
M  V30 37 1 37 38
M  V30 38 1 37 39
M  V30 39 1 37 40
M  V30 40 2 36 41
M  V30 41 1 27 4
M  V30 42 1 41 28
M  V30 43 1 12 8
M  V30 44 1 18 13
M  V30 45 1 25 20
M  V30 46 1 25 11
M  V30 47 1 3 42
M  V30 48 1 5 43
M  V30 49 1 6 44
M  V30 50 1 14 45
M  V30 51 1 15 46
M  V30 52 1 16 47
M  V30 53 1 19 48
M  V30 54 1 21 49
M  V30 55 1 22 50
M  V30 56 1 23 51
M  V30 57 1 24 52
M  V30 58 1 26 53
M  V30 59 1 27 54
M  V30 60 1 29 55
M  V30 61 1 35 56
M  V30 62 1 41 57
M  V30 END BOND
M  V30 END CTAB
M  END
>  <Dataset>  (414) 
ChEMBL_Kinases

>  <Ligand_Instance>  (414) 
nan

>  <PDB_ID>  (414) 
nan

>  <Standardized_SMILES>  (414) 
O=C(Nc1ccc(-c2nnc3n2-c2cccnc2Nc2ccccc2-3)cc1)c1cc(C(F)(F)F)cc(C(F)(F)F)c1

>  <Name>  (414) 
nan

>  <Pocket>  (414) 
nan

>  <ATP_Site>  (414) 
nan

>  <Peripheral>  (414) 
nan

>  <Num_H_Atoms_ProtBoundConf>  (414) 
nan

>  <Num_Resolved_Atoms>  (414) 
nan

>  <Num_Not_Resolved_Atoms>  (414) 
nan

$$$$
CHEMBL3684339
     RDKit          3D

  0  0  0  0  0  0  0  0  0  0999 V3000
M  V30 BEGIN CTAB
M  V30 COUNTS 57 63 0 0 0
M  V30 BEGIN ATOM
M  V30 1 O 2.170972 -3.988485 0.878222 0
M  V30 2 C 1.264458 -4.378240 0.098880 0
M  V30 3 N 0.247296 -3.490286 -0.283394 0
M  V30 4 C -0.146490 -2.143733 -0.067083 0
M  V30 5 C -1.006311 -1.620465 0.879090 0
M  V30 6 C -1.246475 -0.265261 0.921570 0
M  V30 7 C -0.629712 0.617057 0.012983 0
M  V30 8 C -0.885521 2.044756 0.004702 0
M  V30 9 N -1.415817 2.492153 -1.166021 0
M  V30 10 N -1.669416 3.808086 -1.074774 0
M  V30 11 C -1.302462 4.204844 0.154419 0
M  V30 12 N -0.829684 3.126266 0.786519 0
M  V30 13 C -0.318841 3.019190 2.088146 0
M  V30 14 C 0.547959 1.962094 2.178682 0
M  V30 15 C 1.107082 1.671387 3.418887 0
M  V30 16 C 0.722585 2.509617 4.477346 0
M  V30 17 N -0.141129 3.568590 4.383206 0
M  V30 18 C -0.657745 3.811383 3.160225 0
M  V30 19 N -1.484769 4.996535 3.196100 0
M  V30 20 C -1.581885 5.856612 2.032783 0
M  V30 21 C -1.792432 7.170945 2.440513 0
M  V30 22 C -1.893637 8.155190 1.464180 0
M  V30 23 C -1.781176 7.783323 0.142634 0
M  V30 24 C -1.573100 6.502586 -0.318737 0
M  V30 25 C -1.479219 5.557452 0.673582 0
M  V30 26 C 0.251499 0.097451 -0.959175 0
M  V30 27 C 0.474919 -1.289434 -0.976180 0
M  V30 28 C 1.274100 -5.739965 -0.400983 0
M  V30 29 C 2.270499 -6.554109 0.083202 0
M  V30 30 C 2.411146 -7.868260 -0.309662 0
M  V30 31 C 1.488560 -8.349958 -1.233176 0
M  V30 32 C 1.630528 -9.683453 -1.633373 0
M  V30 33 C 0.702433 -10.148339 -2.554996 0
M  V30 34 C -0.323602 -9.397679 -3.086675 0
M  V30 35 C -0.423423 -8.085735 -2.661381 0
M  V30 36 C 0.478909 -7.551650 -1.733373 0
M  V30 37 C 0.358250 -6.217555 -1.316866 0
M  V30 38 H -0.554862 -3.735356 -0.923997 0
M  V30 39 H -1.438992 -2.355555 1.538767 0
M  V30 40 H -1.921608 0.128546 1.665883 0
M  V30 41 H 0.940765 1.308264 1.442549 0
M  V30 42 H 1.804019 0.875639 3.666909 0
M  V30 43 H 1.103585 2.360174 5.476841 0
M  V30 44 H -1.995943 5.245052 4.052295 0
M  V30 45 H -1.871482 7.363921 3.501230 0
M  V30 46 H -2.056303 9.175150 1.755324 0
M  V30 47 H -1.860929 8.554702 -0.634656 0
M  V30 48 H -1.477740 6.156015 -1.329833 0
M  V30 49 H 0.715302 0.780472 -1.646559 0
M  V30 50 H 1.167727 -1.581836 -1.759767 0
M  V30 51 H 3.006051 -6.215177 0.804520 0
M  V30 52 H 3.208116 -8.491507 0.089519 0
M  V30 53 H 2.419155 -10.327286 -1.248169 0
M  V30 54 H 0.732754 -11.173997 -2.926445 0
M  V30 55 H -1.041549 -9.752164 -3.798052 0
M  V30 56 H -1.205839 -7.423082 -3.031703 0
M  V30 57 H -0.428560 -5.588637 -1.703587 0
M  V30 END ATOM
M  V30 BEGIN BOND
M  V30 1 2 1 2
M  V30 2 1 2 3
M  V30 3 1 3 4
M  V30 4 2 4 5
M  V30 5 1 5 6
M  V30 6 2 6 7
M  V30 7 1 7 8
M  V30 8 2 8 9
M  V30 9 1 9 10
M  V30 10 2 10 11
M  V30 11 1 11 12
M  V30 12 1 12 13
M  V30 13 2 13 14
M  V30 14 1 14 15
M  V30 15 2 15 16
M  V30 16 1 16 17
M  V30 17 2 17 18
M  V30 18 1 18 19
M  V30 19 1 19 20
M  V30 20 2 20 21
M  V30 21 1 21 22
M  V30 22 2 22 23
M  V30 23 1 23 24
M  V30 24 2 24 25
M  V30 25 1 7 26
M  V30 26 2 26 27
M  V30 27 1 2 28
M  V30 28 2 28 29
M  V30 29 1 29 30
M  V30 30 2 30 31
M  V30 31 1 31 32
M  V30 32 2 32 33
M  V30 33 1 33 34
M  V30 34 2 34 35
M  V30 35 1 35 36
M  V30 36 2 36 37
M  V30 37 1 27 4
M  V30 38 1 37 28
M  V30 39 1 12 8
M  V30 40 1 18 13
M  V30 41 1 25 20
M  V30 42 1 36 31
M  V30 43 1 25 11
M  V30 44 1 3 38
M  V30 45 1 5 39
M  V30 46 1 6 40
M  V30 47 1 14 41
M  V30 48 1 15 42
M  V30 49 1 16 43
M  V30 50 1 19 44
M  V30 51 1 21 45
M  V30 52 1 22 46
M  V30 53 1 23 47
M  V30 54 1 24 48
M  V30 55 1 26 49
M  V30 56 1 27 50
M  V30 57 1 29 51
M  V30 58 1 30 52
M  V30 59 1 32 53
M  V30 60 1 33 54
M  V30 61 1 34 55
M  V30 62 1 35 56
M  V30 63 1 37 57
M  V30 END BOND
M  V30 END CTAB
M  END
>  <Dataset>  (415) 
ChEMBL_Kinases

>  <Ligand_Instance>  (415) 
nan

>  <PDB_ID>  (415) 
nan

>  <Standardized_SMILES>  (415) 
O=C(Nc1ccc(-c2nnc3n2-c2cccnc2Nc2ccccc2-3)cc1)c1ccc2ccccc2c1

>  <Name>  (415) 
nan

>  <Pocket>  (415) 
nan

>  <ATP_Site>  (415) 
nan

>  <Peripheral>  (415) 
nan

>  <Num_H_Atoms_ProtBoundConf>  (415) 
nan

>  <Num_Resolved_Atoms>  (415) 
nan

>  <Num_Not_Resolved_Atoms>  (415) 
nan

$$$$
CHEMBL3684338
     RDKit          3D

  0  0  0  0  0  0  0  0  0  0999 V3000
M  V30 BEGIN CTAB
M  V30 COUNTS 55 60 0 0 0
M  V30 BEGIN ATOM
M  V30 1 C 8.072003 0.389314 1.206382 0
M  V30 2 O 8.036783 1.721934 1.678024 0
M  V30 3 C 6.872984 2.453800 1.798448 0
M  V30 4 C 6.864268 3.757076 2.262847 0
M  V30 5 C 5.637221 4.402682 2.344807 0
M  V30 6 C 4.460200 3.785100 1.981668 0
M  V30 7 C 4.454987 2.502214 1.522854 0
M  V30 8 C 3.280847 1.720505 1.101300 0
M  V30 9 O 3.345824 0.515442 0.678188 0
M  V30 10 N 1.962523 2.215157 1.118773 0
M  V30 11 C 1.067097 1.193483 0.644985 0
M  V30 12 C 0.540335 0.338986 1.590747 0
M  V30 13 C -0.308804 -0.616295 1.075557 0
M  V30 14 C -0.679907 -0.802066 -0.269182 0
M  V30 15 C -1.561049 -1.875312 -0.672481 0
M  V30 16 N -0.964842 -2.768732 -1.514254 0
M  V30 17 N -1.827889 -3.756821 -1.800800 0
M  V30 18 C -2.970808 -3.505494 -1.150974 0
M  V30 19 N -2.788485 -2.360304 -0.477013 0
M  V30 20 C -3.688565 -1.667771 0.352736 0
M  V30 21 C -3.367623 -0.337949 0.392582 0
M  V30 22 C -4.127460 0.473550 1.210384 0
M  V30 23 C -5.170236 -0.115968 1.937109 0
M  V30 24 N -5.479123 -1.447725 1.881463 0
M  V30 25 C -4.719327 -2.216125 1.073470 0
M  V30 26 N -5.215022 -3.576198 1.064294 0
M  V30 27 C -5.093044 -4.391282 -0.128266 0
M  V30 28 C -6.157560 -5.296275 -0.189185 0
M  V30 29 C -6.203970 -6.141717 -1.277425 0
M  V30 30 C -5.237294 -6.098878 -2.271222 0
M  V30 31 C -4.176686 -5.219250 -2.238991 0
M  V30 32 C -4.137169 -4.381891 -1.152961 0
M  V30 33 C -0.086264 0.122366 -1.148858 0
M  V30 34 C 0.773642 1.104945 -0.700397 0
M  V30 35 C 5.672902 1.834889 1.432047 0
M  V30 36 H 9.133978 0.076246 1.130493 0
M  V30 37 H 7.551446 -0.320500 1.869308 0
M  V30 38 H 7.646706 0.331274 0.184871 0
M  V30 39 H 7.799789 4.224320 2.542970 0
M  V30 40 H 5.605616 5.421709 2.704902 0
M  V30 41 H 3.486336 4.262742 2.034259 0
M  V30 42 H 1.787608 3.196132 1.448547 0
M  V30 43 H 0.723203 0.350124 2.641721 0
M  V30 44 H -0.765627 -1.331800 1.772385 0
M  V30 45 H -2.649763 0.235426 -0.131787 0
M  V30 46 H -4.039744 1.554547 1.388835 0
M  V30 47 H -5.798361 0.445728 2.590447 0
M  V30 48 H -5.668062 -3.959634 1.897544 0
M  V30 49 H -6.872198 -5.275420 0.620803 0
M  V30 50 H -7.009896 -6.844396 -1.347203 0
M  V30 51 H -5.273434 -6.767923 -3.134031 0
M  V30 52 H -3.381865 -5.105223 -2.948899 0
M  V30 53 H -0.352214 0.005475 -2.190949 0
M  V30 54 H 1.220222 1.806403 -1.391316 0
M  V30 55 H 5.720852 0.798442 1.067692 0
M  V30 END ATOM
M  V30 BEGIN BOND
M  V30 1 1 1 2
M  V30 2 1 2 3
M  V30 3 2 3 4
M  V30 4 1 4 5
M  V30 5 2 5 6
M  V30 6 1 6 7
M  V30 7 1 7 8
M  V30 8 2 8 9
M  V30 9 1 8 10
M  V30 10 1 10 11
M  V30 11 2 11 12
M  V30 12 1 12 13
M  V30 13 2 13 14
M  V30 14 1 14 15
M  V30 15 2 15 16
M  V30 16 1 16 17
M  V30 17 2 17 18
M  V30 18 1 18 19
M  V30 19 1 19 20
M  V30 20 2 20 21
M  V30 21 1 21 22
M  V30 22 2 22 23
M  V30 23 1 23 24
M  V30 24 2 24 25
M  V30 25 1 25 26
M  V30 26 1 26 27
M  V30 27 2 27 28
M  V30 28 1 28 29
M  V30 29 2 29 30
M  V30 30 1 30 31
M  V30 31 2 31 32
M  V30 32 1 14 33
M  V30 33 2 33 34
M  V30 34 2 7 35
M  V30 35 1 35 3
M  V30 36 1 34 11
M  V30 37 1 19 15
M  V30 38 1 25 20
M  V30 39 1 32 27
M  V30 40 1 32 18
M  V30 41 1 1 36
M  V30 42 1 1 37
M  V30 43 1 1 38
M  V30 44 1 4 39
M  V30 45 1 5 40
M  V30 46 1 6 41
M  V30 47 1 10 42
M  V30 48 1 12 43
M  V30 49 1 13 44
M  V30 50 1 21 45
M  V30 51 1 22 46
M  V30 52 1 23 47
M  V30 53 1 26 48
M  V30 54 1 28 49
M  V30 55 1 29 50
M  V30 56 1 30 51
M  V30 57 1 31 52
M  V30 58 1 33 53
M  V30 59 1 34 54
M  V30 60 1 35 55
M  V30 END BOND
M  V30 END CTAB
M  END
>  <Dataset>  (416) 
ChEMBL_Kinases

>  <Ligand_Instance>  (416) 
nan

>  <PDB_ID>  (416) 
nan

>  <Standardized_SMILES>  (416) 
COc1cccc(C(=O)Nc2ccc(-c3nnc4n3-c3cccnc3Nc3ccccc3-4)cc2)c1

>  <Name>  (416) 
nan

>  <Pocket>  (416) 
nan

>  <ATP_Site>  (416) 
nan

>  <Peripheral>  (416) 
nan

>  <Num_H_Atoms_ProtBoundConf>  (416) 
nan

>  <Num_Resolved_Atoms>  (416) 
nan

>  <Num_Not_Resolved_Atoms>  (416) 
nan

$$$$
CHEMBL3684337
     RDKit          3D

  0  0  0  0  0  0  0  0  0  0999 V3000
M  V30 BEGIN CTAB
M  V30 COUNTS 68 75 0 0 0
M  V30 BEGIN ATOM
M  V30 1 O 0.592143 -2.101298 4.217540 0
M  V30 2 C 1.052341 -2.193054 3.038922 0
M  V30 3 C 0.196893 -2.125828 1.856973 0
M  V30 4 C 0.399452 -1.020507 1.051317 0
M  V30 5 C -0.394707 -0.927789 -0.072953 0
M  V30 6 C -1.377342 -1.872319 -0.438549 0
M  V30 7 C -2.115128 -1.651681 -1.663618 0
M  V30 8 N -1.330955 -1.607693 -2.775038 0
M  V30 9 N -2.103479 -1.447626 -3.863162 0
M  V30 10 C -3.367014 -1.388512 -3.468301 0
M  V30 11 N -3.356232 -1.510616 -2.132156 0
M  V30 12 C -4.440385 -1.506459 -1.230083 0
M  V30 13 C -4.036529 -1.097611 0.010772 0
M  V30 14 C -4.977309 -1.095040 1.019322 0
M  V30 15 C -6.278468 -1.505082 0.715143 0
M  V30 16 N -6.672902 -1.908061 -0.530897 0
M  V30 17 C -5.730168 -1.902757 -1.509974 0
M  V30 18 N -6.317092 -2.277149 -2.778208 0
M  V30 19 C -5.798436 -1.718458 -4.008815 0
M  V30 20 C -6.827510 -1.617071 -4.947423 0
M  V30 21 C -6.499406 -1.086462 -6.170084 0
M  V30 22 C -5.218322 -0.651706 -6.517055 0
M  V30 23 C -4.190729 -0.753216 -5.580545 0
M  V30 24 C -4.512151 -1.281269 -4.362900 0
M  V30 25 C -1.518978 -2.968687 0.437202 0
M  V30 26 C -0.741888 -3.092364 1.568942 0
M  V30 27 N 2.448903 -2.368002 2.840077 0
M  V30 28 C 3.018601 -2.479027 1.510261 0
M  V30 29 C 3.921768 -1.270711 1.314344 0
M  V30 30 C 3.953554 -0.448726 2.583116 0
M  V30 31 N 4.742889 0.742987 2.391270 0
M  V30 32 C 5.867660 1.007843 1.686808 0
M  V30 33 O 6.467206 0.156602 1.017231 0
M  V30 34 N 6.245487 2.271731 1.798524 0
M  V30 35 C 5.359827 2.910171 2.604735 0
M  V30 36 C 5.246796 4.205654 3.067094 0
M  V30 37 C 4.212836 4.589721 3.900794 0
M  V30 38 C 3.283316 3.638227 4.266026 0
M  V30 39 C 3.402301 2.335610 3.797136 0
M  V30 40 C 4.440997 1.941763 2.957412 0
M  V30 41 C 4.359852 -1.268259 3.777136 0
M  V30 42 C 3.429083 -2.451550 3.902157 0
M  V30 43 H 1.095992 -0.230428 1.194897 0
M  V30 44 H -0.274735 -0.065297 -0.751304 0
M  V30 45 H -3.110621 -0.720569 0.357118 0
M  V30 46 H -4.803886 -0.798091 2.049729 0
M  V30 47 H -7.042741 -1.518787 1.477756 0
M  V30 48 H -7.107264 -2.923425 -2.799269 0
M  V30 49 H -7.796509 -1.961578 -4.653654 0
M  V30 50 H -7.270025 -0.992491 -6.920400 0
M  V30 51 H -4.972369 -0.240546 -7.467518 0
M  V30 52 H -3.172800 -0.460344 -5.714568 0
M  V30 53 H -2.282712 -3.688866 0.137714 0
M  V30 54 H -0.874208 -3.933757 2.209033 0
M  V30 55 H 2.270310 -2.583868 0.711763 0
M  V30 56 H 3.677599 -3.391522 1.519835 0
M  V30 57 H 4.940126 -1.595453 1.021471 0
M  V30 58 H 3.406490 -0.644167 0.556428 0
M  V30 59 H 2.894981 -0.153217 2.760111 0
M  V30 60 H 7.078007 2.723516 1.352212 0
M  V30 61 H 5.974219 4.959468 2.783291 0
M  V30 62 H 4.074895 5.582964 4.291014 0
M  V30 63 H 2.436292 3.855958 4.921054 0
M  V30 64 H 2.657664 1.608489 4.099455 0
M  V30 65 H 5.392887 -1.650479 3.694168 0
M  V30 66 H 4.224673 -0.659751 4.713182 0
M  V30 67 H 3.993396 -3.416187 3.803137 0
M  V30 68 H 2.936341 -2.488155 4.907622 0
M  V30 END ATOM
M  V30 BEGIN BOND
M  V30 1 2 1 2
M  V30 2 1 2 3
M  V30 3 2 3 4
M  V30 4 1 4 5
M  V30 5 2 5 6
M  V30 6 1 6 7
M  V30 7 2 7 8
M  V30 8 1 8 9
M  V30 9 2 9 10
M  V30 10 1 10 11
M  V30 11 1 11 12
M  V30 12 2 12 13
M  V30 13 1 13 14
M  V30 14 2 14 15
M  V30 15 1 15 16
M  V30 16 2 16 17
M  V30 17 1 17 18
M  V30 18 1 18 19
M  V30 19 2 19 20
M  V30 20 1 20 21
M  V30 21 2 21 22
M  V30 22 1 22 23
M  V30 23 2 23 24
M  V30 24 1 6 25
M  V30 25 2 25 26
M  V30 26 1 2 27
M  V30 27 1 27 28
M  V30 28 1 28 29
M  V30 29 1 29 30
M  V30 30 1 30 31
M  V30 31 1 31 32
M  V30 32 2 32 33
M  V30 33 1 32 34
M  V30 34 1 34 35
M  V30 35 2 35 36
M  V30 36 1 36 37
M  V30 37 2 37 38
M  V30 38 1 38 39
M  V30 39 2 39 40
M  V30 40 1 30 41
M  V30 41 1 41 42
M  V30 42 1 26 3
M  V30 43 1 42 27
M  V30 44 1 11 7
M  V30 45 1 17 12
M  V30 46 1 24 19
M  V30 47 1 40 31
M  V30 48 1 24 10
M  V30 49 1 40 35
M  V30 50 1 4 43
M  V30 51 1 5 44
M  V30 52 1 13 45
M  V30 53 1 14 46
M  V30 54 1 15 47
M  V30 55 1 18 48
M  V30 56 1 20 49
M  V30 57 1 21 50
M  V30 58 1 22 51
M  V30 59 1 23 52
M  V30 60 1 25 53
M  V30 61 1 26 54
M  V30 62 1 28 55
M  V30 63 1 28 56
M  V30 64 1 29 57
M  V30 65 1 29 58
M  V30 66 1 30 59
M  V30 67 1 34 60
M  V30 68 1 36 61
M  V30 69 1 37 62
M  V30 70 1 38 63
M  V30 71 1 39 64
M  V30 72 1 41 65
M  V30 73 1 41 66
M  V30 74 1 42 67
M  V30 75 1 42 68
M  V30 END BOND
M  V30 END CTAB
M  END
>  <Dataset>  (417) 
ChEMBL_Kinases

>  <Ligand_Instance>  (417) 
nan

>  <PDB_ID>  (417) 
nan

>  <Standardized_SMILES>  (417) 
O=C(c1ccc(-c2nnc3n2-c2cccnc2Nc2ccccc2-3)cc1)N1CCC(n2c(=O)[nH]c3ccccc32)CC1

>  <Name>  (417) 
nan

>  <Pocket>  (417) 
nan

>  <ATP_Site>  (417) 
nan

>  <Peripheral>  (417) 
nan

>  <Num_H_Atoms_ProtBoundConf>  (417) 
nan

>  <Num_Resolved_Atoms>  (417) 
nan

>  <Num_Not_Resolved_Atoms>  (417) 
nan

$$$$
CHEMBL3684336
     RDKit          3D

  0  0  0  0  0  0  0  0  0  0999 V3000
M  V30 BEGIN CTAB
M  V30 COUNTS 43 47 0 0 0
M  V30 BEGIN ATOM
M  V30 1 C 5.784223 -4.067537 4.728958 0
M  V30 2 O 4.730646 -3.554805 3.947224 0
M  V30 3 C 4.852758 -3.084153 2.655021 0
M  V30 4 O 6.031113 -3.161718 2.235711 0
M  V30 5 C 3.717460 -2.566343 1.903165 0
M  V30 6 C 2.485646 -2.554190 2.521330 0
M  V30 7 C 1.457106 -2.053440 1.757758 0
M  V30 8 C 1.544369 -1.566550 0.441689 0
M  V30 9 C 0.387284 -1.092425 -0.279372 0
M  V30 10 N 0.107397 -1.829857 -1.394852 0
M  V30 11 N -1.007772 -1.355773 -1.978422 0
M  V30 12 C -1.439356 -0.329849 -1.250776 0
M  V30 13 N -0.589425 -0.184436 -0.238798 0
M  V30 14 C -0.600831 0.761785 0.808173 0
M  V30 15 C 0.662424 0.957868 1.297376 0
M  V30 16 C 0.800748 1.820214 2.365140 0
M  V30 17 C -0.351099 2.432201 2.868845 0
M  V30 18 N -1.598232 2.237748 2.378461 0
M  V30 19 C -1.713957 1.387535 1.329658 0
M  V30 20 N -3.084306 1.336497 0.865897 0
M  V30 21 C -3.373881 1.117772 -0.538727 0
M  V30 22 C -4.566640 1.769797 -0.870759 0
M  V30 23 C -4.987394 1.680929 -2.180721 0
M  V30 24 C -4.256947 0.973819 -3.128473 0
M  V30 25 C -3.079120 0.321466 -2.829352 0
M  V30 26 C -2.666130 0.413341 -1.523698 0
M  V30 27 C 2.842970 -1.624267 -0.092984 0
M  V30 28 C 3.919246 -2.114287 0.617453 0
M  V30 29 H 6.232960 -3.234679 5.332989 0
M  V30 30 H 5.435579 -4.873777 5.419701 0
M  V30 31 H 6.599416 -4.432814 4.072372 0
M  V30 32 H 2.271068 -2.895131 3.523880 0
M  V30 33 H 0.458974 -2.022242 2.202951 0
M  V30 34 H 1.604228 0.598122 0.979358 0
M  V30 35 H 1.730853 2.085780 2.874347 0
M  V30 36 H -0.310023 3.110706 3.698418 0
M  V30 37 H -3.848210 1.471124 1.529476 0
M  V30 38 H -5.081768 2.296072 -0.087872 0
M  V30 39 H -5.905992 2.175018 -2.466880 0
M  V30 40 H -4.586909 0.900601 -4.171074 0
M  V30 41 H -2.448671 -0.244832 -3.479485 0
M  V30 42 H 2.918075 -1.251101 -1.106138 0
M  V30 43 H 4.897085 -2.133568 0.151827 0
M  V30 END ATOM
M  V30 BEGIN BOND
M  V30 1 1 1 2
M  V30 2 1 2 3
M  V30 3 2 3 4
M  V30 4 1 3 5
M  V30 5 2 5 6
M  V30 6 1 6 7
M  V30 7 2 7 8
M  V30 8 1 8 9
M  V30 9 2 9 10
M  V30 10 1 10 11
M  V30 11 2 11 12
M  V30 12 1 12 13
M  V30 13 1 13 14
M  V30 14 2 14 15
M  V30 15 1 15 16
M  V30 16 2 16 17
M  V30 17 1 17 18
M  V30 18 2 18 19
M  V30 19 1 19 20
M  V30 20 1 20 21
M  V30 21 2 21 22
M  V30 22 1 22 23
M  V30 23 2 23 24
M  V30 24 1 24 25
M  V30 25 2 25 26
M  V30 26 1 8 27
M  V30 27 2 27 28
M  V30 28 1 28 5
M  V30 29 1 13 9
M  V30 30 1 19 14
M  V30 31 1 26 21
M  V30 32 1 26 12
M  V30 33 1 1 29
M  V30 34 1 1 30
M  V30 35 1 1 31
M  V30 36 1 6 32
M  V30 37 1 7 33
M  V30 38 1 15 34
M  V30 39 1 16 35
M  V30 40 1 17 36
M  V30 41 1 20 37
M  V30 42 1 22 38
M  V30 43 1 23 39
M  V30 44 1 24 40
M  V30 45 1 25 41
M  V30 46 1 27 42
M  V30 47 1 28 43
M  V30 END BOND
M  V30 END CTAB
M  END
>  <Dataset>  (418) 
ChEMBL_Kinases

>  <Ligand_Instance>  (418) 
nan

>  <PDB_ID>  (418) 
nan

>  <Standardized_SMILES>  (418) 
COC(=O)c1ccc(-c2nnc3n2-c2cccnc2Nc2ccccc2-3)cc1

>  <Name>  (418) 
nan

>  <Pocket>  (418) 
nan

>  <ATP_Site>  (418) 
nan

>  <Peripheral>  (418) 
nan

>  <Num_H_Atoms_ProtBoundConf>  (418) 
nan

>  <Num_Resolved_Atoms>  (418) 
nan

>  <Num_Not_Resolved_Atoms>  (418) 
nan

$$$$
CHEMBL3684335
     RDKit          3D

  0  0  0  0  0  0  0  0  0  0999 V3000
M  V30 BEGIN CTAB
M  V30 COUNTS 69 76 0 0 0
M  V30 BEGIN ATOM
M  V30 1 O 4.351502 -0.839654 -1.776032 0
M  V30 2 C 5.092841 -1.100802 -0.789854 0
M  V30 3 N 6.107077 -1.998452 -0.902603 0
M  V30 4 C 6.737907 -2.086973 0.298264 0
M  V30 5 C 7.806935 -2.811667 0.778564 0
M  V30 6 C 8.216383 -2.667492 2.103515 0
M  V30 7 C 7.537367 -1.783433 2.944872 0
M  V30 8 C 6.456351 -1.041781 2.483080 0
M  V30 9 C 6.100937 -1.227577 1.168903 0
M  V30 10 N 5.105496 -0.638647 0.489355 0
M  V30 11 C 4.101894 0.340824 0.847717 0
M  V30 12 C 4.159716 1.565946 -0.043981 0
M  V30 13 C 3.309571 2.617105 0.680957 0
M  V30 14 N 1.978275 2.131719 0.693939 0
M  V30 15 C 0.934080 3.065115 0.462812 0
M  V30 16 C -0.373801 2.361579 0.512242 0
M  V30 17 C -1.049929 2.241641 1.707583 0
M  V30 18 C -2.263686 1.588333 1.744850 0
M  V30 19 C -2.847032 1.030810 0.590457 0
M  V30 20 C -4.129463 0.364288 0.558514 0
M  V30 21 N -5.174037 1.165008 0.924125 0
M  V30 22 N -6.319616 0.493980 0.820619 0
M  V30 23 C -6.037868 -0.727236 0.394475 0
M  V30 24 N -4.707535 -0.794778 0.242594 0
M  V30 25 C -3.907926 -1.876123 -0.182667 0
M  V30 26 C -2.639718 -1.754789 0.314869 0
M  V30 27 C -1.719417 -2.712092 -0.058632 0
M  V30 28 C -2.151124 -3.734143 -0.913964 0
M  V30 29 N -3.417568 -3.852237 -1.403544 0
M  V30 30 C -4.299204 -2.899278 -1.020369 0
M  V30 31 N -5.616933 -3.186201 -1.546779 0
M  V30 32 C -6.802224 -2.810195 -0.800098 0
M  V30 33 C -7.825787 -3.726856 -1.069766 0
M  V30 34 C -9.029606 -3.532655 -0.427083 0
M  V30 35 C -9.220558 -2.469671 0.453461 0
M  V30 36 C -8.226907 -1.555943 0.732350 0
M  V30 37 C -7.031912 -1.752080 0.091091 0
M  V30 38 C -2.077441 1.207699 -0.575947 0
M  V30 39 C -0.862127 1.849711 -0.671704 0
M  V30 40 C 1.762129 0.805249 0.229534 0
M  V30 41 C 2.712872 -0.205205 0.804225 0
M  V30 42 H 6.381099 -2.546467 -1.759530 0
M  V30 43 H 8.305824 -3.477670 0.115857 0
M  V30 44 H 9.059932 -3.243217 2.471978 0
M  V30 45 H 7.846126 -1.660336 3.982915 0
M  V30 46 H 5.919653 -0.347699 3.135399 0
M  V30 47 H 4.292863 0.708902 1.894423 0
M  V30 48 H 5.179690 1.937172 -0.221981 0
M  V30 49 H 3.702854 1.371768 -1.040432 0
M  V30 50 H 3.759743 2.885683 1.634157 0
M  V30 51 H 3.318499 3.517001 -0.001646 0
M  V30 52 H 0.929853 3.799962 1.320243 0
M  V30 53 H 1.067866 3.630326 -0.481054 0
M  V30 54 H -0.642335 2.653678 2.622465 0
M  V30 55 H -2.826165 1.476220 2.679876 0
M  V30 56 H -2.210351 -1.068385 0.994867 0
M  V30 57 H -0.677066 -2.786765 0.225553 0
M  V30 58 H -1.484358 -4.509814 -1.244668 0
M  V30 59 H -5.707490 -3.670352 -2.441474 0
M  V30 60 H -7.612221 -4.526733 -1.764507 0
M  V30 61 H -9.830689 -4.225680 -0.619643 0
M  V30 62 H -10.169537 -2.313505 0.963024 0
M  V30 63 H -8.266492 -0.710032 1.385879 0
M  V30 64 H -2.522308 0.780587 -1.465905 0
M  V30 65 H -0.391949 1.903930 -1.643577 0
M  V30 66 H 0.744167 0.500079 0.614099 0
M  V30 67 H 1.706292 0.714781 -0.875334 0
M  V30 68 H 2.351950 -0.537522 1.806804 0
M  V30 69 H 2.643475 -1.104738 0.126593 0
M  V30 END ATOM
M  V30 BEGIN BOND
M  V30 1 2 1 2
M  V30 2 1 2 3
M  V30 3 1 3 4
M  V30 4 2 4 5
M  V30 5 1 5 6
M  V30 6 2 6 7
M  V30 7 1 7 8
M  V30 8 2 8 9
M  V30 9 1 9 10
M  V30 10 1 10 11
M  V30 11 1 11 12
M  V30 12 1 12 13
M  V30 13 1 13 14
M  V30 14 1 14 15
M  V30 15 1 15 16
M  V30 16 2 16 17
M  V30 17 1 17 18
M  V30 18 2 18 19
M  V30 19 1 19 20
M  V30 20 2 20 21
M  V30 21 1 21 22
M  V30 22 2 22 23
M  V30 23 1 23 24
M  V30 24 1 24 25
M  V30 25 2 25 26
M  V30 26 1 26 27
M  V30 27 2 27 28
M  V30 28 1 28 29
M  V30 29 2 29 30
M  V30 30 1 30 31
M  V30 31 1 31 32
M  V30 32 2 32 33
M  V30 33 1 33 34
M  V30 34 2 34 35
M  V30 35 1 35 36
M  V30 36 2 36 37
M  V30 37 1 19 38
M  V30 38 2 38 39
M  V30 39 1 14 40
M  V30 40 1 40 41
M  V30 41 1 10 2
M  V30 42 1 41 11
M  V30 43 1 9 4
M  V30 44 1 39 16
M  V30 45 1 24 20
M  V30 46 1 30 25
M  V30 47 1 37 32
M  V30 48 1 37 23
M  V30 49 1 3 42
M  V30 50 1 5 43
M  V30 51 1 6 44
M  V30 52 1 7 45
M  V30 53 1 8 46
M  V30 54 1 11 47
M  V30 55 1 12 48
M  V30 56 1 12 49
M  V30 57 1 13 50
M  V30 58 1 13 51
M  V30 59 1 15 52
M  V30 60 1 15 53
M  V30 61 1 17 54
M  V30 62 1 18 55
M  V30 63 1 26 56
M  V30 64 1 27 57
M  V30 65 1 28 58
M  V30 66 1 31 59
M  V30 67 1 33 60
M  V30 68 1 34 61
M  V30 69 1 35 62
M  V30 70 1 36 63
M  V30 71 1 38 64
M  V30 72 1 39 65
M  V30 73 1 40 66
M  V30 74 1 40 67
M  V30 75 1 41 68
M  V30 76 1 41 69
M  V30 END BOND
M  V30 END CTAB
M  END
>  <Dataset>  (419) 
ChEMBL_Kinases

>  <Ligand_Instance>  (419) 
nan

>  <PDB_ID>  (419) 
nan

>  <Standardized_SMILES>  (419) 
O=c1[nH]c2ccccc2n1C1CCN(Cc2ccc(-c3nnc4n3-c3cccnc3Nc3ccccc3-4)cc2)CC1

>  <Name>  (419) 
nan

>  <Pocket>  (419) 
nan

>  <ATP_Site>  (419) 
nan

>  <Peripheral>  (419) 
nan

>  <Num_H_Atoms_ProtBoundConf>  (419) 
nan

>  <Num_Resolved_Atoms>  (419) 
nan

>  <Num_Not_Resolved_Atoms>  (419) 
nan

$$$$
CHEMBL3684334
     RDKit          3D

  0  0  0  0  0  0  0  0  0  0999 V3000
M  V30 BEGIN CTAB
M  V30 COUNTS 41 45 0 0 0
M  V30 BEGIN ATOM
M  V30 1 O 1.660701 -6.350120 -2.283933 0
M  V30 2 C 1.033139 -5.223492 -2.851289 0
M  V30 3 C 1.100175 -4.120945 -1.857210 0
M  V30 4 C 2.194477 -3.283063 -1.893038 0
M  V30 5 C 2.281423 -2.251720 -0.981364 0
M  V30 6 C 1.288838 -2.021032 -0.009818 0
M  V30 7 C 1.349578 -0.975929 0.987950 0
M  V30 8 N 2.421785 -1.096480 1.825412 0
M  V30 9 N 2.379969 -0.125425 2.748057 0
M  V30 10 C 1.289650 0.621694 2.514148 0
M  V30 11 N 0.686980 0.087721 1.442810 0
M  V30 12 C -0.491538 0.502759 0.789743 0
M  V30 13 C -0.478072 0.099522 -0.517447 0
M  V30 14 C -1.592522 0.384881 -1.279510 0
M  V30 15 C -2.651634 1.065356 -0.665547 0
M  V30 16 N -2.649188 1.464053 0.635745 0
M  V30 17 C -1.547066 1.173599 1.361748 0
M  V30 18 N -1.662217 1.725189 2.694988 0
M  V30 19 C -0.479576 2.175856 3.402995 0
M  V30 20 C -0.812734 3.229056 4.255945 0
M  V30 21 C 0.207690 3.788745 4.996053 0
M  V30 22 C 1.514254 3.329735 4.902602 0
M  V30 23 C 1.872021 2.293310 4.071302 0
M  V30 24 C 0.851316 1.741766 3.339091 0
M  V30 25 C 0.218225 -2.934420 -0.063497 0
M  V30 26 C 0.073528 -3.982615 -0.947320 0
M  V30 27 H 1.558195 -6.289316 -1.294565 0
M  V30 28 H 1.521206 -4.939055 -3.805635 0
M  V30 29 H -0.022028 -5.476907 -3.009253 0
M  V30 30 H 2.977917 -3.431227 -2.627754 0
M  V30 31 H 3.119360 -1.568429 -0.969248 0
M  V30 32 H 0.264435 -0.370806 -1.105636 0
M  V30 33 H -1.741012 0.130113 -2.338326 0
M  V30 34 H -3.547064 1.314445 -1.205144 0
M  V30 35 H -2.577445 1.813077 3.133049 0
M  V30 36 H -1.848187 3.534613 4.281751 0
M  V30 37 H -0.032168 4.606341 5.662612 0
M  V30 38 H 2.320071 3.774073 5.488503 0
M  V30 39 H 2.849519 1.862603 3.924953 0
M  V30 40 H -0.560389 -2.763644 0.689006 0
M  V30 41 H -0.788779 -4.609933 -0.887849 0
M  V30 END ATOM
M  V30 BEGIN BOND
M  V30 1 1 1 2
M  V30 2 1 2 3
M  V30 3 2 3 4
M  V30 4 1 4 5
M  V30 5 2 5 6
M  V30 6 1 6 7
M  V30 7 2 7 8
M  V30 8 1 8 9
M  V30 9 2 9 10
M  V30 10 1 10 11
M  V30 11 1 11 12
M  V30 12 2 12 13
M  V30 13 1 13 14
M  V30 14 2 14 15
M  V30 15 1 15 16
M  V30 16 2 16 17
M  V30 17 1 17 18
M  V30 18 1 18 19
M  V30 19 2 19 20
M  V30 20 1 20 21
M  V30 21 2 21 22
M  V30 22 1 22 23
M  V30 23 2 23 24
M  V30 24 1 6 25
M  V30 25 2 25 26
M  V30 26 1 26 3
M  V30 27 1 11 7
M  V30 28 1 17 12
M  V30 29 1 24 19
M  V30 30 1 24 10
M  V30 31 1 1 27
M  V30 32 1 2 28
M  V30 33 1 2 29
M  V30 34 1 4 30
M  V30 35 1 5 31
M  V30 36 1 13 32
M  V30 37 1 14 33
M  V30 38 1 15 34
M  V30 39 1 18 35
M  V30 40 1 20 36
M  V30 41 1 21 37
M  V30 42 1 22 38
M  V30 43 1 23 39
M  V30 44 1 25 40
M  V30 45 1 26 41
M  V30 END BOND
M  V30 END CTAB
M  END
>  <Dataset>  (420) 
ChEMBL_Kinases

>  <Ligand_Instance>  (420) 
nan

>  <PDB_ID>  (420) 
nan

>  <Standardized_SMILES>  (420) 
OCc1ccc(-c2nnc3n2-c2cccnc2Nc2ccccc2-3)cc1

>  <Name>  (420) 
nan

>  <Pocket>  (420) 
nan

>  <ATP_Site>  (420) 
nan

>  <Peripheral>  (420) 
nan

>  <Num_H_Atoms_ProtBoundConf>  (420) 
nan

>  <Num_Resolved_Atoms>  (420) 
nan

>  <Num_Not_Resolved_Atoms>  (420) 
nan

$$$$
CHEMBL368427
     RDKit          3D

  0  0  0  0  0  0  0  0  0  0999 V3000
M  V30 BEGIN CTAB
M  V30 COUNTS 51 54 0 0 0
M  V30 BEGIN ATOM
M  V30 1 N 2.706554 -4.185465 2.914389 0
M  V30 2 C 2.085814 -3.241239 2.698427 0
M  V30 3 C 1.298879 -2.076906 2.447467 0
M  V30 4 C 1.655892 -1.268180 1.387293 0
M  V30 5 C 2.776712 -1.480666 0.476107 0
M  V30 6 C 2.456988 -2.306799 -0.752341 0
M  V30 7 C 3.775618 -2.651255 -1.388384 0
M  V30 8 N 4.816210 -1.690410 -1.194311 0
M  V30 9 C 5.187797 -1.432669 0.167580 0
M  V30 10 C 4.047246 -1.995184 1.036733 0
M  V30 11 C 0.790644 -0.167585 1.268132 0
M  V30 12 C -0.274386 0.088004 2.087007 0
M  V30 13 C -1.092648 1.293897 1.829311 0
M  V30 14 C -0.715780 2.459913 2.460630 0
M  V30 15 O 0.373611 2.498829 3.293404 0
M  V30 16 C -1.401613 3.653869 2.299198 0
M  V30 17 C -2.513436 3.684741 1.470292 0
M  V30 18 C -2.892797 2.514079 0.835712 0
M  V30 19 C -2.201293 1.325557 1.003037 0
M  V30 20 O -2.551899 0.130205 0.382777 0
M  V30 21 C -3.687039 0.167612 -0.461742 0
M  V30 22 C -4.000961 -1.162147 -1.094416 0
M  V30 23 C -5.238686 -1.095052 -2.007416 0
M  V30 24 C -3.890265 -1.386205 -2.540309 0
M  V30 25 N -0.543099 -0.768202 3.102412 0
M  V30 26 C 0.227318 -1.834412 3.284258 0
M  V30 27 N -0.072828 -2.721541 4.357619 0
M  V30 28 H 3.001109 -0.456575 0.042642 0
M  V30 29 H 1.847579 -1.693767 -1.447961 0
M  V30 30 H 1.876703 -3.213427 -0.516944 0
M  V30 31 H 3.588352 -2.676131 -2.489809 0
M  V30 32 H 4.103419 -3.700186 -1.157532 0
M  V30 33 H 4.778432 -0.883503 -1.820969 0
M  V30 34 H 5.344532 -0.365854 0.369755 0
M  V30 35 H 6.085609 -2.032051 0.416450 0
M  V30 36 H 4.224838 -1.826526 2.099562 0
M  V30 37 H 4.139104 -3.095400 0.789887 0
M  V30 38 H 0.989890 0.542536 0.449123 0
M  V30 39 H 0.259065 2.314229 4.292313 0
M  V30 40 H -1.098054 4.548203 2.794339 0
M  V30 41 H -3.106276 4.584441 1.291330 0
M  V30 42 H -3.757859 2.495580 0.178111 0
M  V30 43 H -4.549288 0.458232 0.173001 0
M  V30 44 H -3.456817 0.937178 -1.233998 0
M  V30 45 H -3.989942 -2.032353 -0.405034 0
M  V30 46 H -5.651882 -0.112632 -2.279305 0
M  V30 47 H -6.006074 -1.873534 -1.873772 0
M  V30 48 H -3.371996 -0.620045 -3.153294 0
M  V30 49 H -3.664342 -2.416699 -2.893669 0
M  V30 50 H -0.465234 -3.696030 4.343980 0
M  V30 51 H 0.004285 -2.665185 5.393590 0
M  V30 END ATOM
M  V30 BEGIN BOND
M  V30 1 3 1 2
M  V30 2 1 2 3
M  V30 3 2 3 4
M  V30 4 1 4 5
M  V30 5 1 5 6
M  V30 6 1 6 7
M  V30 7 1 7 8
M  V30 8 1 8 9
M  V30 9 1 9 10
M  V30 10 1 4 11
M  V30 11 2 11 12
M  V30 12 1 12 13
M  V30 13 2 13 14
M  V30 14 1 14 15
M  V30 15 1 14 16
M  V30 16 2 16 17
M  V30 17 1 17 18
M  V30 18 2 18 19
M  V30 19 1 19 20
M  V30 20 1 20 21
M  V30 21 1 21 22
M  V30 22 1 22 23
M  V30 23 1 23 24
M  V30 24 1 12 25
M  V30 25 2 25 26
M  V30 26 1 26 27
M  V30 27 1 26 3
M  V30 28 1 10 5
M  V30 29 1 19 13
M  V30 30 1 24 22
M  V30 31 1 5 28
M  V30 32 1 6 29
M  V30 33 1 6 30
M  V30 34 1 7 31
M  V30 35 1 7 32
M  V30 36 1 8 33
M  V30 37 1 9 34
M  V30 38 1 9 35
M  V30 39 1 10 36
M  V30 40 1 10 37
M  V30 41 1 11 38
M  V30 42 1 15 39
M  V30 43 1 16 40
M  V30 44 1 17 41
M  V30 45 1 18 42
M  V30 46 1 21 43
M  V30 47 1 21 44
M  V30 48 1 22 45
M  V30 49 1 23 46
M  V30 50 1 23 47
M  V30 51 1 24 48
M  V30 52 1 24 49
M  V30 53 1 27 50
M  V30 54 1 27 51
M  V30 END BOND
M  V30 END CTAB
M  END
>  <Dataset>  (421) 
ChEMBL_Kinases

>  <Ligand_Instance>  (421) 
nan

>  <PDB_ID>  (421) 
nan

>  <Standardized_SMILES>  (421) 
N#Cc1c(C2CCNCC2)cc(-c2c(O)cccc2OCC2CC2)nc1N

>  <Name>  (421) 
nan

>  <Pocket>  (421) 
nan

>  <ATP_Site>  (421) 
nan

>  <Peripheral>  (421) 
nan

>  <Num_H_Atoms_ProtBoundConf>  (421) 
nan

>  <Num_Resolved_Atoms>  (421) 
nan

>  <Num_Not_Resolved_Atoms>  (421) 
nan

$$$$
CHEMBL368248
     RDKit          3D

  0  0  0  0  0  0  0  0  0  0999 V3000
M  V30 BEGIN CTAB
M  V30 COUNTS 46 51 0 0 0
M  V30 BEGIN ATOM
M  V30 1 O -1.456758 -1.960141 5.517629 0
M  V30 2 C -0.552858 -1.551835 4.712497 0
M  V30 3 N 0.760015 -1.207671 5.110988 0
M  V30 4 C 1.408693 -0.816931 3.918459 0
M  V30 5 O 2.631984 -0.456985 4.029480 0
M  V30 6 C 0.473092 -0.924781 2.771070 0
M  V30 7 C 0.932872 -0.579746 1.440216 0
M  V30 8 C 1.011704 -1.075776 0.161958 0
M  V30 9 N 1.522788 -0.253913 -0.744682 0
M  V30 10 C 1.826696 0.887940 -0.088218 0
M  V30 11 C 2.376674 2.064703 -0.553374 0
M  V30 12 C 2.627532 3.161129 0.234746 0
M  V30 13 C 2.273534 2.987160 1.575561 0
M  V30 14 C 1.726373 1.811635 2.033442 0
M  V30 15 C 1.475502 0.705558 1.232822 0
M  V30 16 C 2.806662 2.420191 -1.936985 0
M  V30 17 N 3.056512 1.190664 -2.653587 0
M  V30 18 C 1.813779 0.533601 -3.003276 0
M  V30 19 C 1.652267 -0.680597 -2.125022 0
M  V30 20 C -0.677423 -1.358967 3.250806 0
M  V30 21 C -1.924015 -1.675991 2.588332 0
M  V30 22 C -3.082327 -0.988993 3.002153 0
M  V30 23 O -4.140565 -1.384439 2.331199 0
M  V30 24 C -3.804952 -2.312776 1.465930 0
M  V30 25 C -4.398641 -3.109988 0.502442 0
M  V30 26 C -3.663068 -4.028007 -0.246121 0
M  V30 27 C -2.302663 -4.173632 -0.047851 0
M  V30 28 C -1.702336 -3.394250 0.897772 0
M  V30 29 C -2.448533 -2.498411 1.617516 0
M  V30 30 H 1.098589 -1.260636 6.110316 0
M  V30 31 H 0.676090 -2.066588 -0.033213 0
M  V30 32 H 3.054232 4.074739 -0.128009 0
M  V30 33 H 2.446800 3.816865 2.242283 0
M  V30 34 H 1.483289 1.787467 3.076368 0
M  V30 35 H 3.712234 3.051577 -1.891133 0
M  V30 36 H 1.962206 2.951071 -2.428339 0
M  V30 37 H 3.629379 0.579802 -2.012450 0
M  V30 38 H 1.702682 0.307840 -4.072412 0
M  V30 39 H 0.985509 1.223104 -2.743958 0
M  V30 40 H 0.721830 -1.209131 -2.469041 0
M  V30 41 H 2.525170 -1.358446 -2.269325 0
M  V30 42 H -3.280833 -0.224888 3.735891 0
M  V30 43 H -5.472245 -2.974565 0.368092 0
M  V30 44 H -4.158395 -4.637473 -0.994621 0
M  V30 45 H -1.758317 -4.890615 -0.640013 0
M  V30 46 H -0.662465 -3.545342 1.041562 0
M  V30 END ATOM
M  V30 BEGIN BOND
M  V30 1 2 1 2
M  V30 2 1 2 3
M  V30 3 1 3 4
M  V30 4 2 4 5
M  V30 5 1 4 6
M  V30 6 1 6 7
M  V30 7 2 7 8
M  V30 8 1 8 9
M  V30 9 1 9 10
M  V30 10 2 10 11
M  V30 11 1 11 12
M  V30 12 2 12 13
M  V30 13 1 13 14
M  V30 14 2 14 15
M  V30 15 1 11 16
M  V30 16 1 16 17
M  V30 17 1 17 18
M  V30 18 1 18 19
M  V30 19 2 6 20
M  V30 20 1 20 21
M  V30 21 2 21 22
M  V30 22 1 22 23
M  V30 23 1 23 24
M  V30 24 2 24 25
M  V30 25 1 25 26
M  V30 26 2 26 27
M  V30 27 1 27 28
M  V30 28 2 28 29
M  V30 29 1 20 2
M  V30 30 1 29 21
M  V30 31 1 15 7
M  V30 32 1 29 24
M  V30 33 1 19 9
M  V30 34 1 15 10
M  V30 35 1 3 30
M  V30 36 1 8 31
M  V30 37 1 12 32
M  V30 38 1 13 33
M  V30 39 1 14 34
M  V30 40 1 16 35
M  V30 41 1 16 36
M  V30 42 1 17 37
M  V30 43 1 18 38
M  V30 44 1 18 39
M  V30 45 1 19 40
M  V30 46 1 19 41
M  V30 47 1 22 42
M  V30 48 1 25 43
M  V30 49 1 26 44
M  V30 50 1 27 45
M  V30 51 1 28 46
M  V30 END BOND
M  V30 END CTAB
M  END
>  <Dataset>  (422) 
ChEMBL_Kinases

>  <Ligand_Instance>  (422) 
nan

>  <PDB_ID>  (422) 
nan

>  <Standardized_SMILES>  (422) 
O=C1NC(=O)C(c2cn3c4c(cccc24)CNCC3)=C1c1coc2ccccc12

>  <Name>  (422) 
nan

>  <Pocket>  (422) 
nan

>  <ATP_Site>  (422) 
nan

>  <Peripheral>  (422) 
nan

>  <Num_H_Atoms_ProtBoundConf>  (422) 
nan

>  <Num_Resolved_Atoms>  (422) 
nan

>  <Num_Not_Resolved_Atoms>  (422) 
nan

$$$$
CHEMBL368246
     RDKit          3D

  0  0  0  0  0  0  0  0  0  0999 V3000
M  V30 BEGIN CTAB
M  V30 COUNTS 57 62 0 0 0
M  V30 BEGIN ATOM
M  V30 1 C 4.926073 1.002935 2.934370 0
M  V30 2 C 3.478098 1.213917 2.646130 0
M  V30 3 C 2.673465 0.088328 3.238023 0
M  V30 4 C 3.141859 1.462250 1.227029 0
M  V30 5 O 2.553916 2.577147 0.992296 0
M  V30 6 N 3.391939 0.608262 0.085193 0
M  V30 7 C 4.053928 -0.685226 0.010141 0
M  V30 8 C 3.165576 -1.869931 0.051449 0
M  V30 9 N 1.810007 -1.669118 -0.364193 0
M  V30 10 C 0.985935 -2.743316 -0.176719 0
M  V30 11 C -0.278925 -2.409521 -0.615000 0
M  V30 12 C -1.448619 -3.310471 -0.599671 0
M  V30 13 C -2.660570 -3.072877 -0.108925 0
M  V30 14 C -3.185108 -1.901099 0.540448 0
M  V30 15 C -2.375076 -1.295857 1.495175 0
M  V30 16 N -3.039183 -0.230973 1.983743 0
M  V30 17 C -4.241330 -0.124332 1.384756 0
M  V30 18 C -5.295230 0.754853 1.498472 0
M  V30 19 C -6.382381 0.521019 0.685930 0
M  V30 20 C -6.456779 -0.539093 -0.221804 0
M  V30 21 C -5.351887 -1.361606 -0.259837 0
M  V30 22 N -4.288819 -1.149259 0.522836 0
M  V30 23 C -3.499119 -4.246338 -0.301824 0
M  V30 24 O -4.679661 -4.595710 -0.051575 0
M  V30 25 N -2.735532 -5.235112 -0.946420 0
M  V30 26 C -1.439748 -4.685281 -1.150759 0
M  V30 27 O -0.390738 -5.182953 -1.690253 0
M  V30 28 C -0.221683 -1.111989 -1.078042 0
M  V30 29 C -1.140501 -0.262743 -1.632115 0
M  V30 30 C -0.773208 1.028816 -2.024567 0
M  V30 31 C 0.520427 1.477971 -1.863800 0
M  V30 32 C 1.445843 0.618407 -1.304765 0
M  V30 33 C 1.070514 -0.661257 -0.919535 0
M  V30 34 C 2.833462 1.197543 -1.154943 0
M  V30 35 H 5.099224 1.320501 4.017752 0
M  V30 36 H 5.235512 -0.075232 2.960512 0
M  V30 37 H 5.606668 1.642559 2.360553 0
M  V30 38 H 3.186996 2.140660 3.233157 0
M  V30 39 H 3.269818 -0.444549 4.004426 0
M  V30 40 H 2.303300 -0.625517 2.507560 0
M  V30 41 H 1.793879 0.544907 3.780675 0
M  V30 42 H 4.810138 -0.792746 0.808793 0
M  V30 43 H 4.682937 -0.648743 -0.931055 0
M  V30 44 H 3.143587 -2.322496 1.089430 0
M  V30 45 H 3.607032 -2.682679 -0.569758 0
M  V30 46 H 1.196323 -3.732282 0.237663 0
M  V30 47 H -1.366850 -1.534728 1.872400 0
M  V30 48 H -5.225108 1.562220 2.198592 0
M  V30 49 H -7.237438 1.187709 0.743292 0
M  V30 50 H -7.337496 -0.664831 -0.828710 0
M  V30 51 H -5.417639 -2.170494 -0.969817 0
M  V30 52 H -2.875075 -6.217191 -1.290224 0
M  V30 53 H -2.162138 -0.581022 -1.779460 0
M  V30 54 H -1.520108 1.681127 -2.460207 0
M  V30 55 H 0.858593 2.463761 -2.148703 0
M  V30 56 H 3.493303 0.932230 -1.972474 0
M  V30 57 H 2.749615 2.295696 -1.004554 0
M  V30 END ATOM
M  V30 BEGIN BOND
M  V30 1 1 1 2
M  V30 2 1 2 3
M  V30 3 1 2 4
M  V30 4 2 4 5
M  V30 5 1 4 6
M  V30 6 1 6 7
M  V30 7 1 7 8
M  V30 8 1 8 9
M  V30 9 1 9 10
M  V30 10 2 10 11
M  V30 11 1 11 12
M  V30 12 2 12 13
M  V30 13 1 13 14
M  V30 14 2 14 15
M  V30 15 1 15 16
M  V30 16 2 16 17
M  V30 17 1 17 18
M  V30 18 2 18 19
M  V30 19 1 19 20
M  V30 20 2 20 21
M  V30 21 1 21 22
M  V30 22 1 13 23
M  V30 23 2 23 24
M  V30 24 1 23 25
M  V30 25 1 25 26
M  V30 26 2 26 27
M  V30 27 1 11 28
M  V30 28 2 28 29
M  V30 29 1 29 30
M  V30 30 2 30 31
M  V30 31 1 31 32
M  V30 32 2 32 33
M  V30 33 1 32 34
M  V30 34 1 34 6
M  V30 35 1 33 9
M  V30 36 1 26 12
M  V30 37 1 33 28
M  V30 38 1 22 14
M  V30 39 1 22 17
M  V30 40 1 1 35
M  V30 41 1 1 36
M  V30 42 1 1 37
M  V30 43 1 2 38
M  V30 44 1 3 39
M  V30 45 1 3 40
M  V30 46 1 3 41
M  V30 47 1 7 42
M  V30 48 1 7 43
M  V30 49 1 8 44
M  V30 50 1 8 45
M  V30 51 1 10 46
M  V30 52 1 15 47
M  V30 53 1 18 48
M  V30 54 1 19 49
M  V30 55 1 20 50
M  V30 56 1 21 51
M  V30 57 1 25 52
M  V30 58 1 29 53
M  V30 59 1 30 54
M  V30 60 1 31 55
M  V30 61 1 34 56
M  V30 62 1 34 57
M  V30 END BOND
M  V30 END CTAB
M  END
>  <Dataset>  (423) 
ChEMBL_Kinases

>  <Ligand_Instance>  (423) 
nan

>  <PDB_ID>  (423) 
nan

>  <Standardized_SMILES>  (423) 
CC(C)C(=O)N1CCn2cc(C3=C(c4cnc5ccccn45)C(=O)NC3=O)c3cccc(c32)C1

>  <Name>  (423) 
nan

>  <Pocket>  (423) 
nan

>  <ATP_Site>  (423) 
nan

>  <Peripheral>  (423) 
nan

>  <Num_H_Atoms_ProtBoundConf>  (423) 
nan

>  <Num_Resolved_Atoms>  (423) 
nan

>  <Num_Not_Resolved_Atoms>  (423) 
nan

$$$$
CHEMBL3682435
     RDKit          3D

  0  0  0  0  0  0  0  0  0  0999 V3000
M  V30 BEGIN CTAB
M  V30 COUNTS 53 56 0 0 0
M  V30 BEGIN ATOM
M  V30 1 N 0.934591 -3.826282 1.131719 0
M  V30 2 C 0.272015 -3.048224 0.613326 0
M  V30 3 C -0.587906 -2.074087 -0.034318 0
M  V30 4 C 0.034798 -0.843419 -0.274795 0
M  V30 5 C -0.653082 0.186239 -0.885031 0
M  V30 6 C -0.102027 1.501605 -1.182291 0
M  V30 7 C -0.557456 2.178635 -2.275512 0
M  V30 8 C -0.012920 3.398246 -2.509652 0
M  V30 9 N 0.918820 3.945051 -1.740859 0
M  V30 10 C 1.422052 3.339890 -0.642117 0
M  V30 11 N 2.408009 3.967532 0.156948 0
M  V30 12 C 3.158343 3.557047 1.283646 0
M  V30 13 C 3.754192 4.430566 2.200956 0
M  V30 14 N 4.378784 3.676259 3.102849 0
M  V30 15 N 4.264565 2.397069 2.886936 0
M  V30 16 C 4.828541 1.347751 3.688378 0
M  V30 17 C 3.901916 0.891245 4.799019 0
M  V30 18 O 3.589965 1.928962 5.674563 0
M  V30 19 C 3.518821 2.322958 1.774724 0
M  V30 20 C 0.858881 2.102575 -0.417510 0
M  V30 21 C -1.965982 -0.051225 -1.241978 0
M  V30 22 C -2.574592 -1.266000 -1.002452 0
M  V30 23 C -1.922122 -2.317929 -0.396250 0
M  V30 24 O -2.292621 -3.584470 -0.057327 0
M  V30 25 C -3.569096 -4.120321 -0.290675 0
M  V30 26 C -4.223630 -4.579734 0.991247 0
M  V30 27 C -4.352278 -6.098737 1.006525 0
M  V30 28 O -3.198555 -6.718312 0.580224 0
M  V30 29 C -2.920796 -6.512774 -0.760194 0
M  V30 30 C -3.522150 -5.257527 -1.302085 0
M  V30 31 H 1.043551 -0.635011 -0.009914 0
M  V30 32 H -1.313232 1.754306 -2.914323 0
M  V30 33 H -0.340600 3.984814 -3.372431 0
M  V30 34 H 2.629149 4.958718 -0.166319 0
M  V30 35 H 3.757050 5.507405 2.244168 0
M  V30 36 H 5.006182 0.445460 3.064481 0
M  V30 37 H 5.745877 1.720414 4.150959 0
M  V30 38 H 4.421709 0.069792 5.328675 0
M  V30 39 H 2.951805 0.462033 4.428146 0
M  V30 40 H 2.955893 2.553932 5.246597 0
M  V30 41 H 3.278397 1.361896 1.366893 0
M  V30 42 H 1.173880 1.526671 0.438375 0
M  V30 43 H -2.592318 0.700547 -1.729069 0
M  V30 44 H -3.595082 -1.499842 -1.262194 0
M  V30 45 H -4.188759 -3.338427 -0.765946 0
M  V30 46 H -5.266273 -4.202691 1.003613 0
M  V30 47 H -3.691777 -4.218116 1.880452 0
M  V30 48 H -5.194743 -6.423281 0.357700 0
M  V30 49 H -4.564268 -6.422395 2.034207 0
M  V30 50 H -3.254080 -7.373768 -1.375382 0
M  V30 51 H -1.797641 -6.519886 -0.858883 0
M  V30 52 H -4.510399 -5.396135 -1.773909 0
M  V30 53 H -2.857335 -4.903009 -2.126310 0
M  V30 END ATOM
M  V30 BEGIN BOND
M  V30 1 3 1 2
M  V30 2 1 2 3
M  V30 3 2 3 4
M  V30 4 1 4 5
M  V30 5 1 5 6
M  V30 6 2 6 7
M  V30 7 1 7 8
M  V30 8 2 8 9
M  V30 9 1 9 10
M  V30 10 1 10 11
M  V30 11 1 11 12
M  V30 12 1 12 13
M  V30 13 2 13 14
M  V30 14 1 14 15
M  V30 15 1 15 16
M  V30 16 1 16 17
M  V30 17 1 17 18
M  V30 18 1 15 19
M  V30 19 2 10 20
M  V30 20 2 5 21
M  V30 21 1 21 22
M  V30 22 2 22 23
M  V30 23 1 23 24
M  V30 24 1 24 25
M  V30 25 1 25 26
M  V30 26 1 26 27
M  V30 27 1 27 28
M  V30 28 1 28 29
M  V30 29 1 29 30
M  V30 30 1 23 3
M  V30 31 1 30 25
M  V30 32 1 20 6
M  V30 33 2 19 12
M  V30 34 1 4 31
M  V30 35 1 7 32
M  V30 36 1 8 33
M  V30 37 1 11 34
M  V30 38 1 13 35
M  V30 39 1 16 36
M  V30 40 1 16 37
M  V30 41 1 17 38
M  V30 42 1 17 39
M  V30 43 1 18 40
M  V30 44 1 19 41
M  V30 45 1 20 42
M  V30 46 1 21 43
M  V30 47 1 22 44
M  V30 48 1 25 45
M  V30 49 1 26 46
M  V30 50 1 26 47
M  V30 51 1 27 48
M  V30 52 1 27 49
M  V30 53 1 29 50
M  V30 54 1 29 51
M  V30 55 1 30 52
M  V30 56 1 30 53
M  V30 END BOND
M  V30 END CTAB
M  END
>  <Dataset>  (424) 
ChEMBL_Kinases

>  <Ligand_Instance>  (424) 
nan

>  <PDB_ID>  (424) 
nan

>  <Standardized_SMILES>  (424) 
N#Cc1cc(-c2ccnc(Nc3cnn(CCO)c3)c2)ccc1OC1CCOCC1

>  <Name>  (424) 
nan

>  <Pocket>  (424) 
nan

>  <ATP_Site>  (424) 
nan

>  <Peripheral>  (424) 
nan

>  <Num_H_Atoms_ProtBoundConf>  (424) 
nan

>  <Num_Resolved_Atoms>  (424) 
nan

>  <Num_Not_Resolved_Atoms>  (424) 
nan

$$$$
CHEMBL3682434
     RDKit          3D

  0  0  0  0  0  0  0  0  0  0999 V3000
M  V30 BEGIN CTAB
M  V30 COUNTS 66 70 0 0 0
M  V30 BEGIN ATOM
M  V30 1 C 2.542817 0.210850 4.316910 0
M  V30 2 N 2.628490 0.944282 3.073851 0
M  V30 3 C 2.218234 0.168696 1.939061 0
M  V30 4 C 2.919557 0.507714 0.675430 0
M  V30 5 C 3.197751 1.982909 0.502283 0
M  V30 6 C 2.014653 2.725902 0.016387 0
M  V30 7 C 1.952389 3.053669 -1.337385 0
M  V30 8 C 0.866118 3.743864 -1.840996 0
M  V30 9 N -0.145517 4.109061 -1.032765 0
M  V30 10 C -0.132712 3.814212 0.293803 0
M  V30 11 N -1.132271 4.126258 1.257096 0
M  V30 12 C -2.040938 3.120986 1.689718 0
M  V30 13 C -1.953462 1.833473 1.230256 0
M  V30 14 C -2.765767 0.757112 1.575257 0
M  V30 15 C -2.537224 -0.562903 0.999942 0
M  V30 16 C -2.041586 -0.722618 -0.276305 0
M  V30 17 C -1.822635 -1.956769 -0.798505 0
M  V30 18 C -2.077406 -3.121563 -0.097474 0
M  V30 19 O -1.941933 -4.452792 -0.400106 0
M  V30 20 C -1.473151 -4.883676 -1.636505 0
M  V30 21 C -2.484765 -5.809466 -2.329783 0
M  V30 22 C -2.020328 -5.946317 -3.762747 0
M  V30 23 O -0.651097 -5.741812 -3.911876 0
M  V30 24 C 0.088466 -6.287925 -2.889705 0
M  V30 25 C -0.188173 -5.683032 -1.530901 0
M  V30 26 C -2.580695 -2.930645 1.197400 0
M  V30 27 C -2.911778 -4.027604 2.093165 0
M  V30 28 N -3.182068 -4.908976 2.791978 0
M  V30 29 C -2.809234 -1.664574 1.742749 0
M  V30 30 C -3.758786 1.087838 2.492160 0
M  V30 31 C -3.858320 2.378665 2.962324 0
M  V30 32 N -3.022947 3.373850 2.573820 0
M  V30 33 C 0.948669 3.125532 0.801727 0
M  V30 34 C 3.743698 2.577351 1.748006 0
M  V30 35 C 3.939025 1.496985 2.810115 0
M  V30 36 H 3.478970 0.231652 4.883634 0
M  V30 37 H 2.200315 -0.837206 4.070271 0
M  V30 38 H 1.754347 0.628529 4.984370 0
M  V30 39 H 2.444953 -0.905909 2.170703 0
M  V30 40 H 1.102520 0.212591 1.889799 0
M  V30 41 H 2.335366 0.106416 -0.176663 0
M  V30 42 H 3.908083 -0.007482 0.653530 0
M  V30 43 H 3.966128 2.040352 -0.300876 0
M  V30 44 H 2.733349 2.782387 -2.004762 0
M  V30 45 H 0.748714 4.033618 -2.878151 0
M  V30 46 H -1.230097 5.092376 1.672706 0
M  V30 47 H -1.160000 1.643217 0.519991 0
M  V30 48 H -1.815486 0.127203 -0.892592 0
M  V30 49 H -1.437787 -2.162757 -1.787295 0
M  V30 50 H -1.255487 -4.077661 -2.365204 0
M  V30 51 H -2.334849 -6.789264 -1.835382 0
M  V30 52 H -3.519655 -5.419140 -2.249895 0
M  V30 53 H -2.536260 -5.161071 -4.348862 0
M  V30 54 H -2.339627 -6.913950 -4.208859 0
M  V30 55 H 1.164243 -6.056626 -3.133476 0
M  V30 56 H 0.054133 -7.398361 -2.861635 0
M  V30 57 H -0.380243 -6.513118 -0.822576 0
M  V30 58 H 0.655177 -5.072037 -1.153486 0
M  V30 59 H -3.193359 -1.528564 2.731324 0
M  V30 60 H -4.419225 0.276186 2.791035 0
M  V30 61 H -4.640028 2.610307 3.674385 0
M  V30 62 H 1.022809 2.859565 1.851404 0
M  V30 63 H 3.074209 3.333804 2.240744 0
M  V30 64 H 4.737086 3.051341 1.618553 0
M  V30 65 H 4.220508 2.047878 3.747615 0
M  V30 66 H 4.690898 0.752882 2.498503 0
M  V30 END ATOM
M  V30 BEGIN BOND
M  V30 1 1 1 2
M  V30 2 1 2 3
M  V30 3 1 3 4
M  V30 4 1 4 5
M  V30 5 1 5 6
M  V30 6 2 6 7
M  V30 7 1 7 8
M  V30 8 2 8 9
M  V30 9 1 9 10
M  V30 10 1 10 11
M  V30 11 1 11 12
M  V30 12 2 12 13
M  V30 13 1 13 14
M  V30 14 1 14 15
M  V30 15 2 15 16
M  V30 16 1 16 17
M  V30 17 2 17 18
M  V30 18 1 18 19
M  V30 19 1 19 20
M  V30 20 1 20 21
M  V30 21 1 21 22
M  V30 22 1 22 23
M  V30 23 1 23 24
M  V30 24 1 24 25
M  V30 25 1 18 26
M  V30 26 1 26 27
M  V30 27 3 27 28
M  V30 28 2 26 29
M  V30 29 2 14 30
M  V30 30 1 30 31
M  V30 31 2 31 32
M  V30 32 2 10 33
M  V30 33 1 5 34
M  V30 34 1 34 35
M  V30 35 1 35 2
M  V30 36 1 33 6
M  V30 37 1 32 12
M  V30 38 1 29 15
M  V30 39 1 25 20
M  V30 40 1 1 36
M  V30 41 1 1 37
M  V30 42 1 1 38
M  V30 43 1 3 39
M  V30 44 1 3 40
M  V30 45 1 4 41
M  V30 46 1 4 42
M  V30 47 1 5 43
M  V30 48 1 7 44
M  V30 49 1 8 45
M  V30 50 1 11 46
M  V30 51 1 13 47
M  V30 52 1 16 48
M  V30 53 1 17 49
M  V30 54 1 20 50
M  V30 55 1 21 51
M  V30 56 1 21 52
M  V30 57 1 22 53
M  V30 58 1 22 54
M  V30 59 1 24 55
M  V30 60 1 24 56
M  V30 61 1 25 57
M  V30 62 1 25 58
M  V30 63 1 29 59
M  V30 64 1 30 60
M  V30 65 1 31 61
M  V30 66 1 33 62
M  V30 67 1 34 63
M  V30 68 1 34 64
M  V30 69 1 35 65
M  V30 70 1 35 66
M  V30 END BOND
M  V30 END CTAB
M  END
>  <Dataset>  (425) 
ChEMBL_Kinases

>  <Ligand_Instance>  (425) 
nan

>  <PDB_ID>  (425) 
nan

>  <Standardized_SMILES>  (425) 
CN1CCC(c2ccnc(Nc3cc(-c4ccc(OC5CCOCC5)c(C#N)c4)ccn3)c2)CC1

>  <Name>  (425) 
nan

>  <Pocket>  (425) 
nan

>  <ATP_Site>  (425) 
nan

>  <Peripheral>  (425) 
nan

>  <Num_H_Atoms_ProtBoundConf>  (425) 
nan

>  <Num_Resolved_Atoms>  (425) 
nan

>  <Num_Not_Resolved_Atoms>  (425) 
nan

$$$$
CHEMBL3682433
     RDKit          3D

  0  0  0  0  0  0  0  0  0  0999 V3000
M  V30 BEGIN CTAB
M  V30 COUNTS 53 56 0 0 0
M  V30 BEGIN ATOM
M  V30 1 N 0.410583 -4.345874 1.466446 0
M  V30 2 C -0.171492 -3.527649 0.882486 0
M  V30 3 C -0.909971 -2.505437 0.156832 0
M  V30 4 C -0.224611 -1.372024 -0.237121 0
M  V30 5 C -0.864092 -0.354760 -0.933143 0
M  V30 6 C -0.207088 0.861488 -1.377062 0
M  V30 7 C -0.647163 1.464504 -2.524136 0
M  V30 8 C 0.014220 2.613157 -2.893820 0
M  V30 9 N 1.028432 3.131468 -2.194076 0
M  V30 10 C 1.501879 2.582348 -1.061503 0
M  V30 11 N 2.581074 3.167811 -0.352040 0
M  V30 12 C 3.188917 2.718642 0.846368 0
M  V30 13 C 4.238316 3.424858 1.392114 0
M  V30 14 C 4.877224 3.054367 2.548148 0
M  V30 15 C 6.008413 3.885722 3.063461 0
M  V30 16 N 5.498200 4.915900 3.965629 0
M  V30 17 C 4.477639 1.930922 3.219811 0
M  V30 18 C 3.438249 1.233402 2.677233 0
M  V30 19 N 2.863151 1.644149 1.557100 0
M  V30 20 C 0.840918 1.434383 -0.692045 0
M  V30 21 C -2.208129 -0.559286 -1.195128 0
M  V30 22 C -2.897183 -1.709045 -0.793755 0
M  V30 23 C -2.250488 -2.689825 -0.114499 0
M  V30 24 O -2.826664 -3.848369 0.322050 0
M  V30 25 C -4.146492 -4.264654 0.176578 0
M  V30 26 C -4.169129 -5.540983 -0.631324 0
M  V30 27 C -4.088782 -6.790571 0.171598 0
M  V30 28 O -4.703227 -6.756905 1.400482 0
M  V30 29 C -4.140044 -5.713865 2.133173 0
M  V30 30 C -4.740938 -4.425714 1.559412 0
M  V30 31 H 0.814416 -1.238336 -0.021697 0
M  V30 32 H -1.448690 1.112972 -3.136342 0
M  V30 33 H -0.252547 3.182024 -3.796401 0
M  V30 34 H 2.971575 4.045528 -0.777998 0
M  V30 35 H 4.600832 4.334988 0.895256 0
M  V30 36 H 6.653464 3.238371 3.695046 0
M  V30 37 H 6.575763 4.342444 2.238015 0
M  V30 38 H 4.944465 5.604359 3.385968 0
M  V30 39 H 4.870379 4.433321 4.664549 0
M  V30 40 H 4.944627 1.592300 4.134656 0
M  V30 41 H 3.026913 0.334493 3.103420 0
M  V30 42 H 1.126684 0.905461 0.192831 0
M  V30 43 H -2.756707 0.197076 -1.732704 0
M  V30 44 H -3.933898 -1.804569 -1.027622 0
M  V30 45 H -4.785877 -3.535676 -0.366692 0
M  V30 46 H -3.299469 -5.510077 -1.322979 0
M  V30 47 H -5.068081 -5.588349 -1.301790 0
M  V30 48 H -3.047158 -7.150221 0.299003 0
M  V30 49 H -4.607601 -7.608026 -0.408443 0
M  V30 50 H -3.048559 -5.690231 1.864703 0
M  V30 51 H -4.288852 -5.802798 3.213534 0
M  V30 52 H -4.334322 -3.590345 2.184233 0
M  V30 53 H -5.843013 -4.476850 1.549789 0
M  V30 END ATOM
M  V30 BEGIN BOND
M  V30 1 3 1 2
M  V30 2 1 2 3
M  V30 3 2 3 4
M  V30 4 1 4 5
M  V30 5 1 5 6
M  V30 6 2 6 7
M  V30 7 1 7 8
M  V30 8 2 8 9
M  V30 9 1 9 10
M  V30 10 1 10 11
M  V30 11 1 11 12
M  V30 12 2 12 13
M  V30 13 1 13 14
M  V30 14 1 14 15
M  V30 15 1 15 16
M  V30 16 2 14 17
M  V30 17 1 17 18
M  V30 18 2 18 19
M  V30 19 2 10 20
M  V30 20 2 5 21
M  V30 21 1 21 22
M  V30 22 2 22 23
M  V30 23 1 23 24
M  V30 24 1 24 25
M  V30 25 1 25 26
M  V30 26 1 26 27
M  V30 27 1 27 28
M  V30 28 1 28 29
M  V30 29 1 29 30
M  V30 30 1 23 3
M  V30 31 1 30 25
M  V30 32 1 20 6
M  V30 33 1 19 12
M  V30 34 1 4 31
M  V30 35 1 7 32
M  V30 36 1 8 33
M  V30 37 1 11 34
M  V30 38 1 13 35
M  V30 39 1 15 36
M  V30 40 1 15 37
M  V30 41 1 16 38
M  V30 42 1 16 39
M  V30 43 1 17 40
M  V30 44 1 18 41
M  V30 45 1 20 42
M  V30 46 1 21 43
M  V30 47 1 22 44
M  V30 48 1 25 45
M  V30 49 1 26 46
M  V30 50 1 26 47
M  V30 51 1 27 48
M  V30 52 1 27 49
M  V30 53 1 29 50
M  V30 54 1 29 51
M  V30 55 1 30 52
M  V30 56 1 30 53
M  V30 END BOND
M  V30 END CTAB
M  END
>  <Dataset>  (426) 
ChEMBL_Kinases

>  <Ligand_Instance>  (426) 
nan

>  <PDB_ID>  (426) 
nan

>  <Standardized_SMILES>  (426) 
N#Cc1cc(-c2ccnc(Nc3cc(CN)ccn3)c2)ccc1OC1CCOCC1

>  <Name>  (426) 
nan

>  <Pocket>  (426) 
nan

>  <ATP_Site>  (426) 
nan

>  <Peripheral>  (426) 
nan

>  <Num_H_Atoms_ProtBoundConf>  (426) 
nan

>  <Num_Resolved_Atoms>  (426) 
nan

>  <Num_Not_Resolved_Atoms>  (426) 
nan

$$$$
CHEMBL3682432
     RDKit          3D

  0  0  0  0  0  0  0  0  0  0999 V3000
M  V30 BEGIN CTAB
M  V30 COUNTS 64 68 0 0 0
M  V30 BEGIN ATOM
M  V30 1 C 5.064571 1.562824 5.402038 0
M  V30 2 O 3.667796 1.628075 5.236642 0
M  V30 3 C 2.958431 1.109491 4.168613 0
M  V30 4 N 3.728404 0.510546 3.251965 0
M  V30 5 C 3.267980 -0.066153 2.127077 0
M  V30 6 N 4.136287 -0.686173 1.192322 0
M  V30 7 C 3.831592 -1.330433 -0.031306 0
M  V30 8 N 4.853788 -1.842848 -0.731529 0
M  V30 9 C 4.729822 -2.469926 -1.892794 0
M  V30 10 C 3.462625 -2.603473 -2.414722 0
M  V30 11 C 2.371880 -2.094921 -1.736562 0
M  V30 12 C 1.046961 -2.254625 -2.318215 0
M  V30 13 C 0.801920 -2.885734 -3.516054 0
M  V30 14 C -0.510798 -2.970100 -3.961332 0
M  V30 15 C -1.607405 -2.444789 -3.253702 0
M  V30 16 O -2.737868 -2.680775 -3.934130 0
M  V30 17 C -4.072176 -2.457946 -3.807780 0
M  V30 18 C -4.897385 -3.753465 -3.987777 0
M  V30 19 C -5.345738 -3.808142 -5.412802 0
M  V30 20 O -6.420588 -2.927512 -5.605777 0
M  V30 21 C -6.113471 -1.677133 -5.062071 0
M  V30 22 C -4.619323 -1.518394 -4.899944 0
M  V30 23 C -1.266594 -1.837483 -2.077058 0
M  V30 24 C -2.363755 -1.294464 -1.341389 0
M  V30 25 N -3.239187 -0.849163 -0.731131 0
M  V30 26 C 0.011470 -1.721396 -1.582212 0
M  V30 27 N 2.634289 -1.492313 -0.588615 0
M  V30 28 C 1.898233 0.022027 2.009170 0
M  V30 29 C 1.063344 0.627493 2.924916 0
M  V30 30 C 1.589180 1.201031 4.057598 0
M  V30 31 C 0.794279 1.845371 5.065467 0
M  V30 32 C -0.516183 1.933545 4.887068 0
M  V30 33 C -1.567804 2.535941 5.746181 0
M  V30 34 N -0.930068 3.301905 6.819428 0
M  V30 35 C 0.186437 2.584297 7.341938 0
M  V30 36 C 1.312687 2.429176 6.328499 0
M  V30 37 H 5.397800 0.533948 5.087616 0
M  V30 38 H 5.350474 1.627303 6.470637 0
M  V30 39 H 5.620595 2.264704 4.746643 0
M  V30 40 H 5.148615 -0.640955 1.483637 0
M  V30 41 H 5.647372 -2.842255 -2.362840 0
M  V30 42 H 3.462846 -3.121185 -3.351198 0
M  V30 43 H 1.630184 -3.295938 -4.074823 0
M  V30 44 H -0.563685 -3.498734 -4.929755 0
M  V30 45 H -4.383113 -1.971537 -2.864582 0
M  V30 46 H -5.747127 -3.694590 -3.305790 0
M  V30 47 H -4.267651 -4.632474 -3.742010 0
M  V30 48 H -5.778356 -4.825346 -5.618857 0
M  V30 49 H -4.521909 -3.665119 -6.110973 0
M  V30 50 H -6.505544 -0.842752 -5.646918 0
M  V30 51 H -6.553400 -1.643595 -4.047538 0
M  V30 52 H -4.423625 -0.487576 -4.529288 0
M  V30 53 H -4.150602 -1.680925 -5.872260 0
M  V30 54 H 0.121859 -1.215270 -0.640225 0
M  V30 55 H 1.446404 -0.417332 1.133169 0
M  V30 56 H 0.025834 0.628584 2.718886 0
M  V30 57 H -1.077141 1.573307 4.068233 0
M  V30 58 H -2.274486 1.808339 6.150606 0
M  V30 59 H -2.181881 3.314008 5.202143 0
M  V30 60 H -1.655916 3.509705 7.534991 0
M  V30 61 H -0.154582 1.600080 7.743896 0
M  V30 62 H 0.579393 3.180334 8.197673 0
M  V30 63 H 1.750378 3.430653 6.178140 0
M  V30 64 H 2.064096 1.794879 6.842483 0
M  V30 END ATOM
M  V30 BEGIN BOND
M  V30 1 1 1 2
M  V30 2 1 2 3
M  V30 3 2 3 4
M  V30 4 1 4 5
M  V30 5 1 5 6
M  V30 6 1 6 7
M  V30 7 2 7 8
M  V30 8 1 8 9
M  V30 9 2 9 10
M  V30 10 1 10 11
M  V30 11 1 11 12
M  V30 12 2 12 13
M  V30 13 1 13 14
M  V30 14 2 14 15
M  V30 15 1 15 16
M  V30 16 1 16 17
M  V30 17 1 17 18
M  V30 18 1 18 19
M  V30 19 1 19 20
M  V30 20 1 20 21
M  V30 21 1 21 22
M  V30 22 1 15 23
M  V30 23 1 23 24
M  V30 24 3 24 25
M  V30 25 2 23 26
M  V30 26 2 11 27
M  V30 27 2 5 28
M  V30 28 1 28 29
M  V30 29 2 29 30
M  V30 30 1 30 31
M  V30 31 2 31 32
M  V30 32 1 32 33
M  V30 33 1 33 34
M  V30 34 1 34 35
M  V30 35 1 35 36
M  V30 36 1 30 3
M  V30 37 1 36 31
M  V30 38 1 27 7
M  V30 39 1 26 12
M  V30 40 1 22 17
M  V30 41 1 1 37
M  V30 42 1 1 38
M  V30 43 1 1 39
M  V30 44 1 6 40
M  V30 45 1 9 41
M  V30 46 1 10 42
M  V30 47 1 13 43
M  V30 48 1 14 44
M  V30 49 1 17 45
M  V30 50 1 18 46
M  V30 51 1 18 47
M  V30 52 1 19 48
M  V30 53 1 19 49
M  V30 54 1 21 50
M  V30 55 1 21 51
M  V30 56 1 22 52
M  V30 57 1 22 53
M  V30 58 1 26 54
M  V30 59 1 28 55
M  V30 60 1 29 56
M  V30 61 1 32 57
M  V30 62 1 33 58
M  V30 63 1 33 59
M  V30 64 1 34 60
M  V30 65 1 35 61
M  V30 66 1 35 62
M  V30 67 1 36 63
M  V30 68 1 36 64
M  V30 END BOND
M  V30 END CTAB
M  END
>  <Dataset>  (427) 
ChEMBL_Kinases

>  <Ligand_Instance>  (427) 
nan

>  <PDB_ID>  (427) 
nan

>  <Standardized_SMILES>  (427) 
COc1nc(Nc2nccc(-c3ccc(OC4CCOCC4)c(C#N)c3)n2)ccc1C1=CCNCC1

>  <Name>  (427) 
nan

>  <Pocket>  (427) 
nan

>  <ATP_Site>  (427) 
nan

>  <Peripheral>  (427) 
nan

>  <Num_H_Atoms_ProtBoundConf>  (427) 
nan

>  <Num_Resolved_Atoms>  (427) 
nan

>  <Num_Not_Resolved_Atoms>  (427) 
nan

$$$$
CHEMBL3682431
     RDKit          3D

  0  0  0  0  0  0  0  0  0  0999 V3000
M  V30 BEGIN CTAB
M  V30 COUNTS 52 55 0 0 0
M  V30 BEGIN ATOM
M  V30 1 N 0.492847 -4.299931 -4.489098 0
M  V30 2 C 0.350653 -3.619392 -3.584530 0
M  V30 3 C 0.152193 -2.764048 -2.439861 0
M  V30 4 C -0.460558 -3.109294 -1.267208 0
M  V30 5 C -0.622443 -2.211068 -0.253609 0
M  V30 6 C -1.300306 -2.651838 0.940057 0
M  V30 7 C -1.865427 -3.805190 1.412606 0
M  V30 8 C -2.478630 -4.033390 2.597484 0
M  V30 9 N -2.530491 -2.968056 3.410521 0
M  V30 10 C -2.010377 -1.778848 3.060260 0
M  V30 11 N -2.304318 -0.980176 4.180719 0
M  V30 12 C -1.632647 0.207039 3.498050 0
M  V30 13 C -0.471351 1.050988 3.530326 0
M  V30 14 N -0.390214 2.017580 2.550944 0
M  V30 15 N -1.454328 1.915798 1.797079 0
M  V30 16 C -1.924860 2.572950 0.613202 0
M  V30 17 C -2.707081 3.824175 0.877163 0
M  V30 18 O -3.824621 3.608308 1.666095 0
M  V30 19 C -2.172131 0.876798 2.341660 0
M  V30 20 N -1.454818 -1.726675 1.888024 0
M  V30 21 C -0.161984 -0.912789 -0.389377 0
M  V30 22 C 0.453473 -0.588759 -1.583349 0
M  V30 23 C 0.633615 -1.501277 -2.656246 0
M  V30 24 O 1.253813 -0.791598 -3.602965 0
M  V30 25 C 1.779716 -0.926131 -4.837608 0
M  V30 26 C 0.950584 -0.026037 -5.776302 0
M  V30 27 C 0.938990 1.387171 -5.237592 0
M  V30 28 O 2.032785 1.663620 -4.449003 0
M  V30 29 C 3.205183 1.135533 -4.922904 0
M  V30 30 C 3.210935 -0.362594 -4.853264 0
M  V30 31 H -0.816103 -4.100227 -1.159339 0
M  V30 32 H -1.741704 -4.570760 0.634538 0
M  V30 33 H -2.833299 -5.072155 2.684338 0
M  V30 34 H -2.311252 -0.087672 4.798771 0
M  V30 35 H 0.165870 0.741729 4.380477 0
M  V30 36 H -1.096519 2.778429 -0.101549 0
M  V30 37 H -2.628668 1.895464 0.038895 0
M  V30 38 H -3.071315 4.160725 -0.156776 0
M  V30 39 H -2.129241 4.674341 1.253885 0
M  V30 40 H -3.557013 2.960687 2.368774 0
M  V30 41 H -3.156274 0.511474 1.953650 0
M  V30 42 H -0.325610 -0.274022 0.469504 0
M  V30 43 H 0.754145 0.477938 -1.515471 0
M  V30 44 H 1.784048 -1.974600 -5.188329 0
M  V30 45 H 1.430580 -0.023778 -6.757394 0
M  V30 46 H -0.043959 -0.478741 -5.854896 0
M  V30 47 H 0.736097 2.116037 -6.036209 0
M  V30 48 H 0.046365 1.462155 -4.550568 0
M  V30 49 H 3.348488 1.432049 -5.993162 0
M  V30 50 H 4.100544 1.504429 -4.370918 0
M  V30 51 H 3.746758 -0.797394 -5.746517 0
M  V30 52 H 3.787549 -0.671287 -3.967086 0
M  V30 END ATOM
M  V30 BEGIN BOND
M  V30 1 3 1 2
M  V30 2 1 2 3
M  V30 3 2 3 4
M  V30 4 1 4 5
M  V30 5 1 5 6
M  V30 6 2 6 7
M  V30 7 1 7 8
M  V30 8 2 8 9
M  V30 9 1 9 10
M  V30 10 1 10 11
M  V30 11 1 11 12
M  V30 12 1 12 13
M  V30 13 2 13 14
M  V30 14 1 14 15
M  V30 15 1 15 16
M  V30 16 1 16 17
M  V30 17 1 17 18
M  V30 18 1 15 19
M  V30 19 2 10 20
M  V30 20 2 5 21
M  V30 21 1 21 22
M  V30 22 2 22 23
M  V30 23 1 23 24
M  V30 24 1 24 25
M  V30 25 1 25 26
M  V30 26 1 26 27
M  V30 27 1 27 28
M  V30 28 1 28 29
M  V30 29 1 29 30
M  V30 30 1 23 3
M  V30 31 1 30 25
M  V30 32 1 20 6
M  V30 33 2 19 12
M  V30 34 1 4 31
M  V30 35 1 7 32
M  V30 36 1 8 33
M  V30 37 1 11 34
M  V30 38 1 13 35
M  V30 39 1 16 36
M  V30 40 1 16 37
M  V30 41 1 17 38
M  V30 42 1 17 39
M  V30 43 1 18 40
M  V30 44 1 19 41
M  V30 45 1 21 42
M  V30 46 1 22 43
M  V30 47 1 25 44
M  V30 48 1 26 45
M  V30 49 1 26 46
M  V30 50 1 27 47
M  V30 51 1 27 48
M  V30 52 1 29 49
M  V30 53 1 29 50
M  V30 54 1 30 51
M  V30 55 1 30 52
M  V30 END BOND
M  V30 END CTAB
M  END
>  <Dataset>  (428) 
ChEMBL_Kinases

>  <Ligand_Instance>  (428) 
nan

>  <PDB_ID>  (428) 
nan

>  <Standardized_SMILES>  (428) 
N#Cc1cc(-c2ccnc(Nc3cnn(CCO)c3)n2)ccc1OC1CCOCC1

>  <Name>  (428) 
nan

>  <Pocket>  (428) 
nan

>  <ATP_Site>  (428) 
nan

>  <Peripheral>  (428) 
nan

>  <Num_H_Atoms_ProtBoundConf>  (428) 
nan

>  <Num_Resolved_Atoms>  (428) 
nan

>  <Num_Not_Resolved_Atoms>  (428) 
nan

$$$$
CHEMBL3680762
     RDKit          3D

  0  0  0  0  0  0  0  0  0  0999 V3000
M  V30 BEGIN CTAB
M  V30 COUNTS 68 73 0 0 0
M  V30 BEGIN ATOM
M  V30 1 C 5.478148 -4.230293 1.207071 0
M  V30 2 N 6.673852 -3.423010 1.072616 0
M  V30 3 C 7.475843 -3.770582 -0.040693 0
M  V30 4 C 7.807944 -2.655372 -1.000145 0
M  V30 5 C 6.553848 -1.889833 -1.241189 0
M  V30 6 C 6.113428 -1.477001 -2.475143 0
M  V30 7 C 4.932746 -0.773848 -2.587859 0
M  V30 8 C 4.164861 -0.465400 -1.483976 0
M  V30 9 N 2.940695 0.250750 -1.450763 0
M  V30 10 C 2.605993 1.599375 -1.280465 0
M  V30 11 O 3.540242 2.453871 -1.105744 0
M  V30 12 C 1.232739 2.082977 -1.292832 0
M  V30 13 C 1.038326 3.418505 -1.016006 0
M  V30 14 C -0.277284 3.877585 -1.039451 0
M  V30 15 C -1.310289 3.002592 -1.331507 0
M  V30 16 C -1.077256 1.649697 -1.608800 0
M  V30 17 C -2.335214 0.923270 -1.905244 0
M  V30 18 N -3.004102 0.371624 -0.776266 0
M  V30 19 C -2.673980 -0.802825 -0.053276 0
M  V30 20 O -1.627673 -1.303339 -0.595604 0
M  V30 21 C -3.298117 -1.424843 1.084169 0
M  V30 22 N -2.570079 -2.464342 1.595029 0
M  V30 23 N -3.217941 -2.966468 2.627528 0
M  V30 24 N -4.353313 -2.346665 2.872100 0
M  V30 25 C -5.189785 -2.744288 3.924764 0
M  V30 26 N -4.881616 -3.723147 4.801222 0
M  V30 27 O -5.757515 -3.909812 5.701409 0
M  V30 28 N -6.719972 -3.065184 5.491764 0
M  V30 29 C -6.394110 -2.329317 4.394086 0
M  V30 30 N -7.274068 -1.367611 3.931885 0
M  V30 31 C -4.371142 -1.420164 1.924239 0
M  V30 32 C -5.366575 -0.427980 1.644039 0
M  V30 33 C -6.149411 -0.386001 0.481177 0
M  V30 34 C -7.052692 0.597713 0.150026 0
M  V30 35 C -7.206665 1.639388 1.038472 0
M  V30 36 C -6.502208 1.726384 2.219958 0
M  V30 37 C -5.628516 0.689378 2.447338 0
M  V30 38 C 0.204836 1.216878 -1.582210 0
M  V30 39 C 4.609050 -0.882331 -0.233511 0
M  V30 40 C 5.799599 -1.591583 -0.114981 0
M  V30 41 C 6.314073 -2.047768 1.210060 0
M  V30 42 H 5.135705 -4.611186 0.203901 0
M  V30 43 H 5.654540 -5.145922 1.815275 0
M  V30 44 H 4.710110 -3.623512 1.715134 0
M  V30 45 H 6.917300 -4.558979 -0.626498 0
M  V30 46 H 8.416939 -4.264535 0.268450 0
M  V30 47 H 8.644364 -2.022351 -0.691394 0
M  V30 48 H 8.147498 -3.170096 -1.938910 0
M  V30 49 H 6.699095 -1.709800 -3.333447 0
M  V30 50 H 4.540050 -0.425977 -3.531688 0
M  V30 51 H 2.224740 -0.494813 -1.593699 0
M  V30 52 H 1.843059 4.108102 -0.787297 0
M  V30 53 H -0.419351 4.921186 -0.822465 0
M  V30 54 H -2.283925 3.482506 -1.317124 0
M  V30 55 H -3.044706 1.541176 -2.491512 0
M  V30 56 H -2.102346 0.044177 -2.580700 0
M  V30 57 H -3.836881 0.894446 -0.419010 0
M  V30 58 H -7.862645 -1.381905 3.054589 0
M  V30 59 H -7.411220 -0.480137 4.494079 0
M  V30 60 H -6.028500 -1.216534 -0.228562 0
M  V30 61 H -7.615368 0.544804 -0.769860 0
M  V30 62 H -7.905580 2.440613 0.824373 0
M  V30 63 H -6.584008 2.519530 2.951266 0
M  V30 64 H -5.057046 0.739234 3.384725 0
M  V30 65 H 0.324415 0.169121 -1.805191 0
M  V30 66 H 4.061707 -0.677766 0.689989 0
M  V30 67 H 7.237481 -1.450976 1.475275 0
M  V30 68 H 5.530646 -1.962248 1.991777 0
M  V30 END ATOM
M  V30 BEGIN BOND
M  V30 1 1 1 2
M  V30 2 1 2 3
M  V30 3 1 3 4
M  V30 4 1 4 5
M  V30 5 2 5 6
M  V30 6 1 6 7
M  V30 7 2 7 8
M  V30 8 1 8 9
M  V30 9 1 9 10
M  V30 10 2 10 11
M  V30 11 1 10 12
M  V30 12 2 12 13
M  V30 13 1 13 14
M  V30 14 2 14 15
M  V30 15 1 15 16
M  V30 16 1 16 17
M  V30 17 1 17 18
M  V30 18 1 18 19
M  V30 19 2 19 20
M  V30 20 1 19 21
M  V30 21 1 21 22
M  V30 22 2 22 23
M  V30 23 1 23 24
M  V30 24 1 24 25
M  V30 25 2 25 26
M  V30 26 1 26 27
M  V30 27 1 27 28
M  V30 28 2 28 29
M  V30 29 1 29 30
M  V30 30 1 24 31
M  V30 31 1 31 32
M  V30 32 2 32 33
M  V30 33 1 33 34
M  V30 34 2 34 35
M  V30 35 1 35 36
M  V30 36 2 36 37
M  V30 37 2 16 38
M  V30 38 1 8 39
M  V30 39 2 39 40
M  V30 40 1 40 41
M  V30 41 1 41 2
M  V30 42 1 40 5
M  V30 43 1 38 12
M  V30 44 2 31 21
M  V30 45 1 37 32
M  V30 46 1 29 25
M  V30 47 1 1 42
M  V30 48 1 1 43
M  V30 49 1 1 44
M  V30 50 1 3 45
M  V30 51 1 3 46
M  V30 52 1 4 47
M  V30 53 1 4 48
M  V30 54 1 6 49
M  V30 55 1 7 50
M  V30 56 1 9 51
M  V30 57 1 13 52
M  V30 58 1 14 53
M  V30 59 1 15 54
M  V30 60 1 17 55
M  V30 61 1 17 56
M  V30 62 1 18 57
M  V30 63 1 30 58
M  V30 64 1 30 59
M  V30 65 1 33 60
M  V30 66 1 34 61
M  V30 67 1 35 62
M  V30 68 1 36 63
M  V30 69 1 37 64
M  V30 70 1 38 65
M  V30 71 1 39 66
M  V30 72 1 41 67
M  V30 73 1 41 68
M  V30 END BOND
M  V30 END CTAB
M  END
>  <Dataset>  (429) 
ChEMBL_Kinases

>  <Ligand_Instance>  (429) 
nan

>  <PDB_ID>  (429) 
nan

>  <Standardized_SMILES>  (429) 
CN1CCc2ccc(NC(=O)c3cccc(CNC(=O)c4nnn(-c5nonc5N)c4-c4ccccc4)c3)cc2C1

>  <Name>  (429) 
nan

>  <Pocket>  (429) 
nan

>  <ATP_Site>  (429) 
nan

>  <Peripheral>  (429) 
nan

>  <Num_H_Atoms_ProtBoundConf>  (429) 
nan

>  <Num_Resolved_Atoms>  (429) 
nan

>  <Num_Not_Resolved_Atoms>  (429) 
nan

$$$$
CHEMBL3681049
     RDKit          3D

  0  0  0  0  0  0  0  0  0  0999 V3000
M  V30 BEGIN CTAB
M  V30 COUNTS 45 47 0 0 0
M  V30 BEGIN ATOM
M  V30 1 C 1.075504 -3.825067 3.051120 0
M  V30 2 N 0.043190 -4.542569 2.347070 0
M  V30 3 C -0.767392 -4.108289 1.274462 0
M  V30 4 N -0.623718 -2.870733 0.779586 0
M  V30 5 C -1.342711 -2.368353 -0.232963 0
M  V30 6 N -1.223168 -1.066653 -0.786447 0
M  V30 7 C -0.335297 -0.033873 -0.397567 0
M  V30 8 C 0.588742 -0.101272 0.602290 0
M  V30 9 C 1.451230 0.898457 0.981878 0
M  V30 10 C 2.430840 0.745586 2.084266 0
M  V30 11 C 1.399311 2.093453 0.305038 0
M  V30 12 N 2.252658 3.185097 0.627178 0
M  V30 13 N 3.131574 3.718588 -0.205945 0
M  V30 14 N 3.774274 4.723295 0.396580 0
M  V30 15 N 3.319216 4.853683 1.629580 0
M  V30 16 C 2.383026 3.902710 1.762425 0
M  V30 17 C 1.586830 3.657875 2.987256 0
M  V30 18 C 0.482307 2.218464 -0.717492 0
M  V30 19 C -0.349978 1.193395 -1.052337 0
M  V30 20 O -1.238128 1.399570 -2.087045 0
M  V30 21 C -1.307538 2.634312 -2.802643 0
M  V30 22 N -2.258244 -3.201720 -0.754674 0
M  V30 23 C -2.485646 -4.454862 -0.339102 0
M  V30 24 C -1.720067 -4.926847 0.706256 0
M  V30 25 C -1.882175 -6.299762 1.252525 0
M  V30 26 F -2.896903 -6.920777 0.516422 0
M  V30 27 F -0.761611 -7.087530 1.076427 0
M  V30 28 F -2.224398 -6.284832 2.590144 0
M  V30 29 H 2.077792 -4.228069 2.782458 0
M  V30 30 H 0.996409 -2.751274 2.796932 0
M  V30 31 H 0.918772 -3.893053 4.167387 0
M  V30 32 H -0.072027 -5.500715 2.725927 0
M  V30 33 H -1.869772 -0.824156 -1.587959 0
M  V30 34 H 0.692068 -1.003888 1.180465 0
M  V30 35 H 3.253719 1.479884 1.979484 0
M  V30 36 H 2.880888 -0.273669 2.003816 0
M  V30 37 H 1.940271 0.775299 3.075572 0
M  V30 38 H 1.259431 4.621996 3.425833 0
M  V30 39 H 2.250958 3.151270 3.725400 0
M  V30 40 H 0.727614 2.993145 2.804329 0
M  V30 41 H 0.441720 3.163124 -1.252245 0
M  V30 42 H -2.176839 2.639954 -3.489654 0
M  V30 43 H -1.403188 3.464384 -2.065637 0
M  V30 44 H -0.352695 2.761588 -3.347388 0
M  V30 45 H -3.238015 -5.080173 -0.798862 0
M  V30 END ATOM
M  V30 BEGIN BOND
M  V30 1 1 1 2
M  V30 2 1 2 3
M  V30 3 2 3 4
M  V30 4 1 4 5
M  V30 5 1 5 6
M  V30 6 1 6 7
M  V30 7 2 7 8
M  V30 8 1 8 9
M  V30 9 1 9 10
M  V30 10 2 9 11
M  V30 11 1 11 12
M  V30 12 1 12 13
M  V30 13 2 13 14
M  V30 14 1 14 15
M  V30 15 2 15 16
M  V30 16 1 16 17
M  V30 17 1 11 18
M  V30 18 2 18 19
M  V30 19 1 19 20
M  V30 20 1 20 21
M  V30 21 2 5 22
M  V30 22 1 22 23
M  V30 23 2 23 24
M  V30 24 1 24 25
M  V30 25 1 25 26
M  V30 26 1 25 27
M  V30 27 1 25 28
M  V30 28 1 24 3
M  V30 29 1 19 7
M  V30 30 1 16 12
M  V30 31 1 1 29
M  V30 32 1 1 30
M  V30 33 1 1 31
M  V30 34 1 2 32
M  V30 35 1 6 33
M  V30 36 1 8 34
M  V30 37 1 10 35
M  V30 38 1 10 36
M  V30 39 1 10 37
M  V30 40 1 17 38
M  V30 41 1 17 39
M  V30 42 1 17 40
M  V30 43 1 18 41
M  V30 44 1 21 42
M  V30 45 1 21 43
M  V30 46 1 21 44
M  V30 47 1 23 45
M  V30 END BOND
M  V30 END CTAB
M  END
>  <Dataset>  (430) 
ChEMBL_Kinases

>  <Ligand_Instance>  (430) 
nan

>  <PDB_ID>  (430) 
nan

>  <Standardized_SMILES>  (430) 
CNc1nc(Nc2cc(C)c(-n3nnnc3C)cc2OC)ncc1C(F)(F)F

>  <Name>  (430) 
nan

>  <Pocket>  (430) 
nan

>  <ATP_Site>  (430) 
nan

>  <Peripheral>  (430) 
nan

>  <Num_H_Atoms_ProtBoundConf>  (430) 
nan

>  <Num_Resolved_Atoms>  (430) 
nan

>  <Num_Not_Resolved_Atoms>  (430) 
nan

$$$$
CHEMBL3681050
     RDKit          3D

  0  0  0  0  0  0  0  0  0  0999 V3000
M  V30 BEGIN CTAB
M  V30 COUNTS 49 51 0 0 0
M  V30 BEGIN ATOM
M  V30 1 C -3.391349 -4.875941 2.858382 0
M  V30 2 N -2.042752 -5.380147 2.975604 0
M  V30 3 C -0.984812 -4.897657 2.171901 0
M  V30 4 N -1.197052 -3.940914 1.255004 0
M  V30 5 C -0.208489 -3.444871 0.449530 0
M  V30 6 N -0.699161 -2.435219 -0.416840 0
M  V30 7 C -0.442013 -1.051500 -0.142888 0
M  V30 8 C 0.345816 -0.725293 0.949264 0
M  V30 9 C 0.632529 0.606680 1.238501 0
M  V30 10 C 1.499462 0.871478 2.430822 0
M  V30 11 C 0.150799 1.649904 0.461638 0
M  V30 12 N 0.442984 2.996877 0.760827 0
M  V30 13 N 0.298970 3.392972 1.993431 0
M  V30 14 N 0.597780 4.671346 2.155246 0
M  V30 15 N 0.956182 5.122135 0.950306 0
M  V30 16 C 0.860679 4.084907 0.086690 0
M  V30 17 C 1.163795 4.125948 -1.356643 0
M  V30 18 O 2.508835 3.879034 -1.641894 0
M  V30 19 C 3.345624 4.815376 -1.050464 0
M  V30 20 C -0.629539 1.286878 -0.614730 0
M  V30 21 C -0.938183 -0.035929 -0.937913 0
M  V30 22 O -1.706230 -0.412875 -1.998263 0
M  V30 23 C -2.322294 0.384616 -2.954880 0
M  V30 24 N 1.046514 -3.961922 0.602071 0
M  V30 25 C 1.267954 -4.920673 1.518252 0
M  V30 26 C 0.294953 -5.441095 2.344142 0
M  V30 27 C 0.537881 -6.498530 3.359723 0
M  V30 28 F 1.878503 -6.840726 3.335253 0
M  V30 29 F 0.256092 -6.040856 4.656595 0
M  V30 30 F -0.251885 -7.612317 3.187473 0
M  V30 31 H -4.108870 -5.746643 2.782681 0
M  V30 32 H -3.502394 -4.275963 1.910036 0
M  V30 33 H -3.684242 -4.207710 3.682577 0
M  V30 34 H -1.948075 -6.117706 3.697734 0
M  V30 35 H -1.263758 -2.640370 -1.278088 0
M  V30 36 H 0.755229 -1.505081 1.605579 0
M  V30 37 H 0.926936 1.049947 3.353176 0
M  V30 38 H 2.075892 1.803100 2.188589 0
M  V30 39 H 2.201271 0.030652 2.614098 0
M  V30 40 H 0.867811 5.135002 -1.783909 0
M  V30 41 H 0.598386 3.398616 -1.968793 0
M  V30 42 H 4.412202 4.571081 -1.328747 0
M  V30 43 H 3.197122 4.735516 0.055434 0
M  V30 44 H 3.113063 5.859915 -1.404129 0
M  V30 45 H -1.079549 1.966374 -1.290034 0
M  V30 46 H -3.285786 -0.096429 -3.213973 0
M  V30 47 H -1.751638 0.423732 -3.922017 0
M  V30 48 H -2.480392 1.430176 -2.676773 0
M  V30 49 H 2.278100 -5.293346 1.596020 0
M  V30 END ATOM
M  V30 BEGIN BOND
M  V30 1 1 1 2
M  V30 2 1 2 3
M  V30 3 2 3 4
M  V30 4 1 4 5
M  V30 5 1 5 6
M  V30 6 1 6 7
M  V30 7 2 7 8
M  V30 8 1 8 9
M  V30 9 1 9 10
M  V30 10 2 9 11
M  V30 11 1 11 12
M  V30 12 1 12 13
M  V30 13 2 13 14
M  V30 14 1 14 15
M  V30 15 2 15 16
M  V30 16 1 16 17
M  V30 17 1 17 18
M  V30 18 1 18 19
M  V30 19 1 11 20
M  V30 20 2 20 21
M  V30 21 1 21 22
M  V30 22 1 22 23
M  V30 23 2 5 24
M  V30 24 1 24 25
M  V30 25 2 25 26
M  V30 26 1 26 27
M  V30 27 1 27 28
M  V30 28 1 27 29
M  V30 29 1 27 30
M  V30 30 1 26 3
M  V30 31 1 21 7
M  V30 32 1 16 12
M  V30 33 1 1 31
M  V30 34 1 1 32
M  V30 35 1 1 33
M  V30 36 1 2 34
M  V30 37 1 6 35
M  V30 38 1 8 36
M  V30 39 1 10 37
M  V30 40 1 10 38
M  V30 41 1 10 39
M  V30 42 1 17 40
M  V30 43 1 17 41
M  V30 44 1 19 42
M  V30 45 1 19 43
M  V30 46 1 19 44
M  V30 47 1 20 45
M  V30 48 1 23 46
M  V30 49 1 23 47
M  V30 50 1 23 48
M  V30 51 1 25 49
M  V30 END BOND
M  V30 END CTAB
M  END
>  <Dataset>  (431) 
ChEMBL_Kinases

>  <Ligand_Instance>  (431) 
nan

>  <PDB_ID>  (431) 
nan

>  <Standardized_SMILES>  (431) 
CNc1nc(Nc2cc(C)c(-n3nnnc3COC)cc2OC)ncc1C(F)(F)F

>  <Name>  (431) 
nan

>  <Pocket>  (431) 
nan

>  <ATP_Site>  (431) 
nan

>  <Peripheral>  (431) 
nan

>  <Num_H_Atoms_ProtBoundConf>  (431) 
nan

>  <Num_Resolved_Atoms>  (431) 
nan

>  <Num_Not_Resolved_Atoms>  (431) 
nan

$$$$
CHEMBL3681051
     RDKit          3D

  0  0  0  0  0  0  0  0  0  0999 V3000
M  V30 BEGIN CTAB
M  V30 COUNTS 51 53 0 0 0
M  V30 BEGIN ATOM
M  V30 1 C -1.907723 -2.561369 4.457896 0
M  V30 2 N -1.924372 -3.979766 4.159974 0
M  V30 3 C -1.298861 -4.520567 2.978047 0
M  V30 4 N -0.682486 -3.692776 2.126583 0
M  V30 5 C -0.076766 -4.107833 1.007169 0
M  V30 6 N 0.580263 -3.237134 0.096940 0
M  V30 7 C 0.747777 -1.829601 0.138989 0
M  V30 8 C 0.268927 -1.012582 1.139480 0
M  V30 9 C 0.414613 0.355375 1.209310 0
M  V30 10 F -0.083107 1.100404 2.225123 0
M  V30 11 C 1.101504 0.982850 0.190705 0
M  V30 12 N 1.323021 2.387208 0.140531 0
M  V30 13 N 2.413203 3.084447 0.383847 0
M  V30 14 C 2.234564 4.395826 0.231536 0
M  V30 15 C 3.240971 5.492291 0.420531 0
M  V30 16 C 0.916811 4.586071 -0.144053 0
M  V30 17 C 0.383008 3.307170 -0.189254 0
M  V30 18 C -1.026491 2.976088 -0.548815 0
M  V30 19 O -1.072133 2.783556 -1.920470 0
M  V30 20 C -2.376831 2.468450 -2.317757 0
M  V30 21 C 1.597524 0.217139 -0.826999 0
M  V30 22 C 1.424366 -1.146987 -0.849355 0
M  V30 23 O 1.958854 -1.851383 -1.917932 0
M  V30 24 C 2.665673 -1.203398 -2.965755 0
M  V30 25 N -0.101680 -5.403770 0.751081 0
M  V30 26 C -0.697592 -6.273154 1.558371 0
M  V30 27 C -1.326522 -5.870899 2.714092 0
M  V30 28 C -1.992816 -6.805641 3.625374 0
M  V30 29 F -1.425708 -6.768103 4.901645 0
M  V30 30 F -1.847107 -8.105904 3.158932 0
M  V30 31 F -3.356908 -6.571275 3.721168 0
M  V30 32 H -2.011735 -1.938813 3.551909 0
M  V30 33 H -0.974206 -2.241276 4.962386 0
M  V30 34 H -2.719107 -2.370914 5.194998 0
M  V30 35 H -2.404355 -4.666673 4.813616 0
M  V30 36 H 1.025861 -3.686386 -0.760777 0
M  V30 37 H -0.277654 -1.423103 1.970656 0
M  V30 38 H 3.667097 5.750377 -0.572024 0
M  V30 39 H 4.099221 5.088022 1.022049 0
M  V30 40 H 2.792667 6.341362 0.939295 0
M  V30 41 H 0.394848 5.507487 -0.359540 0
M  V30 42 H -1.419210 2.111206 0.029489 0
M  V30 43 H -1.711017 3.835684 -0.310664 0
M  V30 44 H -3.091275 3.264205 -2.067146 0
M  V30 45 H -2.692156 1.543106 -1.791834 0
M  V30 46 H -2.386672 2.264218 -3.402848 0
M  V30 47 H 2.138643 0.689200 -1.634685 0
M  V30 48 H 2.929390 -1.895561 -3.776669 0
M  V30 49 H 3.575585 -0.680645 -2.608702 0
M  V30 50 H 1.916911 -0.495894 -3.418568 0
M  V30 51 H -0.679110 -7.317040 1.286784 0
M  V30 END ATOM
M  V30 BEGIN BOND
M  V30 1 1 1 2
M  V30 2 1 2 3
M  V30 3 2 3 4
M  V30 4 1 4 5
M  V30 5 1 5 6
M  V30 6 1 6 7
M  V30 7 2 7 8
M  V30 8 1 8 9
M  V30 9 1 9 10
M  V30 10 2 9 11
M  V30 11 1 11 12
M  V30 12 1 12 13
M  V30 13 2 13 14
M  V30 14 1 14 15
M  V30 15 1 14 16
M  V30 16 2 16 17
M  V30 17 1 17 18
M  V30 18 1 18 19
M  V30 19 1 19 20
M  V30 20 1 11 21
M  V30 21 2 21 22
M  V30 22 1 22 23
M  V30 23 1 23 24
M  V30 24 2 5 25
M  V30 25 1 25 26
M  V30 26 2 26 27
M  V30 27 1 27 28
M  V30 28 1 28 29
M  V30 29 1 28 30
M  V30 30 1 28 31
M  V30 31 1 27 3
M  V30 32 1 22 7
M  V30 33 1 17 12
M  V30 34 1 1 32
M  V30 35 1 1 33
M  V30 36 1 1 34
M  V30 37 1 2 35
M  V30 38 1 6 36
M  V30 39 1 8 37
M  V30 40 1 15 38
M  V30 41 1 15 39
M  V30 42 1 15 40
M  V30 43 1 16 41
M  V30 44 1 18 42
M  V30 45 1 18 43
M  V30 46 1 20 44
M  V30 47 1 20 45
M  V30 48 1 20 46
M  V30 49 1 21 47
M  V30 50 1 24 48
M  V30 51 1 24 49
M  V30 52 1 24 50
M  V30 53 1 26 51
M  V30 END BOND
M  V30 END CTAB
M  END
>  <Dataset>  (432) 
ChEMBL_Kinases

>  <Ligand_Instance>  (432) 
nan

>  <PDB_ID>  (432) 
nan

>  <Standardized_SMILES>  (432) 
CNc1nc(Nc2cc(F)c(-n3nc(C)cc3COC)cc2OC)ncc1C(F)(F)F

>  <Name>  (432) 
nan

>  <Pocket>  (432) 
nan

>  <ATP_Site>  (432) 
nan

>  <Peripheral>  (432) 
nan

>  <Num_H_Atoms_ProtBoundConf>  (432) 
nan

>  <Num_Resolved_Atoms>  (432) 
nan

>  <Num_Not_Resolved_Atoms>  (432) 
nan

$$$$
CHEMBL3681052
     RDKit          3D

  0  0  0  0  0  0  0  0  0  0999 V3000
M  V30 BEGIN CTAB
M  V30 COUNTS 51 53 0 0 0
M  V30 BEGIN ATOM
M  V30 1 C -2.144224 -2.783234 3.980346 0
M  V30 2 N -1.523903 -4.084738 3.855429 0
M  V30 3 C -0.470136 -4.492605 2.988400 0
M  V30 4 N 0.090386 -3.632172 2.136250 0
M  V30 5 C 1.076788 -3.888334 1.279470 0
M  V30 6 N 1.658174 -2.956445 0.380696 0
M  V30 7 C 1.345981 -1.587565 0.182215 0
M  V30 8 C 0.367266 -0.909624 0.876867 0
M  V30 9 C 0.040690 0.418377 0.705898 0
M  V30 10 C 0.737380 1.150635 -0.232764 0
M  V30 11 N 0.435449 2.524309 -0.444206 0
M  V30 12 N 1.330746 3.483988 -0.176585 0
M  V30 13 C 0.846636 4.699263 -0.444996 0
M  V30 14 C 1.572727 5.988329 -0.264271 0
M  V30 15 C -0.433535 4.528909 -0.913372 0
M  V30 16 C -0.662912 3.169984 -0.902559 0
M  V30 17 C -1.886870 2.413867 -1.308343 0
M  V30 18 O -2.705155 2.286428 -0.173733 0
M  V30 19 C -3.881467 1.593725 -0.434009 0
M  V30 20 C 1.724922 0.510903 -0.949930 0
M  V30 21 C 2.035700 -0.817616 -0.763459 0
M  V30 22 O 3.021382 -1.416691 -1.493534 0
M  V30 23 C 3.833690 -0.865687 -2.477471 0
M  V30 24 N 1.520858 -5.134540 1.304273 0
M  V30 25 C 1.045567 -6.082331 2.105950 0
M  V30 26 C 0.033023 -5.772886 2.968649 0
M  V30 27 C -0.529816 -6.785377 3.877665 0
M  V30 28 F 0.130528 -7.990754 3.680886 0
M  V30 29 F -1.887510 -6.954098 3.661916 0
M  V30 30 F -0.273682 -6.396738 5.188478 0
M  V30 31 H -3.229254 -2.905477 4.182089 0
M  V30 32 H -1.952369 -2.146094 3.102303 0
M  V30 33 H -1.727667 -2.226258 4.849958 0
M  V30 34 H -1.910824 -4.818598 4.494990 0
M  V30 35 H 2.442217 -3.321319 -0.240392 0
M  V30 36 H -0.220891 -1.395612 1.621105 0
M  V30 37 H -0.733834 0.919524 1.268737 0
M  V30 38 H 0.902242 6.824963 -0.560510 0
M  V30 39 H 1.779118 6.072459 0.840123 0
M  V30 40 H 2.539813 6.017505 -0.772407 0
M  V30 41 H -1.141397 5.281223 -1.232788 0
M  V30 42 H -1.652931 1.400268 -1.639035 0
M  V30 43 H -2.510308 2.985434 -2.045431 0
M  V30 44 H -4.434735 1.562614 0.536364 0
M  V30 45 H -4.534351 2.128424 -1.150053 0
M  V30 46 H -3.658699 0.547079 -0.703257 0
M  V30 47 H 2.238721 1.108387 -1.663559 0
M  V30 48 H 3.853745 0.223105 -2.512925 0
M  V30 49 H 3.418667 -1.224847 -3.465108 0
M  V30 50 H 4.878301 -1.287726 -2.457661 0
M  V30 51 H 1.453459 -7.089043 2.077962 0
M  V30 END ATOM
M  V30 BEGIN BOND
M  V30 1 1 1 2
M  V30 2 1 2 3
M  V30 3 2 3 4
M  V30 4 1 4 5
M  V30 5 1 5 6
M  V30 6 1 6 7
M  V30 7 2 7 8
M  V30 8 1 8 9
M  V30 9 2 9 10
M  V30 10 1 10 11
M  V30 11 1 11 12
M  V30 12 2 12 13
M  V30 13 1 13 14
M  V30 14 1 13 15
M  V30 15 2 15 16
M  V30 16 1 16 17
M  V30 17 1 17 18
M  V30 18 1 18 19
M  V30 19 1 10 20
M  V30 20 2 20 21
M  V30 21 1 21 22
M  V30 22 1 22 23
M  V30 23 2 5 24
M  V30 24 1 24 25
M  V30 25 2 25 26
M  V30 26 1 26 27
M  V30 27 1 27 28
M  V30 28 1 27 29
M  V30 29 1 27 30
M  V30 30 1 26 3
M  V30 31 1 21 7
M  V30 32 1 16 11
M  V30 33 1 1 31
M  V30 34 1 1 32
M  V30 35 1 1 33
M  V30 36 1 2 34
M  V30 37 1 6 35
M  V30 38 1 8 36
M  V30 39 1 9 37
M  V30 40 1 14 38
M  V30 41 1 14 39
M  V30 42 1 14 40
M  V30 43 1 15 41
M  V30 44 1 17 42
M  V30 45 1 17 43
M  V30 46 1 19 44
M  V30 47 1 19 45
M  V30 48 1 19 46
M  V30 49 1 20 47
M  V30 50 1 23 48
M  V30 51 1 23 49
M  V30 52 1 23 50
M  V30 53 1 25 51
M  V30 END BOND
M  V30 END CTAB
M  END
>  <Dataset>  (433) 
ChEMBL_Kinases

>  <Ligand_Instance>  (433) 
nan

>  <PDB_ID>  (433) 
nan

>  <Standardized_SMILES>  (433) 
CNc1nc(Nc2ccc(-n3nc(C)cc3COC)cc2OC)ncc1C(F)(F)F

>  <Name>  (433) 
nan

>  <Pocket>  (433) 
nan

>  <ATP_Site>  (433) 
nan

>  <Peripheral>  (433) 
nan

>  <Num_H_Atoms_ProtBoundConf>  (433) 
nan

>  <Num_Resolved_Atoms>  (433) 
nan

>  <Num_Not_Resolved_Atoms>  (433) 
nan

$$$$
CHEMBL3681053
     RDKit          3D

  0  0  0  0  0  0  0  0  0  0999 V3000
M  V30 BEGIN CTAB
M  V30 COUNTS 46 48 0 0 0
M  V30 BEGIN ATOM
M  V30 1 C -3.099675 -2.720015 -1.120045 0
M  V30 2 N -2.671001 -3.915677 -0.387537 0
M  V30 3 C -1.285002 -3.974385 0.006722 0
M  V30 4 N -0.473196 -2.889704 -0.236701 0
M  V30 5 C 0.838014 -2.901057 0.184252 0
M  V30 6 N 1.257760 -1.606515 -0.032819 0
M  V30 7 C 1.676249 -0.317939 -0.249613 0
M  V30 8 C 2.878405 0.262604 -0.490130 0
M  V30 9 C 2.931620 1.631624 -0.440838 0
M  V30 10 F 4.120336 2.213128 -0.702121 0
M  V30 11 C 1.816452 2.405242 -0.159945 0
M  V30 12 N 1.973508 3.814778 0.117880 0
M  V30 13 N 2.269188 4.895071 -0.514060 0
M  V30 14 N 2.316483 5.899339 0.377357 0
M  V30 15 N 2.043548 5.408583 1.576540 0
M  V30 16 C 1.812722 4.083375 1.491034 0
M  V30 17 C 1.401243 3.093604 2.559926 0
M  V30 18 O 2.411219 2.232111 2.902739 0
M  V30 19 C 1.815949 1.269902 3.754779 0
M  V30 20 C 0.547586 1.945663 0.085182 0
M  V30 21 C 0.565530 0.552673 0.023402 0
M  V30 22 O -0.709155 -0.000918 0.271688 0
M  V30 23 C -1.888410 0.643455 0.555834 0
M  V30 24 N 1.413674 -3.952878 0.847544 0
M  V30 25 C 0.627447 -5.055705 1.108228 0
M  V30 26 C -0.675222 -4.993568 0.677223 0
M  V30 27 C -1.611475 -6.107977 0.924416 0
M  V30 28 F -0.929582 -7.110510 1.583918 0
M  V30 29 F -2.649325 -5.729923 1.783689 0
M  V30 30 F -2.103900 -6.688982 -0.239138 0
M  V30 31 H -4.016528 -2.898777 -1.703489 0
M  V30 32 H -2.337816 -2.528902 -1.951813 0
M  V30 33 H -3.117698 -1.812482 -0.543307 0
M  V30 34 H -3.314491 -4.680156 -0.127005 0
M  V30 35 H 0.916681 -1.436293 1.003291 0
M  V30 36 H 3.647494 -0.438667 -0.716472 0
M  V30 37 H 1.195538 3.695010 3.493437 0
M  V30 38 H 0.482995 2.547791 2.370016 0
M  V30 39 H 1.378683 1.769745 4.624196 0
M  V30 40 H 0.965810 0.765570 3.189511 0
M  V30 41 H 2.514066 0.474166 4.056967 0
M  V30 42 H -0.292634 2.565262 0.275152 0
M  V30 43 H -1.829278 1.575362 1.161971 0
M  V30 44 H -2.508940 -0.056234 1.200123 0
M  V30 45 H -2.481958 0.911822 -0.328913 0
M  V30 46 H 1.065382 -5.885086 1.624829 0
M  V30 END ATOM
M  V30 BEGIN BOND
M  V30 1 1 1 2
M  V30 2 1 2 3
M  V30 3 2 3 4
M  V30 4 1 4 5
M  V30 5 1 5 6
M  V30 6 1 6 7
M  V30 7 2 7 8
M  V30 8 1 8 9
M  V30 9 1 9 10
M  V30 10 2 9 11
M  V30 11 1 11 12
M  V30 12 1 12 13
M  V30 13 2 13 14
M  V30 14 1 14 15
M  V30 15 2 15 16
M  V30 16 1 16 17
M  V30 17 1 17 18
M  V30 18 1 18 19
M  V30 19 1 11 20
M  V30 20 2 20 21
M  V30 21 1 21 22
M  V30 22 1 22 23
M  V30 23 2 5 24
M  V30 24 1 24 25
M  V30 25 2 25 26
M  V30 26 1 26 27
M  V30 27 1 27 28
M  V30 28 1 27 29
M  V30 29 1 27 30
M  V30 30 1 26 3
M  V30 31 1 21 7
M  V30 32 1 16 12
M  V30 33 1 1 31
M  V30 34 1 1 32
M  V30 35 1 1 33
M  V30 36 1 2 34
M  V30 37 1 6 35
M  V30 38 1 8 36
M  V30 39 1 17 37
M  V30 40 1 17 38
M  V30 41 1 19 39
M  V30 42 1 19 40
M  V30 43 1 19 41
M  V30 44 1 20 42
M  V30 45 1 23 43
M  V30 46 1 23 44
M  V30 47 1 23 45
M  V30 48 1 25 46
M  V30 END BOND
M  V30 END CTAB
M  END
>  <Dataset>  (434) 
ChEMBL_Kinases

>  <Ligand_Instance>  (434) 
nan

>  <PDB_ID>  (434) 
nan

>  <Standardized_SMILES>  (434) 
CNc1nc(Nc2cc(F)c(-n3nnnc3COC)cc2OC)ncc1C(F)(F)F

>  <Name>  (434) 
nan

>  <Pocket>  (434) 
nan

>  <ATP_Site>  (434) 
nan

>  <Peripheral>  (434) 
nan

>  <Num_H_Atoms_ProtBoundConf>  (434) 
nan

>  <Num_Resolved_Atoms>  (434) 
nan

>  <Num_Not_Resolved_Atoms>  (434) 
nan

$$$$
CHEMBL3681213
     RDKit          3D

  0  0  0  0  0  0  0  0  0  0999 V3000
M  V30 BEGIN CTAB
M  V30 COUNTS 47 50 0 0 0
M  V30 BEGIN ATOM
M  V30 1 N 0.007300 -3.556939 3.051139 0
M  V30 2 C 1.027271 -4.272061 2.316413 0
M  V30 3 C 1.088349 -3.745725 0.897384 0
M  V30 4 C 2.142147 -4.464321 0.090629 0
M  V30 5 C 2.752107 -3.496366 -0.912352 0
M  V30 6 C 1.636451 -2.646524 -1.509216 0
M  V30 7 N 1.046583 -1.795753 -0.495184 0
M  V30 8 C 0.319890 -0.664469 -0.998965 0
M  V30 9 O 0.470213 -0.834273 -2.229639 0
M  V30 10 C -0.358404 0.329171 -0.170211 0
M  V30 11 C 0.371237 1.444669 0.224651 0
M  V30 12 C -0.516099 2.207406 0.992759 0
M  V30 13 C -0.250945 3.490560 1.653459 0
M  V30 14 C -0.598945 3.856920 2.937313 0
M  V30 15 C -0.275549 5.105948 3.412944 0
M  V30 16 N 0.389657 5.999573 2.632129 0
M  V30 17 C 0.728874 5.632315 1.369968 0
M  V30 18 C 0.432944 4.384808 0.825137 0
M  V30 19 N -1.705575 1.577850 1.049452 0
M  V30 20 N -2.874884 1.825658 1.615760 0
M  V30 21 C -3.927991 0.995425 1.505517 0
M  V30 22 N -3.823845 -0.150936 0.792934 0
M  V30 23 C -2.654066 -0.468604 0.185160 0
M  V30 24 N -2.528829 -1.667751 -0.566630 0
M  V30 25 C -1.637259 0.434542 0.351487 0
M  V30 26 C 1.299051 -2.246375 0.872785 0
M  V30 27 H -0.585806 -4.251092 3.542649 0
M  V30 28 H 0.447510 -2.964891 3.806311 0
M  V30 29 H 1.989665 -4.146600 2.846211 0
M  V30 30 H 0.775269 -5.347846 2.316867 0
M  V30 31 H 0.089185 -3.942819 0.437932 0
M  V30 32 H 1.652388 -5.283422 -0.477006 0
M  V30 33 H 2.909422 -4.829216 0.790130 0
M  V30 34 H 3.497228 -2.864310 -0.410998 0
M  V30 35 H 3.276798 -4.062543 -1.696368 0
M  V30 36 H 0.915973 -3.277834 -2.032185 0
M  V30 37 H 2.103304 -1.978704 -2.268392 0
M  V30 38 H 1.395721 1.742950 0.032215 0
M  V30 39 H -1.119852 3.079131 3.466973 0
M  V30 40 H -0.616329 5.243074 4.437266 0
M  V30 41 H 1.261332 6.375818 0.774637 0
M  V30 42 H 0.760282 4.225654 -0.188276 0
M  V30 43 H -4.821605 1.328125 2.022868 0
M  V30 44 H -3.125774 -2.048258 -1.338929 0
M  V30 45 H -1.820500 -2.430843 -0.518062 0
M  V30 46 H 2.382859 -2.066440 1.098846 0
M  V30 47 H 0.663330 -1.718953 1.584087 0
M  V30 END ATOM
M  V30 BEGIN BOND
M  V30 1 1 1 2
M  V30 2 1 2 3
M  V30 3 1 3 4
M  V30 4 1 4 5
M  V30 5 1 5 6
M  V30 6 1 6 7
M  V30 7 1 7 8
M  V30 8 2 8 9
M  V30 9 1 8 10
M  V30 10 1 10 11
M  V30 11 2 11 12
M  V30 12 1 12 13
M  V30 13 2 13 14
M  V30 14 1 14 15
M  V30 15 2 15 16
M  V30 16 1 16 17
M  V30 17 2 17 18
M  V30 18 1 12 19
M  V30 19 1 19 20
M  V30 20 2 20 21
M  V30 21 1 21 22
M  V30 22 2 22 23
M  V30 23 1 23 24
M  V30 24 1 23 25
M  V30 25 1 7 26
M  V30 26 1 26 3
M  V30 27 2 25 10
M  V30 28 1 18 13
M  V30 29 1 25 19
M  V30 30 1 1 27
M  V30 31 1 1 28
M  V30 32 1 2 29
M  V30 33 1 2 30
M  V30 34 1 3 31
M  V30 35 1 4 32
M  V30 36 1 4 33
M  V30 37 1 5 34
M  V30 38 1 5 35
M  V30 39 1 6 36
M  V30 40 1 6 37
M  V30 41 1 11 38
M  V30 42 1 14 39
M  V30 43 1 15 40
M  V30 44 1 17 41
M  V30 45 1 18 42
M  V30 46 1 21 43
M  V30 47 1 24 44
M  V30 48 1 24 45
M  V30 49 1 26 46
M  V30 50 1 26 47
M  V30 END BOND
M  V30 END CTAB
M  END
>  <Dataset>  (435) 
ChEMBL_Kinases

>  <Ligand_Instance>  (435) 
nan

>  <PDB_ID>  (435) 
nan

>  <Standardized_SMILES>  (435) 
NCC1CCCN(C(=O)c2cc(-c3ccncc3)n3ncnc(N)c23)C1

>  <Name>  (435) 
nan

>  <Pocket>  (435) 
nan

>  <ATP_Site>  (435) 
nan

>  <Peripheral>  (435) 
nan

>  <Num_H_Atoms_ProtBoundConf>  (435) 
nan

>  <Num_Resolved_Atoms>  (435) 
nan

>  <Num_Not_Resolved_Atoms>  (435) 
nan

$$$$
CHEMBL3682420
     RDKit          3D

  0  0  0  0  0  0  0  0  0  0999 V3000
M  V30 BEGIN CTAB
M  V30 COUNTS 60 64 0 0 0
M  V30 BEGIN ATOM
M  V30 1 N -2.593582 -1.575920 -0.213290 0
M  V30 2 C -1.491524 -1.915601 -0.266864 0
M  V30 3 C -0.127798 -2.362247 -0.334457 0
M  V30 4 C 0.825895 -1.602536 0.352657 0
M  V30 5 C 2.167789 -1.908059 0.377879 0
M  V30 6 C 3.158979 -1.119440 1.090140 0
M  V30 7 C 4.472151 -1.467256 1.078484 0
M  V30 8 C 5.407164 -0.723162 1.748185 0
M  V30 9 N 4.993736 0.352617 2.412526 0
M  V30 10 C 3.699968 0.741263 2.455571 0
M  V30 11 N 3.389333 1.904723 3.197944 0
M  V30 12 C 2.118620 2.508914 3.400399 0
M  V30 13 C 1.752568 3.634789 4.108542 0
M  V30 14 N 0.424046 3.793557 3.999528 0
M  V30 15 N -0.115383 2.833488 3.256354 0
M  V30 16 C -1.543455 2.843311 3.032879 0
M  V30 17 C -1.823707 2.040083 1.782579 0
M  V30 18 C -1.571375 2.990440 0.604614 0
M  V30 19 N -2.737377 3.848677 0.516144 0
M  V30 20 C -3.113046 4.386387 1.806056 0
M  V30 21 C -2.001442 4.266486 2.819835 0
M  V30 22 C 0.919362 2.056774 2.895695 0
M  V30 23 N 2.824149 -0.018490 1.785305 0
M  V30 24 C 2.516389 -3.031732 -0.330828 0
M  V30 25 C 1.617313 -3.814819 -1.024412 0
M  V30 26 C 0.274139 -3.501137 -1.044414 0
M  V30 27 O -0.764120 -4.136702 -1.661669 0
M  V30 28 C -0.722659 -5.293366 -2.445769 0
M  V30 29 C -1.543298 -6.425570 -1.869154 0
M  V30 30 C -3.013733 -6.268291 -2.189144 0
M  V30 31 O -3.163289 -6.236531 -3.553727 0
M  V30 32 C -2.599121 -5.087517 -4.098964 0
M  V30 33 C -1.108207 -5.026702 -3.884410 0
M  V30 34 H 0.495252 -0.727413 0.894096 0
M  V30 35 H 4.883601 -2.321575 0.565296 0
M  V30 36 H 6.472054 -0.938965 1.784014 0
M  V30 37 H 4.159509 2.429367 3.682819 0
M  V30 38 H 2.463597 4.263139 4.653886 0
M  V30 39 H -2.011127 2.385915 3.928263 0
M  V30 40 H -1.191945 1.144831 1.739236 0
M  V30 41 H -2.910990 1.804127 1.729397 0
M  V30 42 H -0.649914 3.550343 0.847361 0
M  V30 43 H -1.460198 2.464504 -0.349610 0
M  V30 44 H -3.530333 3.189676 0.252720 0
M  V30 45 H -3.292683 5.472359 1.670896 0
M  V30 46 H -4.018688 3.946773 2.238939 0
M  V30 47 H -1.187221 4.946920 2.521791 0
M  V30 48 H -2.403793 4.609525 3.795630 0
M  V30 49 H 0.754591 1.190952 2.278303 0
M  V30 50 H 3.516749 -3.402521 -0.409665 0
M  V30 51 H 1.869707 -4.687315 -1.577676 0
M  V30 52 H 0.328140 -5.645671 -2.483950 0
M  V30 53 H -1.383000 -6.508291 -0.794503 0
M  V30 54 H -1.203210 -7.373103 -2.332968 0
M  V30 55 H -3.496587 -7.208339 -1.831450 0
M  V30 56 H -3.483473 -5.439698 -1.636363 0
M  V30 57 H -3.135972 -4.201660 -3.740959 0
M  V30 58 H -2.772920 -5.128404 -5.194515 0
M  V30 59 H -0.644143 -5.791609 -4.542229 0
M  V30 60 H -0.738811 -4.055260 -4.228105 0
M  V30 END ATOM
M  V30 BEGIN BOND
M  V30 1 3 1 2
M  V30 2 1 2 3
M  V30 3 2 3 4
M  V30 4 1 4 5
M  V30 5 1 5 6
M  V30 6 2 6 7
M  V30 7 1 7 8
M  V30 8 2 8 9
M  V30 9 1 9 10
M  V30 10 1 10 11
M  V30 11 1 11 12
M  V30 12 1 12 13
M  V30 13 2 13 14
M  V30 14 1 14 15
M  V30 15 1 15 16
M  V30 16 1 16 17
M  V30 17 1 17 18
M  V30 18 1 18 19
M  V30 19 1 19 20
M  V30 20 1 20 21
M  V30 21 1 15 22
M  V30 22 2 10 23
M  V30 23 2 5 24
M  V30 24 1 24 25
M  V30 25 2 25 26
M  V30 26 1 26 27
M  V30 27 1 27 28
M  V30 28 1 28 29
M  V30 29 1 29 30
M  V30 30 1 30 31
M  V30 31 1 31 32
M  V30 32 1 32 33
M  V30 33 1 26 3
M  V30 34 1 33 28
M  V30 35 1 23 6
M  V30 36 2 22 12
M  V30 37 1 21 16
M  V30 38 1 4 34
M  V30 39 1 7 35
M  V30 40 1 8 36
M  V30 41 1 11 37
M  V30 42 1 13 38
M  V30 43 1 16 39
M  V30 44 1 17 40
M  V30 45 1 17 41
M  V30 46 1 18 42
M  V30 47 1 18 43
M  V30 48 1 19 44
M  V30 49 1 20 45
M  V30 50 1 20 46
M  V30 51 1 21 47
M  V30 52 1 21 48
M  V30 53 1 22 49
M  V30 54 1 24 50
M  V30 55 1 25 51
M  V30 56 1 28 52
M  V30 57 1 29 53
M  V30 58 1 29 54
M  V30 59 1 30 55
M  V30 60 1 30 56
M  V30 61 1 32 57
M  V30 62 1 32 58
M  V30 63 1 33 59
M  V30 64 1 33 60
M  V30 END BOND
M  V30 END CTAB
M  END
>  <Dataset>  (436) 
ChEMBL_Kinases

>  <Ligand_Instance>  (436) 
nan

>  <PDB_ID>  (436) 
nan

>  <Standardized_SMILES>  (436) 
N#Cc1cc(-c2ccnc(Nc3cnn(C4CCNCC4)c3)n2)ccc1OC1CCOCC1

>  <Name>  (436) 
nan

>  <Pocket>  (436) 
nan

>  <ATP_Site>  (436) 
nan

>  <Peripheral>  (436) 
nan

>  <Num_H_Atoms_ProtBoundConf>  (436) 
nan

>  <Num_Resolved_Atoms>  (436) 
nan

>  <Num_Not_Resolved_Atoms>  (436) 
nan

$$$$
CHEMBL3682430
     RDKit          3D

  0  0  0  0  0  0  0  0  0  0999 V3000
M  V30 BEGIN CTAB
M  V30 COUNTS 63 67 0 0 0
M  V30 BEGIN ATOM
M  V30 1 N -2.763770 -2.802187 0.836671 0
M  V30 2 C -1.719856 -2.979770 0.411363 0
M  V30 3 C -0.406624 -3.186769 -0.101804 0
M  V30 4 C 0.661770 -2.600139 0.535448 0
M  V30 5 C 1.919528 -2.817177 0.014803 0
M  V30 6 C 3.019500 -2.183697 0.712979 0
M  V30 7 C 4.235633 -2.831558 0.688178 0
M  V30 8 C 5.260643 -2.205991 1.357830 0
M  V30 9 N 5.115791 -1.048382 1.996975 0
M  V30 10 C 3.973620 -0.372111 2.059684 0
M  V30 11 N 3.848585 0.842107 2.774850 0
M  V30 12 C 2.899745 1.884060 2.846274 0
M  V30 13 C 1.873866 2.176555 1.982126 0
M  V30 14 C 0.959697 3.181221 2.137586 0
M  V30 15 C -0.124740 3.448547 1.163416 0
M  V30 16 C -1.393637 2.840270 1.731596 0
M  V30 17 C -2.006338 3.729160 2.763743 0
M  V30 18 N -2.095467 5.108894 2.422042 0
M  V30 19 C -1.605774 5.470676 1.116431 0
M  V30 20 C -0.278420 4.878430 0.781711 0
M  V30 21 C 1.084519 3.962872 3.257252 0
M  V30 22 C 2.098097 3.702663 4.144822 0
M  V30 23 N 2.941162 2.699748 3.907174 0
M  V30 24 C 2.934260 -0.980156 1.397232 0
M  V30 25 C 2.092684 -3.597897 -1.108584 0
M  V30 26 C 0.962102 -4.165576 -1.708710 0
M  V30 27 C -0.339498 -3.975187 -1.217641 0
M  V30 28 O -1.174197 -4.645090 -2.011960 0
M  V30 29 C -2.533415 -4.837843 -2.043298 0
M  V30 30 C -3.145070 -4.396447 -3.375142 0
M  V30 31 C -4.639346 -4.520474 -3.251697 0
M  V30 32 O -5.013433 -5.231336 -2.111798 0
M  V30 33 C -4.381554 -6.475880 -2.066303 0
M  V30 34 C -2.875194 -6.348267 -1.967014 0
M  V30 35 H 0.474510 -2.005494 1.402312 0
M  V30 36 H 4.396422 -3.769469 0.181694 0
M  V30 37 H 6.246569 -2.669080 1.373786 0
M  V30 38 H 4.685192 0.980613 3.400095 0
M  V30 39 H 1.756438 1.611808 1.096448 0
M  V30 40 H 0.111505 2.791775 0.271619 0
M  V30 41 H -1.195914 1.861126 2.197679 0
M  V30 42 H -2.124406 2.750523 0.898518 0
M  V30 43 H -3.070937 3.362761 2.885732 0
M  V30 44 H -1.574290 3.541021 3.791328 0
M  V30 45 H -3.072827 5.491127 2.493521 0
M  V30 46 H -2.370002 5.271592 0.339104 0
M  V30 47 H -1.484898 6.586258 1.141566 0
M  V30 48 H -0.163753 4.939282 -0.342861 0
M  V30 49 H 0.556219 5.526966 1.170487 0
M  V30 50 H 0.452422 4.775793 3.507329 0
M  V30 51 H 2.232431 4.302653 5.053898 0
M  V30 52 H 1.944049 -0.600394 1.353866 0
M  V30 53 H 3.109704 -3.689730 -1.412096 0
M  V30 54 H 1.306405 -4.744866 -2.581021 0
M  V30 55 H -3.146167 -4.371757 -1.271466 0
M  V30 56 H -2.732963 -5.048456 -4.191185 0
M  V30 57 H -2.894492 -3.354193 -3.599581 0
M  V30 58 H -5.079066 -3.509174 -3.135655 0
M  V30 59 H -5.049277 -4.973887 -4.174513 0
M  V30 60 H -4.733306 -6.948470 -1.120586 0
M  V30 61 H -4.706806 -7.144540 -2.892486 0
M  V30 62 H -2.444380 -6.827825 -2.864453 0
M  V30 63 H -2.468715 -6.791794 -1.029026 0
M  V30 END ATOM
M  V30 BEGIN BOND
M  V30 1 3 1 2
M  V30 2 1 2 3
M  V30 3 2 3 4
M  V30 4 1 4 5
M  V30 5 1 5 6
M  V30 6 2 6 7
M  V30 7 1 7 8
M  V30 8 2 8 9
M  V30 9 1 9 10
M  V30 10 1 10 11
M  V30 11 1 11 12
M  V30 12 2 12 13
M  V30 13 1 13 14
M  V30 14 1 14 15
M  V30 15 1 15 16
M  V30 16 1 16 17
M  V30 17 1 17 18
M  V30 18 1 18 19
M  V30 19 1 19 20
M  V30 20 2 14 21
M  V30 21 1 21 22
M  V30 22 2 22 23
M  V30 23 2 10 24
M  V30 24 2 5 25
M  V30 25 1 25 26
M  V30 26 2 26 27
M  V30 27 1 27 28
M  V30 28 1 28 29
M  V30 29 1 29 30
M  V30 30 1 30 31
M  V30 31 1 31 32
M  V30 32 1 32 33
M  V30 33 1 33 34
M  V30 34 1 27 3
M  V30 35 1 34 29
M  V30 36 1 24 6
M  V30 37 1 23 12
M  V30 38 1 20 15
M  V30 39 1 4 35
M  V30 40 1 7 36
M  V30 41 1 8 37
M  V30 42 1 11 38
M  V30 43 1 13 39
M  V30 44 1 15 40
M  V30 45 1 16 41
M  V30 46 1 16 42
M  V30 47 1 17 43
M  V30 48 1 17 44
M  V30 49 1 18 45
M  V30 50 1 19 46
M  V30 51 1 19 47
M  V30 52 1 20 48
M  V30 53 1 20 49
M  V30 54 1 21 50
M  V30 55 1 22 51
M  V30 56 1 24 52
M  V30 57 1 25 53
M  V30 58 1 26 54
M  V30 59 1 29 55
M  V30 60 1 30 56
M  V30 61 1 30 57
M  V30 62 1 31 58
M  V30 63 1 31 59
M  V30 64 1 33 60
M  V30 65 1 33 61
M  V30 66 1 34 62
M  V30 67 1 34 63
M  V30 END BOND
M  V30 END CTAB
M  END
>  <Dataset>  (437) 
ChEMBL_Kinases

>  <Ligand_Instance>  (437) 
nan

>  <PDB_ID>  (437) 
nan

>  <Standardized_SMILES>  (437) 
N#Cc1cc(-c2ccnc(Nc3cc(C4CCNCC4)ccn3)c2)ccc1OC1CCOCC1

>  <Name>  (437) 
nan

>  <Pocket>  (437) 
nan

>  <ATP_Site>  (437) 
nan

>  <Peripheral>  (437) 
nan

>  <Num_H_Atoms_ProtBoundConf>  (437) 
nan

>  <Num_Resolved_Atoms>  (437) 
nan

>  <Num_Not_Resolved_Atoms>  (437) 
nan

$$$$
CHEMBL3682422
     RDKit          3D

  0  0  0  0  0  0  0  0  0  0999 V3000
M  V30 BEGIN CTAB
M  V30 COUNTS 62 66 0 0 0
M  V30 BEGIN ATOM
M  V30 1 N -0.250782 -6.865832 0.880429 0
M  V30 2 C 0.130233 -5.806819 0.636470 0
M  V30 3 C 0.593892 -4.470468 0.309688 0
M  V30 4 C 1.830877 -4.105607 0.790963 0
M  V30 5 C 2.377507 -2.869049 0.561285 0
M  V30 6 C 3.654417 -2.322571 0.978834 0
M  V30 7 C 4.848119 -2.986451 1.135572 0
M  V30 8 C 5.961059 -2.283630 1.582271 0
M  V30 9 N 5.905803 -0.980646 1.865395 0
M  V30 10 C 4.769066 -0.228096 1.745144 0
M  V30 11 N 4.724696 1.174061 2.072071 0
M  V30 12 C 3.410957 1.695549 1.862651 0
M  V30 13 N 2.714951 1.318226 2.974916 0
M  V30 14 C 1.388619 1.618752 3.109818 0
M  V30 15 C 0.776463 2.319450 2.077274 0
M  V30 16 C -0.695003 2.592373 2.260194 0
M  V30 17 C -1.481202 1.534027 1.450085 0
M  V30 18 C -2.919737 1.685478 1.837349 0
M  V30 19 N -3.376929 2.955996 1.280387 0
M  V30 20 C -2.631850 3.996609 1.949719 0
M  V30 21 C -1.139361 3.908913 1.733499 0
M  V30 22 C 1.487341 2.694842 0.964767 0
M  V30 23 N 2.814496 2.377807 0.861392 0
M  V30 24 C 3.702337 -0.984201 1.296771 0
M  V30 25 C 1.554640 -2.031534 -0.205024 0
M  V30 26 C 0.306813 -2.341749 -0.714869 0
M  V30 27 C -0.192055 -3.622471 -0.441536 0
M  V30 28 O -1.409119 -4.034324 -0.890915 0
M  V30 29 C -2.327430 -3.313616 -1.630594 0
M  V30 30 C -2.632176 -3.944756 -3.000975 0
M  V30 31 C -3.494030 -2.943198 -3.744291 0
M  V30 32 O -3.889155 -1.899744 -2.885508 0
M  V30 33 C -4.620316 -2.453845 -1.853535 0
M  V30 34 C -3.675330 -3.197746 -0.918189 0
M  V30 35 H 2.473995 -4.759167 1.389953 0
M  V30 36 H 4.833554 -4.039417 0.892848 0
M  V30 37 H 6.893367 -2.828126 1.700206 0
M  V30 38 H 5.625608 1.572965 2.401541 0
M  V30 39 H 0.794340 1.330616 3.985376 0
M  V30 40 H -1.018493 2.443019 3.286040 0
M  V30 41 H -1.044869 0.543233 1.629796 0
M  V30 42 H -1.301364 1.849863 0.380498 0
M  V30 43 H -3.522625 0.831487 1.483977 0
M  V30 44 H -2.955267 1.755087 2.954842 0
M  V30 45 H -4.390931 3.118184 1.553096 0
M  V30 46 H -2.798564 3.810733 3.048733 0
M  V30 47 H -3.075484 4.959784 1.687575 0
M  V30 48 H -0.846015 4.091470 0.680439 0
M  V30 49 H -0.673763 4.725162 2.313696 0
M  V30 50 H 1.025455 3.235516 0.173924 0
M  V30 51 H 2.782211 -0.410881 1.197363 0
M  V30 52 H 1.892461 -1.021232 -0.459766 0
M  V30 53 H -0.224976 -1.609287 -1.290835 0
M  V30 54 H -1.985084 -2.291768 -1.836724 0
M  V30 55 H -3.204742 -4.893459 -2.835645 0
M  V30 56 H -1.693674 -4.059170 -3.538477 0
M  V30 57 H -2.945289 -2.447059 -4.585976 0
M  V30 58 H -4.419114 -3.370079 -4.161681 0
M  V30 59 H -5.385531 -3.131746 -2.310851 0
M  V30 60 H -5.177373 -1.640318 -1.340575 0
M  V30 61 H -3.582224 -2.592036 -0.001255 0
M  V30 62 H -4.094604 -4.181343 -0.645917 0
M  V30 END ATOM
M  V30 BEGIN BOND
M  V30 1 3 1 2
M  V30 2 1 2 3
M  V30 3 2 3 4
M  V30 4 1 4 5
M  V30 5 1 5 6
M  V30 6 2 6 7
M  V30 7 1 7 8
M  V30 8 2 8 9
M  V30 9 1 9 10
M  V30 10 1 10 11
M  V30 11 1 11 12
M  V30 12 2 12 13
M  V30 13 1 13 14
M  V30 14 2 14 15
M  V30 15 1 15 16
M  V30 16 1 16 17
M  V30 17 1 17 18
M  V30 18 1 18 19
M  V30 19 1 19 20
M  V30 20 1 20 21
M  V30 21 1 15 22
M  V30 22 2 22 23
M  V30 23 2 10 24
M  V30 24 2 5 25
M  V30 25 1 25 26
M  V30 26 2 26 27
M  V30 27 1 27 28
M  V30 28 1 28 29
M  V30 29 1 29 30
M  V30 30 1 30 31
M  V30 31 1 31 32
M  V30 32 1 32 33
M  V30 33 1 33 34
M  V30 34 1 27 3
M  V30 35 1 34 29
M  V30 36 1 24 6
M  V30 37 1 23 12
M  V30 38 1 21 16
M  V30 39 1 4 35
M  V30 40 1 7 36
M  V30 41 1 8 37
M  V30 42 1 11 38
M  V30 43 1 14 39
M  V30 44 1 16 40
M  V30 45 1 17 41
M  V30 46 1 17 42
M  V30 47 1 18 43
M  V30 48 1 18 44
M  V30 49 1 19 45
M  V30 50 1 20 46
M  V30 51 1 20 47
M  V30 52 1 21 48
M  V30 53 1 21 49
M  V30 54 1 22 50
M  V30 55 1 24 51
M  V30 56 1 25 52
M  V30 57 1 26 53
M  V30 58 1 29 54
M  V30 59 1 30 55
M  V30 60 1 30 56
M  V30 61 1 31 57
M  V30 62 1 31 58
M  V30 63 1 33 59
M  V30 64 1 33 60
M  V30 65 1 34 61
M  V30 66 1 34 62
M  V30 END BOND
M  V30 END CTAB
M  END
>  <Dataset>  (438) 
ChEMBL_Kinases

>  <Ligand_Instance>  (438) 
nan

>  <PDB_ID>  (438) 
nan

>  <Standardized_SMILES>  (438) 
N#Cc1cc(-c2ccnc(Nc3ncc(C4CCNCC4)cn3)c2)ccc1OC1CCOCC1

>  <Name>  (438) 
nan

>  <Pocket>  (438) 
nan

>  <ATP_Site>  (438) 
nan

>  <Peripheral>  (438) 
nan

>  <Num_H_Atoms_ProtBoundConf>  (438) 
nan

>  <Num_Resolved_Atoms>  (438) 
nan

>  <Num_Not_Resolved_Atoms>  (438) 
nan

$$$$
CHEMBL3682423
     RDKit          3D

  0  0  0  0  0  0  0  0  0  0999 V3000
M  V30 BEGIN CTAB
M  V30 COUNTS 59 63 0 0 0
M  V30 BEGIN ATOM
M  V30 1 N -2.642057 -1.632782 0.730414 0
M  V30 2 C -1.692073 -1.811819 0.107811 0
M  V30 3 C -0.504589 -2.011283 -0.658086 0
M  V30 4 C 0.454384 -1.028610 -0.700938 0
M  V30 5 C 1.608185 -1.193019 -1.431709 0
M  V30 6 C 2.567205 -0.111345 -1.426551 0
M  V30 7 C 3.748340 -0.166598 -2.119160 0
M  V30 8 C 4.679800 0.836134 -2.139501 0
M  V30 9 N 4.396751 1.926236 -1.432174 0
M  V30 10 C 3.236608 2.044512 -0.719554 0
M  V30 11 N 3.077386 3.264618 -0.016888 0
M  V30 12 C 2.012960 3.707048 0.806827 0
M  V30 13 C 1.814391 4.899110 1.516061 0
M  V30 14 N 0.631194 4.801765 2.137611 0
M  V30 15 N 0.024501 3.663961 1.911683 0
M  V30 16 C -1.253005 3.167079 2.386153 0
M  V30 17 C -1.082123 2.419227 3.691976 0 CFG=1
M  V30 18 C -0.189610 1.217581 3.703696 0
M  V30 19 C 0.255122 2.452461 4.401679 0 CFG=2
M  V30 20 C 0.280729 2.436343 5.908080 0
M  V30 21 O 1.588483 2.471086 6.423311 0
M  V30 22 C 0.861440 2.992546 1.101513 0
M  V30 23 N 2.362960 1.025513 -0.740031 0
M  V30 24 C 1.768663 -2.373499 -2.116943 0
M  V30 25 C 0.760683 -3.351713 -2.044186 0
M  V30 26 C -0.433496 -3.213981 -1.304383 0
M  V30 27 O -1.131994 -4.329298 -1.474835 0
M  V30 28 C -2.344922 -4.734437 -0.997257 0
M  V30 29 C -2.264486 -6.055411 -0.225380 0
M  V30 30 C -3.426071 -6.958581 -0.569576 0
M  V30 31 O -3.382784 -7.394914 -1.890799 0
M  V30 32 C -2.835396 -6.400746 -2.704100 0
M  V30 33 C -3.311610 -5.070516 -2.164990 0
M  V30 34 H 0.267096 -0.142292 -0.148823 0
M  V30 35 H 4.046477 -1.027414 -2.719685 0
M  V30 36 H 5.615318 0.799732 -2.684181 0
M  V30 37 H 3.820247 4.003897 -0.065614 0
M  V30 38 H 2.541356 5.703824 1.507266 0
M  V30 39 H -1.927652 4.026150 2.511171 0
M  V30 40 H -1.667021 2.431885 1.653394 0
M  V30 41 H -1.982833 2.338136 4.337222 0
M  V30 42 H 0.281912 0.868446 2.784477 0
M  V30 43 H -0.477729 0.358074 4.367768 0
M  V30 44 H 0.975650 3.158391 3.947962 0
M  V30 45 H -0.304057 3.283546 6.320181 0
M  V30 46 H -0.159276 1.462474 6.256910 0
M  V30 47 H 2.245556 2.138231 5.757128 0
M  V30 48 H 0.676799 2.015659 0.716717 0
M  V30 49 H 2.674981 -2.468467 -2.673538 0
M  V30 50 H 1.085856 -4.211340 -2.660143 0
M  V30 51 H -2.800121 -3.993160 -0.345919 0
M  V30 52 H -1.331211 -6.591316 -0.394331 0
M  V30 53 H -2.380594 -5.847220 0.878853 0
M  V30 54 H -4.408950 -6.554050 -0.316718 0
M  V30 55 H -3.284935 -7.889020 0.056096 0
M  V30 56 H -1.733431 -6.483455 -2.612986 0
M  V30 57 H -3.138730 -6.526417 -3.762484 0
M  V30 58 H -4.321986 -5.098363 -1.731889 0
M  V30 59 H -3.279422 -4.257540 -2.919059 0
M  V30 END ATOM
M  V30 BEGIN BOND
M  V30 1 3 1 2
M  V30 2 1 2 3
M  V30 3 2 3 4
M  V30 4 1 4 5
M  V30 5 1 5 6
M  V30 6 2 6 7
M  V30 7 1 7 8
M  V30 8 2 8 9
M  V30 9 1 9 10
M  V30 10 1 10 11
M  V30 11 1 11 12
M  V30 12 1 12 13
M  V30 13 2 13 14
M  V30 14 1 14 15
M  V30 15 1 15 16
M  V30 16 1 16 17
M  V30 17 1 17 18
M  V30 18 1 18 19
M  V30 19 1 19 20
M  V30 20 1 20 21
M  V30 21 1 15 22
M  V30 22 2 10 23
M  V30 23 2 5 24
M  V30 24 1 24 25
M  V30 25 2 25 26
M  V30 26 1 26 27
M  V30 27 1 27 28
M  V30 28 1 28 29
M  V30 29 1 29 30
M  V30 30 1 30 31
M  V30 31 1 31 32
M  V30 32 1 32 33
M  V30 33 1 26 3
M  V30 34 1 33 28
M  V30 35 1 23 6
M  V30 36 2 22 12
M  V30 37 1 19 17
M  V30 38 1 4 34
M  V30 39 1 7 35
M  V30 40 1 8 36
M  V30 41 1 11 37
M  V30 42 1 13 38
M  V30 43 1 16 39
M  V30 44 1 16 40
M  V30 45 1 17 41 CFG=1
M  V30 46 1 18 42
M  V30 47 1 18 43
M  V30 48 1 19 44 CFG=3
M  V30 49 1 20 45
M  V30 50 1 20 46
M  V30 51 1 21 47
M  V30 52 1 22 48
M  V30 53 1 24 49
M  V30 54 1 25 50
M  V30 55 1 28 51
M  V30 56 1 29 52
M  V30 57 1 29 53
M  V30 58 1 30 54
M  V30 59 1 30 55
M  V30 60 1 32 56
M  V30 61 1 32 57
M  V30 62 1 33 58
M  V30 63 1 33 59
M  V30 END BOND
M  V30 END CTAB
M  END
>  <Dataset>  (439) 
ChEMBL_Kinases

>  <Ligand_Instance>  (439) 
nan

>  <PDB_ID>  (439) 
nan

>  <Standardized_SMILES>  (439) 
N#Cc1cc(-c2ccnc(Nc3cnn(C[C@H]4C[C@@H]4CO)c3)n2)ccc1OC1CCOCC1

>  <Name>  (439) 
nan

>  <Pocket>  (439) 
nan

>  <ATP_Site>  (439) 
nan

>  <Peripheral>  (439) 
nan

>  <Num_H_Atoms_ProtBoundConf>  (439) 
nan

>  <Num_Resolved_Atoms>  (439) 
nan

>  <Num_Not_Resolved_Atoms>  (439) 
nan

$$$$
CHEMBL3682424
     RDKit          3D

  0  0  0  0  0  0  0  0  0  0999 V3000
M  V30 BEGIN CTAB
M  V30 COUNTS 50 53 0 0 0
M  V30 BEGIN ATOM
M  V30 1 C 1.958457 -8.034976 -1.418458 0
M  V30 2 N 1.928984 -6.648331 -1.820477 0
M  V30 3 N 2.554694 -5.713068 -1.126482 0
M  V30 4 C 2.539572 -4.421750 -1.483688 0
M  V30 5 N 3.251629 -3.549025 -0.625405 0
M  V30 6 C 3.488313 -2.151031 -0.669904 0
M  V30 7 N 4.562594 -1.475826 -1.100022 0
M  V30 8 C 4.632659 -0.138203 -1.072835 0
M  V30 9 C 3.499120 0.511073 -0.559224 0
M  V30 10 C 2.369676 -0.148968 -0.104206 0
M  V30 11 C 1.256486 0.614318 0.447726 0
M  V30 12 C 1.165024 1.988148 0.531190 0
M  V30 13 C 0.062657 2.562496 1.116951 0
M  V30 14 C -0.968875 1.814752 1.632849 0
M  V30 15 O -2.112960 2.242653 2.241666 0
M  V30 16 C -2.440628 3.601279 2.445430 0
M  V30 17 C -2.347578 3.766955 3.983985 0
M  V30 18 C -3.125832 2.616590 4.591757 0
M  V30 19 O -3.735540 1.825959 3.640514 0
M  V30 20 C -4.538616 2.471154 2.730941 0
M  V30 21 C -3.928451 3.769266 2.189383 0
M  V30 22 C -0.895328 0.413044 1.557864 0
M  V30 23 C -1.911143 -0.438702 2.068152 0
M  V30 24 N -2.758409 -1.144728 2.480872 0
M  V30 25 C 0.222971 -0.163566 0.962305 0
M  V30 26 N 2.419888 -1.520793 -0.187086 0
M  V30 27 C 1.883845 -3.929099 -2.591473 0
M  V30 28 C 1.228922 -4.936643 -3.310647 0
M  V30 29 C 1.257108 -6.284828 -2.919903 0
M  V30 30 O 0.626818 -7.089553 -3.655012 0
M  V30 31 H 0.918354 -8.381720 -1.260215 0
M  V30 32 H 2.384671 -8.690133 -2.229911 0
M  V30 33 H 2.574960 -8.127863 -0.485534 0
M  V30 34 H 3.752013 -3.825146 0.244550 0
M  V30 35 H 5.510641 0.377194 -1.426148 0
M  V30 36 H 3.622512 1.581387 -0.565729 0
M  V30 37 H 1.994976 2.518654 0.140768 0
M  V30 38 H -0.026951 3.632480 1.190961 0
M  V30 39 H -1.798477 4.322583 1.949331 0
M  V30 40 H -1.286704 3.779636 4.230556 0
M  V30 41 H -2.831748 4.710410 4.300429 0
M  V30 42 H -2.368444 1.965215 5.077613 0
M  V30 43 H -3.827039 2.931694 5.389740 0
M  V30 44 H -5.585826 2.648962 3.080148 0
M  V30 45 H -4.634220 1.802205 1.850099 0
M  V30 46 H -4.110557 3.895369 1.125109 0
M  V30 47 H -4.335246 4.639950 2.753126 0
M  V30 48 H 0.256594 -1.263264 0.916275 0
M  V30 49 H 1.875548 -2.900900 -2.872299 0
M  V30 50 H 0.670407 -4.666751 -4.216370 0
M  V30 END ATOM
M  V30 BEGIN BOND
M  V30 1 1 1 2
M  V30 2 1 2 3
M  V30 3 2 3 4
M  V30 4 1 4 5
M  V30 5 1 5 6
M  V30 6 2 6 7
M  V30 7 1 7 8
M  V30 8 2 8 9
M  V30 9 1 9 10
M  V30 10 1 10 11
M  V30 11 2 11 12
M  V30 12 1 12 13
M  V30 13 2 13 14
M  V30 14 1 14 15
M  V30 15 1 15 16
M  V30 16 1 16 17
M  V30 17 1 17 18
M  V30 18 1 18 19
M  V30 19 1 19 20
M  V30 20 1 20 21
M  V30 21 1 14 22
M  V30 22 1 22 23
M  V30 23 3 23 24
M  V30 24 2 22 25
M  V30 25 2 10 26
M  V30 26 1 4 27
M  V30 27 2 27 28
M  V30 28 1 28 29
M  V30 29 2 29 30
M  V30 30 1 29 2
M  V30 31 1 26 6
M  V30 32 1 25 11
M  V30 33 1 21 16
M  V30 34 1 1 31
M  V30 35 1 1 32
M  V30 36 1 1 33
M  V30 37 1 5 34
M  V30 38 1 8 35
M  V30 39 1 9 36
M  V30 40 1 12 37
M  V30 41 1 13 38
M  V30 42 1 16 39
M  V30 43 1 17 40
M  V30 44 1 17 41
M  V30 45 1 18 42
M  V30 46 1 18 43
M  V30 47 1 20 44
M  V30 48 1 20 45
M  V30 49 1 21 46
M  V30 50 1 21 47
M  V30 51 1 25 48
M  V30 52 1 27 49
M  V30 53 1 28 50
M  V30 END BOND
M  V30 END CTAB
M  END
>  <Dataset>  (440) 
ChEMBL_Kinases

>  <Ligand_Instance>  (440) 
nan

>  <PDB_ID>  (440) 
nan

>  <Standardized_SMILES>  (440) 
Cn1nc(Nc2nccc(-c3ccc(OC4CCOCC4)c(C#N)c3)n2)ccc1=O

>  <Name>  (440) 
nan

>  <Pocket>  (440) 
nan

>  <ATP_Site>  (440) 
nan

>  <Peripheral>  (440) 
nan

>  <Num_H_Atoms_ProtBoundConf>  (440) 
nan

>  <Num_Resolved_Atoms>  (440) 
nan

>  <Num_Not_Resolved_Atoms>  (440) 
nan

$$$$
CHEMBL3682425
     RDKit          3D

  0  0  0  0  0  0  0  0  0  0999 V3000
M  V30 BEGIN CTAB
M  V30 COUNTS 47 50 0 0 0
M  V30 BEGIN ATOM
M  V30 1 N 1.153498 -5.605383 -0.447376 0
M  V30 2 C 0.885480 -4.483423 -0.246885 0
M  V30 3 C 0.570527 -3.100245 0.006392 0
M  V30 4 C 1.549108 -2.169668 -0.280103 0
M  V30 5 C 1.342145 -0.819850 -0.071116 0
M  V30 6 C 2.303275 0.241488 -0.344621 0
M  V30 7 C 3.558550 0.004096 -0.860369 0
M  V30 8 C 4.498198 0.989820 -1.137657 0
M  V30 9 N 4.095853 2.250365 -0.861702 0
M  V30 10 C 2.880881 2.530179 -0.357920 0
M  V30 11 N 2.465857 3.859433 -0.079785 0
M  V30 12 C 2.548139 4.813358 0.971046 0
M  V30 13 C 1.947304 6.054156 0.783964 0
M  V30 14 C 2.100723 6.889840 1.860713 0
M  V30 15 C 2.763244 6.604431 3.034816 0
M  V30 16 O 2.864162 7.421684 3.982078 0
M  V30 17 N 3.305334 5.383366 3.113523 0
M  V30 18 N 3.193923 4.529414 2.110318 0
M  V30 19 N 2.018584 1.556189 -0.109531 0
M  V30 20 C 0.108941 -0.438011 0.439098 0
M  V30 21 C -0.856301 -1.380072 0.719089 0
M  V30 22 C -0.675129 -2.730817 0.519781 0
M  V30 23 O -1.545116 -3.765812 0.754371 0
M  V30 24 C -2.838785 -3.699880 1.256138 0
M  V30 25 C -3.049765 -4.514965 2.529752 0
M  V30 26 C -3.492171 -5.926434 2.114708 0
M  V30 27 O -4.787595 -5.861658 1.709572 0
M  V30 28 C -5.020825 -4.835983 0.852617 0
M  V30 29 C -3.830539 -4.193461 0.208006 0
M  V30 30 H 2.510564 -2.459049 -0.674344 0
M  V30 31 H 3.876581 -1.009767 -1.080750 0
M  V30 32 H 5.469867 0.722802 -1.545661 0
M  V30 33 H 1.984213 4.067792 -0.966133 0
M  V30 34 H 1.411116 6.349767 -0.109512 0
M  V30 35 H 1.659274 7.886774 1.800199 0
M  V30 36 H 3.813712 5.156252 4.006693 0
M  V30 37 H -0.127571 0.599627 0.628623 0
M  V30 38 H -1.821411 -1.103819 1.116600 0
M  V30 39 H -3.093342 -2.645841 1.467912 0
M  V30 40 H -2.148694 -4.643493 3.126252 0
M  V30 41 H -3.874081 -4.092006 3.140668 0
M  V30 42 H -3.376147 -6.559554 3.032498 0
M  V30 43 H -2.784307 -6.326603 1.363747 0
M  V30 44 H -5.744162 -5.200770 0.072446 0
M  V30 45 H -5.626126 -4.071570 1.423639 0
M  V30 46 H -4.200568 -3.307712 -0.347490 0
M  V30 47 H -3.396334 -4.909260 -0.502705 0
M  V30 END ATOM
M  V30 BEGIN BOND
M  V30 1 3 1 2
M  V30 2 1 2 3
M  V30 3 2 3 4
M  V30 4 1 4 5
M  V30 5 1 5 6
M  V30 6 2 6 7
M  V30 7 1 7 8
M  V30 8 2 8 9
M  V30 9 1 9 10
M  V30 10 1 10 11
M  V30 11 1 11 12
M  V30 12 1 12 13
M  V30 13 2 13 14
M  V30 14 1 14 15
M  V30 15 2 15 16
M  V30 16 1 15 17
M  V30 17 1 17 18
M  V30 18 2 10 19
M  V30 19 2 5 20
M  V30 20 1 20 21
M  V30 21 2 21 22
M  V30 22 1 22 23
M  V30 23 1 23 24
M  V30 24 1 24 25
M  V30 25 1 25 26
M  V30 26 1 26 27
M  V30 27 1 27 28
M  V30 28 1 28 29
M  V30 29 1 22 3
M  V30 30 1 29 24
M  V30 31 1 19 6
M  V30 32 2 18 12
M  V30 33 1 4 30
M  V30 34 1 7 31
M  V30 35 1 8 32
M  V30 36 1 11 33
M  V30 37 1 13 34
M  V30 38 1 14 35
M  V30 39 1 17 36
M  V30 40 1 20 37
M  V30 41 1 21 38
M  V30 42 1 24 39
M  V30 43 1 25 40
M  V30 44 1 25 41
M  V30 45 1 26 42
M  V30 46 1 26 43
M  V30 47 1 28 44
M  V30 48 1 28 45
M  V30 49 1 29 46
M  V30 50 1 29 47
M  V30 END BOND
M  V30 END CTAB
M  END
>  <Dataset>  (441) 
ChEMBL_Kinases

>  <Ligand_Instance>  (441) 
nan

>  <PDB_ID>  (441) 
nan

>  <Standardized_SMILES>  (441) 
N#Cc1cc(-c2ccnc(Nc3ccc(=O)[nH]n3)n2)ccc1OC1CCOCC1

>  <Name>  (441) 
nan

>  <Pocket>  (441) 
nan

>  <ATP_Site>  (441) 
nan

>  <Peripheral>  (441) 
nan

>  <Num_H_Atoms_ProtBoundConf>  (441) 
nan

>  <Num_Resolved_Atoms>  (441) 
nan

>  <Num_Not_Resolved_Atoms>  (441) 
nan

$$$$
CHEMBL3682426
     RDKit          3D

  0  0  0  0  0  0  0  0  0  0999 V3000
M  V30 BEGIN CTAB
M  V30 COUNTS 51 54 0 0 0
M  V30 BEGIN ATOM
M  V30 1 N -0.580556 -6.141191 -0.940425 0
M  V30 2 C -0.418134 -5.039206 -0.642015 0
M  V30 3 C -0.234410 -3.662863 -0.252852 0
M  V30 4 C 0.919351 -3.063962 -0.781255 0
M  V30 5 C 1.212837 -1.749668 -0.486391 0
M  V30 6 C 2.379690 -1.021748 -0.975759 0
M  V30 7 C 3.332714 -1.581685 -1.802069 0
M  V30 8 C 4.442398 -0.939336 -2.285994 0
M  V30 9 N 4.600607 0.354915 -1.910634 0
M  V30 10 C 3.681869 0.950172 -1.093554 0
M  V30 11 N 3.841418 2.309380 -0.695290 0
M  V30 12 C 2.925483 2.992615 0.153444 0
M  V30 13 C 3.119651 4.308818 0.512978 0
M  V30 14 C 2.218714 4.960116 1.340324 0
M  V30 15 C 2.444844 6.386004 1.719519 0
M  V30 16 O 1.827189 7.183892 0.780303 0
M  V30 17 C 1.122567 4.254748 1.793875 0
M  V30 18 C 0.920964 2.940237 1.439799 0
M  V30 19 N 1.832754 2.378840 0.638579 0
M  V30 20 N 2.614897 0.256291 -0.656433 0
M  V30 21 C 0.336631 -1.068245 0.334703 0
M  V30 22 C -0.798175 -1.651257 0.856681 0
M  V30 23 C -1.121477 -2.963974 0.581744 0
M  V30 24 O -2.177378 -3.761035 0.973331 0
M  V30 25 C -3.215077 -3.342862 1.801814 0
M  V30 26 C -3.274356 -4.164886 3.066386 0
M  V30 27 C -3.822518 -5.547150 2.754772 0
M  V30 28 O -5.151842 -5.360352 2.383586 0
M  V30 29 C -5.148255 -4.799692 1.107913 0
M  V30 30 C -4.568648 -3.407749 1.132702 0
M  V30 31 H 1.596577 -3.594557 -1.417333 0
M  V30 32 H 3.231984 -2.611200 -2.117005 0
M  V30 33 H 5.164996 -1.421435 -2.933805 0
M  V30 34 H 4.675204 2.835161 -1.043868 0
M  V30 35 H 3.999531 4.834174 0.133800 0
M  V30 36 H 3.525069 6.639216 1.754690 0
M  V30 37 H 1.979437 6.544836 2.733372 0
M  V30 38 H 2.457555 7.809596 0.379433 0
M  V30 39 H 0.425041 4.789795 2.445776 0
M  V30 40 H 0.055497 2.386236 1.799014 0
M  V30 41 H 0.425574 -0.040105 0.656785 0
M  V30 42 H -1.515767 -1.171846 1.500109 0
M  V30 43 H -3.069034 -2.289047 2.096214 0
M  V30 44 H -4.025059 -3.691657 3.762491 0
M  V30 45 H -2.314103 -4.183528 3.596388 0
M  V30 46 H -3.213472 -5.992324 1.956854 0
M  V30 47 H -3.841936 -6.126305 3.700902 0
M  V30 48 H -6.205969 -4.697480 0.779431 0
M  V30 49 H -4.582737 -5.389024 0.366217 0
M  V30 50 H -4.523379 -3.066166 0.069877 0
M  V30 51 H -5.261062 -2.700213 1.655541 0
M  V30 END ATOM
M  V30 BEGIN BOND
M  V30 1 3 1 2
M  V30 2 1 2 3
M  V30 3 2 3 4
M  V30 4 1 4 5
M  V30 5 1 5 6
M  V30 6 2 6 7
M  V30 7 1 7 8
M  V30 8 2 8 9
M  V30 9 1 9 10
M  V30 10 1 10 11
M  V30 11 1 11 12
M  V30 12 2 12 13
M  V30 13 1 13 14
M  V30 14 1 14 15
M  V30 15 1 15 16
M  V30 16 2 14 17
M  V30 17 1 17 18
M  V30 18 2 18 19
M  V30 19 2 10 20
M  V30 20 2 5 21
M  V30 21 1 21 22
M  V30 22 2 22 23
M  V30 23 1 23 24
M  V30 24 1 24 25
M  V30 25 1 25 26
M  V30 26 1 26 27
M  V30 27 1 27 28
M  V30 28 1 28 29
M  V30 29 1 29 30
M  V30 30 1 23 3
M  V30 31 1 30 25
M  V30 32 1 20 6
M  V30 33 1 19 12
M  V30 34 1 4 31
M  V30 35 1 7 32
M  V30 36 1 8 33
M  V30 37 1 11 34
M  V30 38 1 13 35
M  V30 39 1 15 36
M  V30 40 1 15 37
M  V30 41 1 16 38
M  V30 42 1 17 39
M  V30 43 1 18 40
M  V30 44 1 21 41
M  V30 45 1 22 42
M  V30 46 1 25 43
M  V30 47 1 26 44
M  V30 48 1 26 45
M  V30 49 1 27 46
M  V30 50 1 27 47
M  V30 51 1 29 48
M  V30 52 1 29 49
M  V30 53 1 30 50
M  V30 54 1 30 51
M  V30 END BOND
M  V30 END CTAB
M  END
>  <Dataset>  (442) 
ChEMBL_Kinases

>  <Ligand_Instance>  (442) 
nan

>  <PDB_ID>  (442) 
nan

>  <Standardized_SMILES>  (442) 
N#Cc1cc(-c2ccnc(Nc3cc(CO)ccn3)n2)ccc1OC1CCOCC1

>  <Name>  (442) 
nan

>  <Pocket>  (442) 
nan

>  <ATP_Site>  (442) 
nan

>  <Peripheral>  (442) 
nan

>  <Num_H_Atoms_ProtBoundConf>  (442) 
nan

>  <Num_Resolved_Atoms>  (442) 
nan

>  <Num_Not_Resolved_Atoms>  (442) 
nan

$$$$
CHEMBL3682427
     RDKit          3D

  0  0  0  0  0  0  0  0  0  0999 V3000
M  V30 BEGIN CTAB
M  V30 COUNTS 62 66 0 0 0
M  V30 BEGIN ATOM
M  V30 1 N -2.204480 -1.380132 1.322858 0
M  V30 2 C -1.366425 -1.769379 0.629689 0
M  V30 3 C -0.310160 -2.249063 -0.250005 0
M  V30 4 C 1.011169 -1.994148 0.142661 0
M  V30 5 C 2.099124 -2.411508 -0.626173 0
M  V30 6 C 3.444429 -2.112096 -0.166133 0
M  V30 7 C 4.584134 -2.867302 -0.382343 0
M  V30 8 C 5.774496 -2.416048 0.140205 0
M  V30 9 N 5.921008 -1.275051 0.860314 0
M  V30 10 C 4.831760 -0.487166 1.107460 0
M  V30 11 N 4.871216 0.732572 1.872430 0
M  V30 12 C 3.639335 1.434958 2.061279 0
M  V30 13 C 2.870333 0.775356 3.030300 0
M  V30 14 C 1.622768 1.316676 3.358793 0
M  V30 15 C 1.129530 2.479941 2.756808 0
M  V30 16 C -0.162692 3.106431 3.031100 0
M  V30 17 C -0.546267 2.956418 4.484776 0
M  V30 18 C -1.881716 3.583273 4.811720 0
M  V30 19 N -2.913775 3.281991 3.882335 0
M  V30 20 C -2.517159 3.277664 2.495969 0
M  V30 21 C -1.297661 2.417445 2.249831 0
M  V30 22 N 1.947409 3.056426 1.822982 0
M  V30 23 N 3.117293 2.541897 1.519352 0
M  V30 24 C 3.634704 -0.954120 0.573063 0
M  V30 25 C 1.816896 -3.092784 -1.799772 0
M  V30 26 C 0.510597 -3.350763 -2.197657 0
M  V30 27 C -0.573834 -2.940148 -1.441912 0
M  V30 28 O -1.906816 -3.090924 -1.651305 0
M  V30 29 C -2.571874 -3.748604 -2.692191 0
M  V30 30 C -3.329997 -2.827647 -3.593951 0
M  V30 31 C -4.817365 -2.765516 -3.242201 0
M  V30 32 O -5.428814 -3.990738 -3.426962 0
M  V30 33 C -4.555340 -5.060073 -3.248098 0
M  V30 34 C -3.519971 -4.810804 -2.183515 0
M  V30 35 H 1.166732 -1.459083 1.076432 0
M  V30 36 H 4.460919 -3.765564 -0.949371 0
M  V30 37 H 6.673927 -3.015432 -0.033473 0
M  V30 38 H 5.799923 1.034524 2.242135 0
M  V30 39 H 3.150854 -0.141672 3.572763 0
M  V30 40 H 1.003379 0.834442 4.097681 0
M  V30 41 H -0.219002 4.181386 2.697320 0
M  V30 42 H 0.216208 3.462226 5.116195 0
M  V30 43 H -0.603096 1.869766 4.711899 0
M  V30 44 H -2.195257 3.185875 5.801881 0
M  V30 45 H -1.708237 4.675428 4.965513 0
M  V30 46 H -3.601515 2.562677 4.154925 0
M  V30 47 H -2.321977 4.301589 2.112435 0
M  V30 48 H -3.388485 2.888167 1.910806 0
M  V30 49 H -1.083465 2.393340 1.187124 0
M  V30 50 H -1.463066 1.425531 2.728741 0
M  V30 51 H 2.783198 -0.319998 0.771493 0
M  V30 52 H 2.630599 -3.430905 -2.420129 0
M  V30 53 H 0.237057 -3.866608 -3.083264 0
M  V30 54 H -1.796018 -4.270543 -3.324532 0
M  V30 55 H -2.957558 -1.770009 -3.455559 0
M  V30 56 H -3.203279 -3.127383 -4.642038 0
M  V30 57 H -5.269027 -2.058896 -3.990098 0
M  V30 58 H -4.989681 -2.305717 -2.255212 0
M  V30 59 H -4.019468 -5.210417 -4.207844 0
M  V30 60 H -5.103440 -6.008900 -3.041568 0
M  V30 61 H -4.000943 -4.508735 -1.216423 0
M  V30 62 H -2.922321 -5.744364 -2.095832 0
M  V30 END ATOM
M  V30 BEGIN BOND
M  V30 1 3 1 2
M  V30 2 1 2 3
M  V30 3 2 3 4
M  V30 4 1 4 5
M  V30 5 1 5 6
M  V30 6 2 6 7
M  V30 7 1 7 8
M  V30 8 2 8 9
M  V30 9 1 9 10
M  V30 10 1 10 11
M  V30 11 1 11 12
M  V30 12 2 12 13
M  V30 13 1 13 14
M  V30 14 2 14 15
M  V30 15 1 15 16
M  V30 16 1 16 17
M  V30 17 1 17 18
M  V30 18 1 18 19
M  V30 19 1 19 20
M  V30 20 1 20 21
M  V30 21 1 15 22
M  V30 22 2 22 23
M  V30 23 2 10 24
M  V30 24 2 5 25
M  V30 25 1 25 26
M  V30 26 2 26 27
M  V30 27 1 27 28
M  V30 28 1 28 29
M  V30 29 1 29 30
M  V30 30 1 30 31
M  V30 31 1 31 32
M  V30 32 1 32 33
M  V30 33 1 33 34
M  V30 34 1 27 3
M  V30 35 1 34 29
M  V30 36 1 24 6
M  V30 37 1 23 12
M  V30 38 1 21 16
M  V30 39 1 4 35
M  V30 40 1 7 36
M  V30 41 1 8 37
M  V30 42 1 11 38
M  V30 43 1 13 39
M  V30 44 1 14 40
M  V30 45 1 16 41
M  V30 46 1 17 42
M  V30 47 1 17 43
M  V30 48 1 18 44
M  V30 49 1 18 45
M  V30 50 1 19 46
M  V30 51 1 20 47
M  V30 52 1 20 48
M  V30 53 1 21 49
M  V30 54 1 21 50
M  V30 55 1 24 51
M  V30 56 1 25 52
M  V30 57 1 26 53
M  V30 58 1 29 54
M  V30 59 1 30 55
M  V30 60 1 30 56
M  V30 61 1 31 57
M  V30 62 1 31 58
M  V30 63 1 33 59
M  V30 64 1 33 60
M  V30 65 1 34 61
M  V30 66 1 34 62
M  V30 END BOND
M  V30 END CTAB
M  END
>  <Dataset>  (443) 
ChEMBL_Kinases

>  <Ligand_Instance>  (443) 
nan

>  <PDB_ID>  (443) 
nan

>  <Standardized_SMILES>  (443) 
N#Cc1cc(-c2ccnc(Nc3ccc(C4CCNCC4)nn3)c2)ccc1OC1CCOCC1

>  <Name>  (443) 
nan

>  <Pocket>  (443) 
nan

>  <ATP_Site>  (443) 
nan

>  <Peripheral>  (443) 
nan

>  <Num_H_Atoms_ProtBoundConf>  (443) 
nan

>  <Num_Resolved_Atoms>  (443) 
nan

>  <Num_Not_Resolved_Atoms>  (443) 
nan

$$$$
CHEMBL3682428
     RDKit          3D

  0  0  0  0  0  0  0  0  0  0999 V3000
M  V30 BEGIN CTAB
M  V30 COUNTS 62 66 0 0 0
M  V30 BEGIN ATOM
M  V30 1 N -2.454391 -2.229220 0.319121 0
M  V30 2 C -1.378388 -2.560576 0.066370 0
M  V30 3 C -0.038913 -2.955078 -0.228409 0
M  V30 4 C 0.987182 -2.462630 0.538571 0
M  V30 5 C 2.276000 -2.847711 0.248254 0
M  V30 6 C 3.332326 -2.302243 1.085435 0
M  V30 7 C 4.452648 -3.065712 1.300085 0
M  V30 8 C 5.440204 -2.508918 2.105649 0
M  V30 9 N 5.296351 -1.302278 2.633742 0
M  V30 10 C 4.210344 -0.518450 2.447664 0
M  V30 11 N 4.086434 0.789362 3.036759 0
M  V30 12 C 2.903600 1.537247 2.786751 0
M  V30 13 C 1.947970 1.262248 3.757957 0
M  V30 14 N 0.723881 1.833093 3.770215 0
M  V30 15 C 0.392799 2.724636 2.789933 0
M  V30 16 C -0.940085 3.374563 2.765531 0
M  V30 17 C -1.733834 2.988185 1.538199 0
M  V30 18 C -3.045776 3.763554 1.642202 0
M  V30 19 N -2.672743 5.166461 1.426387 0
M  V30 20 C -2.047286 5.618545 2.653235 0
M  V30 21 C -0.788617 4.858533 2.906424 0
M  V30 22 C 1.352857 2.985009 1.835442 0
M  V30 23 N 2.577165 2.428193 1.804303 0
M  V30 24 C 3.213255 -1.048264 1.650507 0
M  V30 25 C 2.496354 -3.725116 -0.815093 0
M  V30 26 C 1.407277 -4.186110 -1.552062 0
M  V30 27 C 0.078647 -3.814275 -1.284251 0
M  V30 28 O -0.681872 -4.439109 -2.177361 0
M  V30 29 C -2.013083 -4.465621 -2.410651 0
M  V30 30 C -2.375432 -4.009177 -3.837829 0
M  V30 31 C -3.868543 -3.990895 -3.930734 0
M  V30 32 O -4.478307 -4.405088 -2.747482 0
M  V30 33 C -4.115322 -5.706216 -2.480290 0
M  V30 34 C -2.618618 -5.877471 -2.285770 0
M  V30 35 H 0.740679 -1.788735 1.343877 0
M  V30 36 H 4.587729 -4.048802 0.879430 0
M  V30 37 H 6.333924 -3.105319 2.283115 0
M  V30 38 H 4.893598 1.103699 3.620009 0
M  V30 39 H 2.038956 0.584170 4.605169 0
M  V30 40 H -1.530722 3.007965 3.632712 0
M  V30 41 H -1.953712 1.907547 1.586277 0
M  V30 42 H -1.260690 3.313984 0.590832 0
M  V30 43 H -3.762504 3.411936 0.871681 0
M  V30 44 H -3.474218 3.722858 2.659422 0
M  V30 45 H -3.477737 5.763156 1.178140 0
M  V30 46 H -2.777995 5.451636 3.477067 0
M  V30 47 H -1.792922 6.698166 2.564605 0
M  V30 48 H 0.050059 5.272876 2.282413 0
M  V30 49 H -0.472446 5.063672 3.968998 0
M  V30 50 H 1.133335 3.673966 1.054831 0
M  V30 51 H 2.324287 -0.428148 1.487295 0
M  V30 52 H 3.541855 -3.942934 -0.932303 0
M  V30 53 H 1.821967 -4.849493 -2.319224 0
M  V30 54 H -2.600548 -3.851812 -1.740278 0
M  V30 55 H -1.934231 -4.738473 -4.548635 0
M  V30 56 H -1.993987 -2.990285 -3.950633 0
M  V30 57 H -4.281793 -3.012569 -4.238170 0
M  V30 58 H -4.220931 -4.722493 -4.708525 0
M  V30 59 H -4.434059 -6.327435 -3.350375 0
M  V30 60 H -4.694496 -6.107561 -1.611578 0
M  V30 61 H -2.377729 -6.291258 -1.287960 0
M  V30 62 H -2.150930 -6.502030 -3.073288 0
M  V30 END ATOM
M  V30 BEGIN BOND
M  V30 1 3 1 2
M  V30 2 1 2 3
M  V30 3 2 3 4
M  V30 4 1 4 5
M  V30 5 1 5 6
M  V30 6 2 6 7
M  V30 7 1 7 8
M  V30 8 2 8 9
M  V30 9 1 9 10
M  V30 10 1 10 11
M  V30 11 1 11 12
M  V30 12 2 12 13
M  V30 13 1 13 14
M  V30 14 2 14 15
M  V30 15 1 15 16
M  V30 16 1 16 17
M  V30 17 1 17 18
M  V30 18 1 18 19
M  V30 19 1 19 20
M  V30 20 1 20 21
M  V30 21 1 15 22
M  V30 22 2 22 23
M  V30 23 2 10 24
M  V30 24 2 5 25
M  V30 25 1 25 26
M  V30 26 2 26 27
M  V30 27 1 27 28
M  V30 28 1 28 29
M  V30 29 1 29 30
M  V30 30 1 30 31
M  V30 31 1 31 32
M  V30 32 1 32 33
M  V30 33 1 33 34
M  V30 34 1 27 3
M  V30 35 1 34 29
M  V30 36 1 24 6
M  V30 37 1 23 12
M  V30 38 1 21 16
M  V30 39 1 4 35
M  V30 40 1 7 36
M  V30 41 1 8 37
M  V30 42 1 11 38
M  V30 43 1 13 39
M  V30 44 1 16 40
M  V30 45 1 17 41
M  V30 46 1 17 42
M  V30 47 1 18 43
M  V30 48 1 18 44
M  V30 49 1 19 45
M  V30 50 1 20 46
M  V30 51 1 20 47
M  V30 52 1 21 48
M  V30 53 1 21 49
M  V30 54 1 22 50
M  V30 55 1 24 51
M  V30 56 1 25 52
M  V30 57 1 26 53
M  V30 58 1 29 54
M  V30 59 1 30 55
M  V30 60 1 30 56
M  V30 61 1 31 57
M  V30 62 1 31 58
M  V30 63 1 33 59
M  V30 64 1 33 60
M  V30 65 1 34 61
M  V30 66 1 34 62
M  V30 END BOND
M  V30 END CTAB
M  END
>  <Dataset>  (444) 
ChEMBL_Kinases

>  <Ligand_Instance>  (444) 
nan

>  <PDB_ID>  (444) 
nan

>  <Standardized_SMILES>  (444) 
N#Cc1cc(-c2ccnc(Nc3cnc(C4CCNCC4)cn3)c2)ccc1OC1CCOCC1

>  <Name>  (444) 
nan

>  <Pocket>  (444) 
nan

>  <ATP_Site>  (444) 
nan

>  <Peripheral>  (444) 
nan

>  <Num_H_Atoms_ProtBoundConf>  (444) 
nan

>  <Num_Resolved_Atoms>  (444) 
nan

>  <Num_Not_Resolved_Atoms>  (444) 
nan

$$$$
CHEMBL3682429
     RDKit          3D

  0  0  0  0  0  0  0  0  0  0999 V3000
M  V30 BEGIN CTAB
M  V30 COUNTS 62 66 0 0 0
M  V30 BEGIN ATOM
M  V30 1 N -2.485069 -6.158237 2.927115 0
M  V30 2 C -1.917342 -5.228703 2.527770 0
M  V30 3 C -1.202763 -4.073402 2.007377 0
M  V30 4 C 0.177082 -4.029859 2.180759 0
M  V30 5 C 0.956174 -2.989689 1.731853 0
M  V30 6 C 2.397612 -2.909573 1.893977 0
M  V30 7 C 3.080888 -3.919903 2.536025 0
M  V30 8 C 4.441186 -3.874435 2.705463 0
M  V30 9 N 5.112112 -2.828875 2.237390 0
M  V30 10 C 4.481300 -1.828112 1.607941 0
M  V30 11 N 5.250691 -0.736725 1.129354 0
M  V30 12 C 4.844648 0.437055 0.437332 0
M  V30 13 C 5.581633 1.523955 -0.040708 0
M  V30 14 N 4.725299 2.357625 -0.615867 0
M  V30 15 N 3.481549 1.918751 -0.561554 0
M  V30 16 C 2.337007 2.644761 -1.119675 0 CFG=1
M  V30 17 C 1.289091 1.629931 -1.441096 0
M  V30 18 C -0.011839 2.254144 -1.887656 0
M  V30 19 C -0.544321 3.232173 -0.868741 0 CFG=1
M  V30 20 O -1.720756 2.670086 -0.342206 0
M  V30 21 C 0.397079 3.412834 0.295644 0
M  V30 22 C 1.818406 3.591807 -0.094001 0
M  V30 23 C 3.552514 0.758257 0.074540 0
M  V30 24 N 3.150779 -1.897100 1.455543 0
M  V30 25 C 0.257166 -1.988268 1.093189 0
M  V30 26 C -1.092650 -1.986336 0.899759 0
M  V30 27 C -1.871056 -3.030960 1.351034 0
M  V30 28 O -3.239262 -3.221221 1.258456 0
M  V30 29 C -4.162328 -2.364668 0.670468 0
M  V30 30 C -5.329803 -2.031863 1.578737 0
M  V30 31 C -6.588775 -1.713315 0.802620 0
M  V30 32 O -6.192667 -1.172613 -0.420642 0
M  V30 33 C -5.779761 -2.231025 -1.234251 0
M  V30 34 C -4.768013 -3.108396 -0.518307 0
M  V30 35 H 0.633985 -4.854283 2.689427 0
M  V30 36 H 2.623562 -4.806220 2.948787 0
M  V30 37 H 5.005580 -4.648430 3.203333 0
M  V30 38 H 6.299520 -0.747838 1.286352 0
M  V30 39 H 6.664588 1.599826 0.077339 0
M  V30 40 H 2.678781 3.195426 -2.023280 0
M  V30 41 H 1.083562 1.058145 -0.500063 0
M  V30 42 H 1.687529 0.914051 -2.174314 0
M  V30 43 H -0.715058 1.456544 -2.159075 0
M  V30 44 H 0.214696 2.831442 -2.807361 0
M  V30 45 H -0.851910 4.182037 -1.350181 0
M  V30 46 H -2.191654 2.153837 -1.030605 0
M  V30 47 H 0.272624 2.582342 1.026531 0
M  V30 48 H 0.078678 4.332863 0.833518 0
M  V30 49 H 2.424236 3.516615 0.856267 0
M  V30 50 H 2.021314 4.648378 -0.433707 0
M  V30 51 H 2.712936 0.126770 0.291917 0
M  V30 52 H 0.729354 -1.113347 0.689370 0
M  V30 53 H -1.645452 -1.217665 0.406727 0
M  V30 54 H -3.650132 -1.465684 0.281647 0
M  V30 55 H -5.489396 -2.950281 2.207487 0
M  V30 56 H -5.092786 -1.145423 2.200284 0
M  V30 57 H -7.159569 -0.940028 1.353936 0
M  V30 58 H -7.205017 -2.634503 0.640519 0
M  V30 59 H -5.380276 -1.823739 -2.183810 0
M  V30 60 H -6.703051 -2.797645 -1.497748 0
M  V30 61 H -3.974867 -3.380230 -1.254415 0
M  V30 62 H -5.298769 -4.003301 -0.152815 0
M  V30 END ATOM
M  V30 BEGIN BOND
M  V30 1 3 1 2
M  V30 2 1 2 3
M  V30 3 2 3 4
M  V30 4 1 4 5
M  V30 5 1 5 6
M  V30 6 2 6 7
M  V30 7 1 7 8
M  V30 8 2 8 9
M  V30 9 1 9 10
M  V30 10 1 10 11
M  V30 11 1 11 12
M  V30 12 1 12 13
M  V30 13 2 13 14
M  V30 14 1 14 15
M  V30 15 1 15 16
M  V30 16 1 16 17
M  V30 17 1 17 18
M  V30 18 1 18 19
M  V30 19 1 19 20
M  V30 20 1 19 21
M  V30 21 1 21 22
M  V30 22 1 15 23
M  V30 23 2 10 24
M  V30 24 2 5 25
M  V30 25 1 25 26
M  V30 26 2 26 27
M  V30 27 1 27 28
M  V30 28 1 28 29
M  V30 29 1 29 30
M  V30 30 1 30 31
M  V30 31 1 31 32
M  V30 32 1 32 33
M  V30 33 1 33 34
M  V30 34 1 27 3
M  V30 35 1 34 29
M  V30 36 1 24 6
M  V30 37 2 23 12
M  V30 38 1 22 16
M  V30 39 1 4 35
M  V30 40 1 7 36
M  V30 41 1 8 37
M  V30 42 1 11 38
M  V30 43 1 13 39
M  V30 44 1 16 40 CFG=3
M  V30 45 1 17 41
M  V30 46 1 17 42
M  V30 47 1 18 43
M  V30 48 1 18 44
M  V30 49 1 19 45 CFG=3
M  V30 50 1 20 46
M  V30 51 1 21 47
M  V30 52 1 21 48
M  V30 53 1 22 49
M  V30 54 1 22 50
M  V30 55 1 23 51
M  V30 56 1 25 52
M  V30 57 1 26 53
M  V30 58 1 29 54
M  V30 59 1 30 55
M  V30 60 1 30 56
M  V30 61 1 31 57
M  V30 62 1 31 58
M  V30 63 1 33 59
M  V30 64 1 33 60
M  V30 65 1 34 61
M  V30 66 1 34 62
M  V30 END BOND
M  V30 END CTAB
M  END
>  <Dataset>  (445) 
ChEMBL_Kinases

>  <Ligand_Instance>  (445) 
nan

>  <PDB_ID>  (445) 
nan

>  <Standardized_SMILES>  (445) 
N#Cc1cc(-c2ccnc(Nc3cnn([C@H]4CC[C@@H](O)CC4)c3)n2)ccc1OC1CCOCC1

>  <Name>  (445) 
nan

>  <Pocket>  (445) 
nan

>  <ATP_Site>  (445) 
nan

>  <Peripheral>  (445) 
nan

>  <Num_H_Atoms_ProtBoundConf>  (445) 
nan

>  <Num_Resolved_Atoms>  (445) 
nan

>  <Num_Not_Resolved_Atoms>  (445) 
nan

$$$$
CHEMBL3682421
     RDKit          3D

  0  0  0  0  0  0  0  0  0  0999 V3000
M  V30 BEGIN CTAB
M  V30 COUNTS 51 54 0 0 0
M  V30 BEGIN ATOM
M  V30 1 N 1.492807 -5.339788 3.073241 0
M  V30 2 C 0.974200 -4.502414 2.490278 0
M  V30 3 C 0.311564 -3.463405 1.738593 0
M  V30 4 C 0.765623 -2.166865 2.005737 0
M  V30 5 C 0.219834 -1.079432 1.357356 0
M  V30 6 C 0.696473 0.269717 1.639147 0
M  V30 7 C 1.153402 0.589591 2.899951 0
M  V30 8 C 1.579576 1.883531 3.062110 0
M  V30 9 N 1.546073 2.752257 2.060657 0
M  V30 10 C 1.116902 2.512312 0.814279 0
M  V30 11 N 1.070694 3.420805 -0.271115 0
M  V30 12 C 1.464901 4.777934 -0.265990 0
M  V30 13 C 1.968229 5.482492 0.802973 0
M  V30 14 C 2.341191 6.792188 0.780193 0
M  V30 15 C 2.865311 7.461928 1.962821 0
M  V30 16 O 3.204086 8.671247 1.921994 0
M  V30 17 O 3.018510 6.816062 3.181066 0
M  V30 18 C 2.217805 7.501771 -0.394592 0
M  V30 19 C 1.714765 6.800709 -1.466059 0
M  V30 20 N 1.366252 5.517134 -1.383179 0
M  V30 21 C 0.684975 1.214561 0.636651 0
M  V30 22 C -0.786117 -1.313467 0.439264 0
M  V30 23 C -1.233089 -2.589182 0.176150 0
M  V30 24 C -0.707781 -3.695201 0.807475 0
M  V30 25 O -1.001178 -5.038025 0.697230 0
M  V30 26 C -1.972920 -5.606695 -0.148548 0
M  V30 27 C -3.010633 -6.309591 0.669866 0
M  V30 28 C -3.695298 -7.429313 -0.045837 0
M  V30 29 O -3.377243 -7.395528 -1.407047 0
M  V30 30 C -2.014597 -7.742581 -1.475929 0
M  V30 31 C -1.253848 -6.496125 -1.117897 0
M  V30 32 H 1.548714 -1.955825 2.717087 0
M  V30 33 H 1.180543 -0.117142 3.714334 0
M  V30 34 H 1.961195 2.262760 4.000933 0
M  V30 35 H 0.704319 3.049772 -1.180863 0
M  V30 36 H 2.088472 4.988372 1.744262 0
M  V30 37 H 2.741186 7.275448 4.062454 0
M  V30 38 H 2.486096 8.541016 -0.511810 0
M  V30 39 H 1.600231 7.327016 -2.419885 0
M  V30 40 H 0.312469 0.898279 -0.335863 0
M  V30 41 H -1.232162 -0.499363 -0.081634 0
M  V30 42 H -2.013017 -2.840719 -0.527205 0
M  V30 43 H -2.472153 -4.795993 -0.710950 0
M  V30 44 H -2.545146 -6.725861 1.592932 0
M  V30 45 H -3.784555 -5.597733 1.023873 0
M  V30 46 H -3.377785 -8.432603 0.328369 0
M  V30 47 H -4.794230 -7.400730 0.117203 0
M  V30 48 H -1.859265 -8.564892 -0.771529 0
M  V30 49 H -1.709121 -8.068859 -2.473351 0
M  V30 50 H -1.049901 -5.948380 -2.066546 0
M  V30 51 H -0.258656 -6.817898 -0.737991 0
M  V30 END ATOM
M  V30 BEGIN BOND
M  V30 1 3 1 2
M  V30 2 1 2 3
M  V30 3 2 3 4
M  V30 4 1 4 5
M  V30 5 1 5 6
M  V30 6 2 6 7
M  V30 7 1 7 8
M  V30 8 2 8 9
M  V30 9 1 9 10
M  V30 10 1 10 11
M  V30 11 1 11 12
M  V30 12 2 12 13
M  V30 13 1 13 14
M  V30 14 1 14 15
M  V30 15 2 15 16
M  V30 16 1 15 17
M  V30 17 2 14 18
M  V30 18 1 18 19
M  V30 19 2 19 20
M  V30 20 2 10 21
M  V30 21 2 5 22
M  V30 22 1 22 23
M  V30 23 2 23 24
M  V30 24 1 24 25
M  V30 25 1 25 26
M  V30 26 1 26 27
M  V30 27 1 27 28
M  V30 28 1 28 29
M  V30 29 1 29 30
M  V30 30 1 30 31
M  V30 31 1 24 3
M  V30 32 1 31 26
M  V30 33 1 21 6
M  V30 34 1 20 12
M  V30 35 1 4 32
M  V30 36 1 7 33
M  V30 37 1 8 34
M  V30 38 1 11 35
M  V30 39 1 13 36
M  V30 40 1 17 37
M  V30 41 1 18 38
M  V30 42 1 19 39
M  V30 43 1 21 40
M  V30 44 1 22 41
M  V30 45 1 23 42
M  V30 46 1 26 43
M  V30 47 1 27 44
M  V30 48 1 27 45
M  V30 49 1 28 46
M  V30 50 1 28 47
M  V30 51 1 30 48
M  V30 52 1 30 49
M  V30 53 1 31 50
M  V30 54 1 31 51
M  V30 END BOND
M  V30 END CTAB
M  END
>  <Dataset>  (446) 
ChEMBL_Kinases

>  <Ligand_Instance>  (446) 
nan

>  <PDB_ID>  (446) 
nan

>  <Standardized_SMILES>  (446) 
N#Cc1cc(-c2ccnc(Nc3cc(C(=O)O)ccn3)c2)ccc1OC1CCOCC1

>  <Name>  (446) 
nan

>  <Pocket>  (446) 
nan

>  <ATP_Site>  (446) 
nan

>  <Peripheral>  (446) 
nan

>  <Num_H_Atoms_ProtBoundConf>  (446) 
nan

>  <Num_Resolved_Atoms>  (446) 
nan

>  <Num_Not_Resolved_Atoms>  (446) 
nan

$$$$
CHEMBL3684373
     RDKit          3D

  0  0  0  0  0  0  0  0  0  0999 V3000
M  V30 BEGIN CTAB
M  V30 COUNTS 70 77 0 0 0
M  V30 BEGIN ATOM
M  V30 1 C 6.816372 -2.278104 8.920062 0
M  V30 2 C 7.419540 -2.833272 7.807209 0
M  V30 3 C 7.032656 -2.486399 6.528165 0
M  V30 4 C 6.015645 -1.559492 6.420990 0
M  V30 5 C 5.535408 -1.128098 5.108680 0
M  V30 6 N 5.957674 -1.519508 3.889187 0
M  V30 7 N 5.253286 -0.882305 2.973061 0
M  V30 8 C 4.353069 -0.058727 3.537860 0
M  V30 9 C 3.349881 0.852068 2.977291 0
M  V30 10 C 2.274858 0.073938 2.217121 0
M  V30 11 C 1.460190 1.116793 1.478469 0
M  V30 12 N 2.123739 1.609990 0.312409 0
M  V30 13 C 1.925664 0.827023 -0.881880 0
M  V30 14 C 0.491587 0.723836 -1.280075 0
M  V30 15 C -0.073608 1.655688 -2.126442 0
M  V30 16 C -1.399764 1.547442 -2.486240 0
M  V30 17 C -2.216042 0.503062 -2.014890 0
M  V30 18 C -3.619097 0.341419 -2.319488 0
M  V30 19 N -4.396318 1.380250 -1.889203 0
M  V30 20 N -5.673627 1.139734 -2.158376 0
M  V30 21 C -5.744102 -0.052437 -2.763942 0
M  V30 22 N -4.488311 -0.515502 -2.853809 0
M  V30 23 C -4.025171 -1.724580 -3.413323 0
M  V30 24 C -2.725233 -1.585942 -3.817201 0
M  V30 25 C -2.112981 -2.706904 -4.338180 0
M  V30 26 C -2.861308 -3.888326 -4.415525 0
M  V30 27 N -4.150534 -4.013294 -4.015930 0
M  V30 28 C -4.725432 -2.901168 -3.510248 0
M  V30 29 N -6.117146 -3.148862 -3.195048 0
M  V30 30 C -7.103913 -2.091053 -3.313183 0
M  V30 31 C -8.340120 -2.653630 -3.653844 0
M  V30 32 C -9.396239 -1.783854 -3.824995 0
M  V30 33 C -9.232256 -0.410507 -3.664375 0
M  V30 34 C -8.022529 0.158577 -3.328608 0
M  V30 35 C -6.989537 -0.701284 -3.161467 0
M  V30 36 C -1.543660 -0.389642 -1.160969 0
M  V30 37 C -0.224839 -0.336500 -0.764502 0
M  V30 38 C 3.551585 1.588988 0.585964 0
M  V30 39 C 3.883399 1.872865 2.028791 0
M  V30 40 N 4.569365 -0.248773 4.863040 0
M  V30 41 N 5.437158 -1.026975 7.509298 0
M  V30 42 C 5.803347 -1.355124 8.762582 0
M  V30 43 H 7.062082 -2.497333 9.951002 0
M  V30 44 H 8.207120 -3.550459 7.997487 0
M  V30 45 H 7.499606 -2.916200 5.672480 0
M  V30 46 H 2.782194 1.379989 3.788298 0
M  V30 47 H 2.760412 -0.625526 1.502686 0
M  V30 48 H 1.620188 -0.415458 2.941427 0
M  V30 49 H 0.409798 0.799800 1.328441 0
M  V30 50 H 1.374979 1.997949 2.180686 0
M  V30 51 H 2.346360 -0.175782 -0.754815 0
M  V30 52 H 2.451688 1.341799 -1.699258 0
M  V30 53 H 0.520859 2.475320 -2.511510 0
M  V30 54 H -1.885766 2.252776 -3.146076 0
M  V30 55 H -2.076194 -0.751647 -3.854818 0
M  V30 56 H -1.089822 -2.776442 -4.703997 0
M  V30 57 H -2.428929 -4.792739 -4.812790 0
M  V30 58 H -6.411725 -4.097443 -2.897153 0
M  V30 59 H -8.394286 -3.727633 -3.759560 0
M  V30 60 H -10.348255 -2.180040 -4.084188 0
M  V30 61 H -10.073814 0.282486 -3.801175 0
M  V30 62 H -7.798748 1.196364 -3.182992 0
M  V30 63 H -2.167324 -1.201042 -0.791424 0
M  V30 64 H 0.135046 -1.105737 -0.101185 0
M  V30 65 H 4.005057 0.612393 0.292782 0
M  V30 66 H 4.012211 2.419246 -0.005698 0
M  V30 67 H 4.974316 2.014888 2.084315 0
M  V30 68 H 3.447679 2.889884 2.252227 0
M  V30 69 H 4.035119 0.242265 5.618418 0
M  V30 70 H 5.239265 -0.837410 9.546461 0
M  V30 END ATOM
M  V30 BEGIN BOND
M  V30 1 2 1 2
M  V30 2 1 2 3
M  V30 3 2 3 4
M  V30 4 1 4 5
M  V30 5 2 5 6
M  V30 6 1 6 7
M  V30 7 2 7 8
M  V30 8 1 8 9
M  V30 9 1 9 10
M  V30 10 1 10 11
M  V30 11 1 11 12
M  V30 12 1 12 13
M  V30 13 1 13 14
M  V30 14 2 14 15
M  V30 15 1 15 16
M  V30 16 2 16 17
M  V30 17 1 17 18
M  V30 18 2 18 19
M  V30 19 1 19 20
M  V30 20 2 20 21
M  V30 21 1 21 22
M  V30 22 1 22 23
M  V30 23 2 23 24
M  V30 24 1 24 25
M  V30 25 2 25 26
M  V30 26 1 26 27
M  V30 27 2 27 28
M  V30 28 1 28 29
M  V30 29 1 29 30
M  V30 30 2 30 31
M  V30 31 1 31 32
M  V30 32 2 32 33
M  V30 33 1 33 34
M  V30 34 2 34 35
M  V30 35 1 17 36
M  V30 36 2 36 37
M  V30 37 1 12 38
M  V30 38 1 38 39
M  V30 39 1 8 40
M  V30 40 1 4 41
M  V30 41 2 41 42
M  V30 42 1 42 1
M  V30 43 1 40 5
M  V30 44 1 39 9
M  V30 45 1 37 14
M  V30 46 1 22 18
M  V30 47 1 28 23
M  V30 48 1 35 30
M  V30 49 1 35 21
M  V30 50 1 1 43
M  V30 51 1 2 44
M  V30 52 1 3 45
M  V30 53 1 9 46
M  V30 54 1 10 47
M  V30 55 1 10 48
M  V30 56 1 11 49
M  V30 57 1 11 50
M  V30 58 1 13 51
M  V30 59 1 13 52
M  V30 60 1 15 53
M  V30 61 1 16 54
M  V30 62 1 24 55
M  V30 63 1 25 56
M  V30 64 1 26 57
M  V30 65 1 29 58
M  V30 66 1 31 59
M  V30 67 1 32 60
M  V30 68 1 33 61
M  V30 69 1 34 62
M  V30 70 1 36 63
M  V30 71 1 37 64
M  V30 72 1 38 65
M  V30 73 1 38 66
M  V30 74 1 39 67
M  V30 75 1 39 68
M  V30 76 1 40 69
M  V30 77 1 42 70
M  V30 END BOND
M  V30 END CTAB
M  END
>  <Dataset>  (447) 
ChEMBL_Kinases

>  <Ligand_Instance>  (447) 
nan

>  <PDB_ID>  (447) 
nan

>  <Standardized_SMILES>  (447) 
c1ccc(-c2nnc(C3CCN(Cc4ccc(-c5nnc6n5-c5cccnc5Nc5ccccc5-6)cc4)CC3)[nH]2)nc1

>  <Name>  (447) 
nan

>  <Pocket>  (447) 
nan

>  <ATP_Site>  (447) 
nan

>  <Peripheral>  (447) 
nan

>  <Num_H_Atoms_ProtBoundConf>  (447) 
nan

>  <Num_Resolved_Atoms>  (447) 
nan

>  <Num_Not_Resolved_Atoms>  (447) 
nan

$$$$
CHEMBL3684372
     RDKit          3D

  0  0  0  0  0  0  0  0  0  0999 V3000
M  V30 BEGIN CTAB
M  V30 COUNTS 42 46 0 0 0
M  V30 BEGIN ATOM
M  V30 1 N 4.796486 -4.061783 3.480803 0
M  V30 2 C 3.894243 -4.853534 2.688184 0
M  V30 3 C 2.995157 -3.930369 1.917471 0
M  V30 4 C 1.816383 -3.552751 2.515675 0
M  V30 5 C 1.037943 -2.710813 1.766069 0
M  V30 6 C 1.315965 -2.207973 0.481615 0
M  V30 7 C 0.394845 -1.346092 -0.227448 0
M  V30 8 N -0.073080 -1.889883 -1.391890 0
M  V30 9 N -0.953527 -1.052896 -1.957376 0
M  V30 10 C -1.059182 0.012438 -1.181740 0
M  V30 11 N -0.236597 -0.174706 -0.140460 0
M  V30 12 C 0.020678 0.667051 0.960067 0
M  V30 13 C 1.263914 0.416920 1.474416 0
M  V30 14 C 1.637100 1.130624 2.596169 0
M  V30 15 C 0.723194 2.052964 3.119336 0
M  V30 16 N -0.518207 2.313377 2.611810 0
M  V30 17 C -0.849992 1.587161 1.501961 0
M  V30 18 N -2.146991 2.002902 1.013243 0
M  V30 19 C -2.445762 1.966925 -0.405553 0
M  V30 20 C -3.354301 2.987540 -0.713374 0
M  V30 21 C -3.734730 3.105966 -2.033634 0
M  V30 22 C -3.241823 2.253973 -3.016526 0
M  V30 23 C -2.352891 1.249559 -2.733747 0
M  V30 24 C -1.970483 1.125650 -1.421899 0
M  V30 25 C 2.544705 -2.655210 -0.038475 0
M  V30 26 C 3.375429 -3.502594 0.662791 0
M  V30 27 H 4.465039 -3.095969 3.667742 0
M  V30 28 H 5.023181 -4.504197 4.405478 0
M  V30 29 H 3.251513 -5.503778 3.330419 0
M  V30 30 H 4.438590 -5.482816 1.961542 0
M  V30 31 H 1.465220 -3.852472 3.490156 0
M  V30 32 H 0.078846 -2.363213 2.174827 0
M  V30 33 H 2.050284 -0.209711 1.146488 0
M  V30 34 H 2.579463 1.048753 3.121251 0
M  V30 35 H 0.955712 2.635584 3.990587 0
M  V30 36 H -2.862968 2.344002 1.680021 0
M  V30 37 H -3.699858 3.612745 0.098147 0
M  V30 38 H -4.434121 3.884802 -2.297251 0
M  V30 39 H -3.542750 2.349451 -4.056814 0
M  V30 40 H -1.909189 0.535575 -3.410855 0
M  V30 41 H 2.803133 -2.295195 -1.025070 0
M  V30 42 H 4.324320 -3.830550 0.227555 0
M  V30 END ATOM
M  V30 BEGIN BOND
M  V30 1 1 1 2
M  V30 2 1 2 3
M  V30 3 2 3 4
M  V30 4 1 4 5
M  V30 5 2 5 6
M  V30 6 1 6 7
M  V30 7 2 7 8
M  V30 8 1 8 9
M  V30 9 2 9 10
M  V30 10 1 10 11
M  V30 11 1 11 12
M  V30 12 2 12 13
M  V30 13 1 13 14
M  V30 14 2 14 15
M  V30 15 1 15 16
M  V30 16 2 16 17
M  V30 17 1 17 18
M  V30 18 1 18 19
M  V30 19 2 19 20
M  V30 20 1 20 21
M  V30 21 2 21 22
M  V30 22 1 22 23
M  V30 23 2 23 24
M  V30 24 1 6 25
M  V30 25 2 25 26
M  V30 26 1 26 3
M  V30 27 1 11 7
M  V30 28 1 17 12
M  V30 29 1 24 19
M  V30 30 1 24 10
M  V30 31 1 1 27
M  V30 32 1 1 28
M  V30 33 1 2 29
M  V30 34 1 2 30
M  V30 35 1 4 31
M  V30 36 1 5 32
M  V30 37 1 13 33
M  V30 38 1 14 34
M  V30 39 1 15 35
M  V30 40 1 18 36
M  V30 41 1 20 37
M  V30 42 1 21 38
M  V30 43 1 22 39
M  V30 44 1 23 40
M  V30 45 1 25 41
M  V30 46 1 26 42
M  V30 END BOND
M  V30 END CTAB
M  END
>  <Dataset>  (448) 
ChEMBL_Kinases

>  <Ligand_Instance>  (448) 
nan

>  <PDB_ID>  (448) 
nan

>  <Standardized_SMILES>  (448) 
NCc1ccc(-c2nnc3n2-c2cccnc2Nc2ccccc2-3)cc1

>  <Name>  (448) 
nan

>  <Pocket>  (448) 
nan

>  <ATP_Site>  (448) 
nan

>  <Peripheral>  (448) 
nan

>  <Num_H_Atoms_ProtBoundConf>  (448) 
nan

>  <Num_Resolved_Atoms>  (448) 
nan

>  <Num_Not_Resolved_Atoms>  (448) 
nan

$$$$
CHEMBL3684371
     RDKit          3D

  0  0  0  0  0  0  0  0  0  0999 V3000
M  V30 BEGIN CTAB
M  V30 COUNTS 61 67 0 0 0
M  V30 BEGIN ATOM
M  V30 1 O -0.553887 -2.266349 1.455664 0
M  V30 2 C 0.290987 -3.195157 1.318334 0
M  V30 3 N 1.497033 -2.747200 0.736980 0
M  V30 4 C 1.498542 -1.347296 0.432389 0
M  V30 5 C 1.938651 -0.451116 1.382058 0
M  V30 6 C 1.935753 0.892975 1.073923 0
M  V30 7 C 1.501486 1.387784 -0.171527 0
M  V30 8 C 1.518278 2.786182 -0.535260 0
M  V30 9 N 2.771271 3.325195 -0.520685 0
M  V30 10 N 2.710560 4.609330 -0.917675 0
M  V30 11 C 1.426180 4.895777 -1.186571 0
M  V30 12 N 0.727760 3.779088 -0.944195 0
M  V30 13 C -0.658078 3.556742 -1.066046 0
M  V30 14 C -1.054126 2.545414 -0.234839 0
M  V30 15 C -2.381889 2.171634 -0.280822 0
M  V30 16 C -3.227902 2.849688 -1.166880 0
M  V30 17 N -2.818312 3.862694 -1.989849 0
M  V30 18 C -1.513196 4.209068 -1.924734 0
M  V30 19 N -1.246787 5.337255 -2.788613 0
M  V30 20 C -0.231567 6.310197 -2.438611 0
M  V30 21 C -0.586989 7.563283 -2.940605 0
M  V30 22 C 0.262431 8.609645 -2.683391 0
M  V30 23 C 1.431098 8.430234 -1.952028 0
M  V30 24 C 1.809817 7.212486 -1.445345 0
M  V30 25 C 0.955191 6.172303 -1.707739 0
M  V30 26 C 1.075742 0.378745 -1.058356 0
M  V30 27 C 1.051310 -0.976840 -0.818925 0
M  V30 28 C 0.088269 -4.597637 1.704280 0
M  V30 29 C 1.006686 -5.617668 1.560679 0
M  V30 30 C 0.684715 -6.897848 1.966829 0
M  V30 31 C -0.553525 -7.168139 2.517945 0
M  V30 32 C -0.933306 -8.507409 2.960377 0
M  V30 33 C -1.800227 -8.731235 4.011520 0
M  V30 34 C -2.172038 -9.986199 4.445963 0
M  V30 35 C -1.649792 -11.103355 3.795104 0
M  V30 36 C -0.775698 -10.911677 2.734804 0
M  V30 37 C -0.436365 -9.643146 2.340014 0
M  V30 38 C -1.465020 -6.139778 2.657001 0
M  V30 39 C -1.163117 -4.855802 2.257994 0
M  V30 40 H 2.294862 -3.403959 0.559417 0
M  V30 41 H 2.282748 -0.764787 2.351371 0
M  V30 42 H 2.264193 1.660089 1.760885 0
M  V30 43 H -0.536263 1.992854 0.503650 0
M  V30 44 H -2.872361 1.388093 0.305764 0
M  V30 45 H -4.268962 2.602786 -1.249072 0
M  V30 46 H -1.798135 5.459435 -3.657027 0
M  V30 47 H -1.507828 7.630054 -3.502410 0
M  V30 48 H 0.011995 9.592108 -3.060199 0
M  V30 49 H 2.114551 9.264682 -1.742687 0
M  V30 50 H 2.688486 6.965429 -0.870059 0
M  V30 51 H 0.735847 0.735428 -2.026540 0
M  V30 52 H 0.700537 -1.629701 -1.589183 0
M  V30 53 H 1.948726 -5.333027 1.124115 0
M  V30 54 H 1.399986 -7.679631 1.852204 0
M  V30 55 H -2.194636 -7.837548 4.503773 0
M  V30 56 H -2.853031 -10.145373 5.271749 0
M  V30 57 H -1.919125 -12.103017 4.108408 0
M  V30 58 H -0.361129 -11.789009 2.218437 0
M  V30 59 H 0.247465 -9.571868 1.509316 0
M  V30 60 H -2.443703 -6.337411 3.089094 0
M  V30 61 H -1.921975 -4.098111 2.395263 0
M  V30 END ATOM
M  V30 BEGIN BOND
M  V30 1 2 1 2
M  V30 2 1 2 3
M  V30 3 1 3 4
M  V30 4 2 4 5
M  V30 5 1 5 6
M  V30 6 2 6 7
M  V30 7 1 7 8
M  V30 8 2 8 9
M  V30 9 1 9 10
M  V30 10 2 10 11
M  V30 11 1 11 12
M  V30 12 1 12 13
M  V30 13 2 13 14
M  V30 14 1 14 15
M  V30 15 2 15 16
M  V30 16 1 16 17
M  V30 17 2 17 18
M  V30 18 1 18 19
M  V30 19 1 19 20
M  V30 20 2 20 21
M  V30 21 1 21 22
M  V30 22 2 22 23
M  V30 23 1 23 24
M  V30 24 2 24 25
M  V30 25 1 7 26
M  V30 26 2 26 27
M  V30 27 1 2 28
M  V30 28 2 28 29
M  V30 29 1 29 30
M  V30 30 2 30 31
M  V30 31 1 31 32
M  V30 32 2 32 33
M  V30 33 1 33 34
M  V30 34 2 34 35
M  V30 35 1 35 36
M  V30 36 2 36 37
M  V30 37 1 31 38
M  V30 38 2 38 39
M  V30 39 1 27 4
M  V30 40 1 39 28
M  V30 41 1 12 8
M  V30 42 1 18 13
M  V30 43 1 25 20
M  V30 44 1 37 32
M  V30 45 1 25 11
M  V30 46 1 3 40
M  V30 47 1 5 41
M  V30 48 1 6 42
M  V30 49 1 14 43
M  V30 50 1 15 44
M  V30 51 1 16 45
M  V30 52 1 19 46
M  V30 53 1 21 47
M  V30 54 1 22 48
M  V30 55 1 23 49
M  V30 56 1 24 50
M  V30 57 1 26 51
M  V30 58 1 27 52
M  V30 59 1 29 53
M  V30 60 1 30 54
M  V30 61 1 33 55
M  V30 62 1 34 56
M  V30 63 1 35 57
M  V30 64 1 36 58
M  V30 65 1 37 59
M  V30 66 1 38 60
M  V30 67 1 39 61
M  V30 END BOND
M  V30 END CTAB
M  END
>  <Dataset>  (449) 
ChEMBL_Kinases

>  <Ligand_Instance>  (449) 
nan

>  <PDB_ID>  (449) 
nan

>  <Standardized_SMILES>  (449) 
O=C(Nc1ccc(-c2nnc3n2-c2cccnc2Nc2ccccc2-3)cc1)c1ccc(-c2ccccc2)cc1

>  <Name>  (449) 
nan

>  <Pocket>  (449) 
nan

>  <ATP_Site>  (449) 
nan

>  <Peripheral>  (449) 
nan

>  <Num_H_Atoms_ProtBoundConf>  (449) 
nan

>  <Num_Resolved_Atoms>  (449) 
nan

>  <Num_Not_Resolved_Atoms>  (449) 
nan

$$$$
CHEMBL3684370
     RDKit          3D

  0  0  0  0  0  0  0  0  0  0999 V3000
M  V30 BEGIN CTAB
M  V30 COUNTS 52 57 0 0 0
M  V30 BEGIN ATOM
M  V30 1 C 9.663515 -1.968752 1.796806 0 CHG=-1 VAL=3
M  V30 2 N 8.916969 -1.092317 1.792335 0 CHG=1 VAL=4
M  V30 3 C 8.013571 -0.025965 1.762842 0
M  V30 4 C 8.435818 1.291410 1.825683 0
M  V30 5 C 7.524150 2.320093 1.794629 0
M  V30 6 C 6.168292 2.075748 1.700522 0
M  V30 7 C 5.739874 0.766855 1.637514 0
M  V30 8 C 4.338472 0.307852 1.534772 0
M  V30 9 O 3.960050 -0.908908 1.477394 0
M  V30 10 N 3.239224 1.217526 1.488622 0
M  V30 11 C 2.007703 0.479325 1.389301 0
M  V30 12 C 1.329993 0.086927 2.528162 0
M  V30 13 C 0.150456 -0.620336 2.414121 0
M  V30 14 C -0.394000 -0.960670 1.162189 0
M  V30 15 C -1.602413 -1.725354 0.965576 0
M  V30 16 N -1.544953 -2.991524 1.479653 0
M  V30 17 N -2.670264 -3.646043 1.216863 0
M  V30 18 C -3.464767 -2.828061 0.537990 0
M  V30 19 N -2.807820 -1.667469 0.395534 0
M  V30 20 C -3.217155 -0.482963 -0.240023 0
M  V30 21 C -2.560517 0.594866 0.286550 0
M  V30 22 C -2.816809 1.828657 -0.273668 0
M  V30 23 C -3.727951 1.893535 -1.334973 0
M  V30 24 N -4.383286 0.816389 -1.853910 0
M  V30 25 C -4.112139 -0.385234 -1.283282 0
M  V30 26 N -4.928271 -1.422241 -1.876268 0
M  V30 27 C -5.367784 -2.555971 -1.086888 0
M  V30 28 C -6.606246 -2.997278 -1.566332 0
M  V30 29 C -7.181224 -4.063778 -0.916219 0
M  V30 30 C -6.564601 -4.675937 0.165004 0
M  V30 31 C -5.348627 -4.260029 0.652317 0
M  V30 32 C -4.768927 -3.195845 0.007124 0
M  V30 33 C 0.377850 -0.511341 0.077293 0
M  V30 34 C 1.559868 0.196520 0.115988 0
M  V30 35 C 6.660953 -0.285973 1.668519 0
M  V30 36 H 9.500727 1.467249 1.899206 0
M  V30 37 H 7.827920 3.351989 1.842119 0
M  V30 38 H 5.378781 2.812312 1.669442 0
M  V30 39 H 3.421111 2.254151 1.528465 0
M  V30 40 H 1.709800 0.325679 3.514013 0
M  V30 41 H -0.396336 -0.937541 3.281792 0
M  V30 42 H -1.896334 0.686958 1.104009 0
M  V30 43 H -2.399057 2.798341 -0.002204 0
M  V30 44 H -3.971022 2.817201 -1.816446 0
M  V30 45 H -5.210736 -1.340598 -2.868433 0
M  V30 46 H -7.030990 -2.479514 -2.412454 0
M  V30 47 H -8.136570 -4.424801 -1.265146 0
M  V30 48 H -7.014822 -5.523067 0.687055 0
M  V30 49 H -4.780462 -4.657181 1.478738 0
M  V30 50 H -0.040243 -0.772987 -0.907065 0
M  V30 51 H 2.025191 0.464246 -0.811558 0
M  V30 52 H 6.358381 -1.342693 1.620418 0
M  V30 END ATOM
M  V30 BEGIN BOND
M  V30 1 3 1 2
M  V30 2 1 2 3
M  V30 3 2 3 4
M  V30 4 1 4 5
M  V30 5 2 5 6
M  V30 6 1 6 7
M  V30 7 1 7 8
M  V30 8 2 8 9
M  V30 9 1 8 10
M  V30 10 1 10 11
M  V30 11 2 11 12
M  V30 12 1 12 13
M  V30 13 2 13 14
M  V30 14 1 14 15
M  V30 15 2 15 16
M  V30 16 1 16 17
M  V30 17 2 17 18
M  V30 18 1 18 19
M  V30 19 1 19 20
M  V30 20 2 20 21
M  V30 21 1 21 22
M  V30 22 2 22 23
M  V30 23 1 23 24
M  V30 24 2 24 25
M  V30 25 1 25 26
M  V30 26 1 26 27
M  V30 27 2 27 28
M  V30 28 1 28 29
M  V30 29 2 29 30
M  V30 30 1 30 31
M  V30 31 2 31 32
M  V30 32 1 14 33
M  V30 33 2 33 34
M  V30 34 2 7 35
M  V30 35 1 35 3
M  V30 36 1 34 11
M  V30 37 1 19 15
M  V30 38 1 25 20
M  V30 39 1 32 27
M  V30 40 1 32 18
M  V30 41 1 4 36
M  V30 42 1 5 37
M  V30 43 1 6 38
M  V30 44 1 10 39
M  V30 45 1 12 40
M  V30 46 1 13 41
M  V30 47 1 21 42
M  V30 48 1 22 43
M  V30 49 1 23 44
M  V30 50 1 26 45
M  V30 51 1 28 46
M  V30 52 1 29 47
M  V30 53 1 30 48
M  V30 54 1 31 49
M  V30 55 1 33 50
M  V30 56 1 34 51
M  V30 57 1 35 52
M  V30 END BOND
M  V30 END CTAB
M  END
>  <Dataset>  (450) 
ChEMBL_Kinases

>  <Ligand_Instance>  (450) 
nan

>  <PDB_ID>  (450) 
nan

>  <Standardized_SMILES>  (450) 
[C-]#[N+]c1cccc(C(=O)Nc2ccc(-c3nnc4n3-c3cccnc3Nc3ccccc3-4)cc2)c1

>  <Name>  (450) 
nan

>  <Pocket>  (450) 
nan

>  <ATP_Site>  (450) 
nan

>  <Peripheral>  (450) 
nan

>  <Num_H_Atoms_ProtBoundConf>  (450) 
nan

>  <Num_Resolved_Atoms>  (450) 
nan

>  <Num_Not_Resolved_Atoms>  (450) 
nan

$$$$
CHEMBL3684369
     RDKit          3D

  0  0  0  0  0  0  0  0  0  0999 V3000
M  V30 BEGIN CTAB
M  V30 COUNTS 51 56 0 0 0
M  V30 BEGIN ATOM
M  V30 1 O 1.219408 -5.493847 1.647389 0
M  V30 2 C 0.989754 -4.994990 2.786079 0
M  V30 3 N 0.768607 -3.630774 3.021098 0
M  V30 4 C 0.764879 -2.584181 2.027263 0
M  V30 5 C 1.935482 -1.922890 1.718241 0
M  V30 6 C 1.920117 -0.924030 0.766672 0
M  V30 7 C 0.744819 -0.549642 0.092136 0
M  V30 8 C 0.661742 0.459848 -0.934922 0
M  V30 9 N 1.422258 0.158361 -2.028344 0
M  V30 10 N 1.250926 1.119401 -2.954061 0
M  V30 11 C 0.397548 2.023090 -2.469516 0
M  V30 12 N 0.059076 1.603258 -1.247212 0
M  V30 13 C -0.810155 2.201432 -0.312878 0
M  V30 14 C -0.487608 1.819071 0.960347 0
M  V30 15 C -1.286146 2.281515 1.986081 0
M  V30 16 C -2.366305 3.109523 1.653660 0
M  V30 17 N -2.686935 3.495462 0.381316 0
M  V30 18 C -1.877761 3.021086 -0.607403 0
M  V30 19 N -2.284261 3.565739 -1.882834 0
M  V30 20 C -1.303443 3.818442 -2.918958 0
M  V30 21 C -1.715965 4.899270 -3.702400 0
M  V30 22 C -0.882727 5.283257 -4.730362 0
M  V30 23 C 0.305163 4.631656 -4.976710 0
M  V30 24 C 0.744449 3.563359 -4.227511 0
M  V30 25 C -0.087850 3.183846 -3.205709 0
M  V30 26 C -0.377262 -1.295665 0.494678 0
M  V30 27 C -0.444057 -2.298205 1.427389 0
M  V30 28 C 0.967577 -5.958583 3.882224 0
M  V30 29 C 1.190271 -7.305088 3.620681 0
M  V30 30 C 1.186103 -8.292275 4.612327 0
M  V30 31 C 0.948449 -7.899340 5.909016 0
M  V30 32 C 0.723116 -6.577031 6.212801 0
M  V30 33 C 0.737494 -5.649193 5.206848 0
M  V30 34 H 0.579846 -3.230298 3.966431 0
M  V30 35 H 2.844727 -2.193254 2.221830 0
M  V30 36 H 2.819823 -0.376222 0.491626 0
M  V30 37 H 0.315833 1.247150 1.341864 0
M  V30 38 H -1.193970 2.088961 3.049862 0
M  V30 39 H -3.027143 3.502402 2.393833 0
M  V30 40 H -3.280162 3.792177 -2.053286 0
M  V30 41 H -2.660255 5.362094 -3.454343 0
M  V30 42 H -1.181523 6.117752 -5.350244 0
M  V30 43 H 0.975584 4.934203 -5.796544 0
M  V30 44 H 1.650406 2.987308 -4.335992 0
M  V30 45 H -1.298901 -1.006317 -0.030303 0
M  V30 46 H -1.382220 -2.768422 1.618340 0
M  V30 47 H 1.385781 -7.678556 2.602937 0
M  V30 48 H 1.357052 -9.324405 4.410107 0
M  V30 49 H 0.924061 -8.584613 6.749305 0
M  V30 50 H 0.531046 -6.234245 7.236177 0
M  V30 51 H 0.560954 -4.624300 5.455634 0
M  V30 END ATOM
M  V30 BEGIN BOND
M  V30 1 2 1 2
M  V30 2 1 2 3
M  V30 3 1 3 4
M  V30 4 2 4 5
M  V30 5 1 5 6
M  V30 6 2 6 7
M  V30 7 1 7 8
M  V30 8 2 8 9
M  V30 9 1 9 10
M  V30 10 2 10 11
M  V30 11 1 11 12
M  V30 12 1 12 13
M  V30 13 2 13 14
M  V30 14 1 14 15
M  V30 15 2 15 16
M  V30 16 1 16 17
M  V30 17 2 17 18
M  V30 18 1 18 19
M  V30 19 1 19 20
M  V30 20 2 20 21
M  V30 21 1 21 22
M  V30 22 2 22 23
M  V30 23 1 23 24
M  V30 24 2 24 25
M  V30 25 1 7 26
M  V30 26 2 26 27
M  V30 27 1 2 28
M  V30 28 2 28 29
M  V30 29 1 29 30
M  V30 30 2 30 31
M  V30 31 1 31 32
M  V30 32 2 32 33
M  V30 33 1 27 4
M  V30 34 1 33 28
M  V30 35 1 12 8
M  V30 36 1 18 13
M  V30 37 1 25 20
M  V30 38 1 25 11
M  V30 39 1 3 34
M  V30 40 1 5 35
M  V30 41 1 6 36
M  V30 42 1 14 37
M  V30 43 1 15 38
M  V30 44 1 16 39
M  V30 45 1 19 40
M  V30 46 1 21 41
M  V30 47 1 22 42
M  V30 48 1 23 43
M  V30 49 1 24 44
M  V30 50 1 26 45
M  V30 51 1 27 46
M  V30 52 1 29 47
M  V30 53 1 30 48
M  V30 54 1 31 49
M  V30 55 1 32 50
M  V30 56 1 33 51
M  V30 END BOND
M  V30 END CTAB
M  END
>  <Dataset>  (451) 
ChEMBL_Kinases

>  <Ligand_Instance>  (451) 
nan

>  <PDB_ID>  (451) 
nan

>  <Standardized_SMILES>  (451) 
O=C(Nc1ccc(-c2nnc3n2-c2cccnc2Nc2ccccc2-3)cc1)c1ccccc1

>  <Name>  (451) 
nan

>  <Pocket>  (451) 
nan

>  <ATP_Site>  (451) 
nan

>  <Peripheral>  (451) 
nan

>  <Num_H_Atoms_ProtBoundConf>  (451) 
nan

>  <Num_Resolved_Atoms>  (451) 
nan

>  <Num_Not_Resolved_Atoms>  (451) 
nan

$$$$
CHEMBL3684368
     RDKit          3D

  0  0  0  0  0  0  0  0  0  0999 V3000
M  V30 BEGIN CTAB
M  V30 COUNTS 50 55 0 0 0
M  V30 BEGIN ATOM
M  V30 1 O 1.618736 -5.552867 1.642980 0
M  V30 2 C 1.422670 -5.073004 2.783806 0
M  V30 3 N 1.153947 -3.717817 3.007587 0
M  V30 4 C 1.056396 -2.672838 2.026584 0
M  V30 5 C 2.166217 -1.945262 1.652094 0
M  V30 6 C 2.042544 -0.947241 0.707195 0
M  V30 7 C 0.813665 -0.634588 0.099440 0
M  V30 8 C 0.619715 0.368218 -0.914459 0
M  V30 9 N 1.327537 0.123379 -2.055246 0
M  V30 10 N 1.054591 1.073024 -2.965864 0
M  V30 11 C 0.186359 1.916817 -2.425214 0
M  V30 12 N -0.064347 1.479374 -1.183658 0
M  V30 13 C -0.912235 2.027201 -0.199914 0
M  V30 14 C -0.494456 1.659650 1.049134 0
M  V30 15 C -1.259358 2.075420 2.118818 0
M  V30 16 C -2.400576 2.840832 1.860152 0
M  V30 17 N -2.807465 3.206535 0.606615 0
M  V30 18 C -2.038671 2.785844 -0.429931 0
M  V30 19 N -2.544171 3.307976 -1.679343 0
M  V30 20 C -1.637494 3.616385 -2.766186 0
M  V30 21 C -2.158471 4.676902 -3.516493 0
M  V30 22 C -1.412166 5.113146 -4.585242 0
M  V30 23 C -0.189257 4.533656 -4.917762 0
M  V30 24 C 0.338047 3.487676 -4.189518 0
M  V30 25 C -0.406397 3.051338 -3.123119 0
M  V30 26 C -0.245964 -1.438414 0.556759 0
M  V30 27 C -0.195128 -2.447769 1.492924 0
M  V30 28 C 1.490885 -6.021879 3.888867 0
M  V30 29 C 1.760455 -7.357527 3.619488 0
M  V30 30 C 1.835311 -8.302115 4.646538 0
M  V30 31 N 1.647990 -7.942589 5.925799 0
M  V30 32 C 1.385169 -6.655962 6.218367 0
M  V30 33 C 1.306257 -5.704836 5.221411 0
M  V30 34 H 0.989865 -3.312110 3.954365 0
M  V30 35 H 3.119986 -2.169054 2.106565 0
M  V30 36 H 2.904130 -0.352446 0.389048 0
M  V30 37 H 0.359919 1.133085 1.382184 0
M  V30 38 H -1.075095 1.872715 3.171965 0
M  V30 39 H -3.030497 3.186328 2.666865 0
M  V30 40 H -3.558854 3.475498 -1.786934 0
M  V30 41 H -3.112228 5.084362 -3.212631 0
M  V30 42 H -1.790823 5.931651 -5.182792 0
M  V30 43 H 0.402779 4.873522 -5.757998 0
M  V30 44 H 1.267419 2.963855 -4.351559 0
M  V30 45 H -1.214083 -1.209177 0.093532 0
M  V30 46 H -1.111106 -2.966257 1.727002 0
M  V30 47 H 1.925005 -7.751836 2.646474 0
M  V30 48 H 2.043897 -9.345955 4.458016 0
M  V30 49 H 1.224830 -6.303942 7.228349 0
M  V30 50 H 1.096045 -4.680341 5.464207 0
M  V30 END ATOM
M  V30 BEGIN BOND
M  V30 1 2 1 2
M  V30 2 1 2 3
M  V30 3 1 3 4
M  V30 4 2 4 5
M  V30 5 1 5 6
M  V30 6 2 6 7
M  V30 7 1 7 8
M  V30 8 2 8 9
M  V30 9 1 9 10
M  V30 10 2 10 11
M  V30 11 1 11 12
M  V30 12 1 12 13
M  V30 13 2 13 14
M  V30 14 1 14 15
M  V30 15 2 15 16
M  V30 16 1 16 17
M  V30 17 2 17 18
M  V30 18 1 18 19
M  V30 19 1 19 20
M  V30 20 2 20 21
M  V30 21 1 21 22
M  V30 22 2 22 23
M  V30 23 1 23 24
M  V30 24 2 24 25
M  V30 25 1 7 26
M  V30 26 2 26 27
M  V30 27 1 2 28
M  V30 28 2 28 29
M  V30 29 1 29 30
M  V30 30 2 30 31
M  V30 31 1 31 32
M  V30 32 2 32 33
M  V30 33 1 27 4
M  V30 34 1 33 28
M  V30 35 1 12 8
M  V30 36 1 18 13
M  V30 37 1 25 20
M  V30 38 1 25 11
M  V30 39 1 3 34
M  V30 40 1 5 35
M  V30 41 1 6 36
M  V30 42 1 14 37
M  V30 43 1 15 38
M  V30 44 1 16 39
M  V30 45 1 19 40
M  V30 46 1 21 41
M  V30 47 1 22 42
M  V30 48 1 23 43
M  V30 49 1 24 44
M  V30 50 1 26 45
M  V30 51 1 27 46
M  V30 52 1 29 47
M  V30 53 1 30 48
M  V30 54 1 32 49
M  V30 55 1 33 50
M  V30 END BOND
M  V30 END CTAB
M  END
>  <Dataset>  (452) 
ChEMBL_Kinases

>  <Ligand_Instance>  (452) 
nan

>  <PDB_ID>  (452) 
nan

>  <Standardized_SMILES>  (452) 
O=C(Nc1ccc(-c2nnc3n2-c2cccnc2Nc2ccccc2-3)cc1)c1ccncc1

>  <Name>  (452) 
nan

>  <Pocket>  (452) 
nan

>  <ATP_Site>  (452) 
nan

>  <Peripheral>  (452) 
nan

>  <Num_H_Atoms_ProtBoundConf>  (452) 
nan

>  <Num_Resolved_Atoms>  (452) 
nan

>  <Num_Not_Resolved_Atoms>  (452) 
nan

$$$$
CHEMBL3684367
     RDKit          3D

  0  0  0  0  0  0  0  0  0  0999 V3000
M  V30 BEGIN CTAB
M  V30 COUNTS 51 56 0 0 0
M  V30 BEGIN ATOM
M  V30 1 O -0.289039 -5.220274 0.424282 0
M  V30 2 C 0.920164 -5.439919 0.140659 0
M  V30 3 N 1.854844 -4.363074 -0.077259 0
M  V30 4 C 1.185183 -3.116976 0.080772 0
M  V30 5 C 1.147217 -2.535991 1.331915 0
M  V30 6 C 0.479427 -1.331788 1.396831 0
M  V30 7 C -0.144968 -0.672254 0.322198 0
M  V30 8 C -0.855876 0.576781 0.481512 0
M  V30 9 N -2.186971 0.490397 0.180700 0
M  V30 10 N -2.779769 1.668453 0.400198 0
M  V30 11 C -1.857662 2.510619 0.836058 0
M  V30 12 N -0.697605 1.840865 0.878085 0
M  V30 13 C 0.582344 2.286748 1.265376 0
M  V30 14 C 1.553858 1.536270 0.661448 0
M  V30 15 C 2.862926 1.824171 0.991213 0
M  V30 16 C 3.106034 2.849789 1.904835 0
M  V30 17 N 2.135372 3.602322 2.505208 0
M  V30 18 C 0.851356 3.297509 2.161851 0
M  V30 19 N -0.067831 4.211605 2.802761 0
M  V30 20 C -1.305837 4.587632 2.148456 0
M  V30 21 C -1.650133 5.890394 2.531176 0
M  V30 22 C -2.798965 6.416166 1.985567 0
M  V30 23 C -3.578094 5.692769 1.100480 0
M  V30 24 C -3.261658 4.411750 0.709689 0
M  V30 25 C -2.120054 3.883304 1.249780 0
M  V30 26 C -0.042347 -1.356958 -0.903632 0
M  V30 27 C 0.609032 -2.563441 -1.044511 0
M  V30 28 C 1.348527 -6.875435 0.038705 0
M  V30 29 C 0.138134 -7.752047 0.322060 0
M  V30 30 C -0.157739 -7.822704 -1.167012 0
M  V30 31 C 1.251370 -7.308434 -1.423527 0
M  V30 32 H 2.847111 -4.571210 -0.309921 0
M  V30 33 H 1.588913 -2.950299 2.219349 0
M  V30 34 H 0.426913 -0.835667 2.378808 0
M  V30 35 H 1.504980 0.776098 -0.071723 0
M  V30 36 H 3.758848 1.343300 0.622476 0
M  V30 37 H 4.095997 3.120794 2.203611 0
M  V30 38 H 0.171680 4.610006 3.728135 0
M  V30 39 H -0.999036 6.398751 3.228161 0
M  V30 40 H -3.089984 7.420765 2.262883 0
M  V30 41 H -4.493330 6.105318 0.662210 0
M  V30 42 H -3.793705 3.763108 0.032355 0
M  V30 43 H -0.510529 -0.874594 -1.738636 0
M  V30 44 H 0.643838 -3.023454 -2.014664 0
M  V30 45 H 2.278550 -7.140836 0.539443 0
M  V30 46 H 0.384161 -8.716232 0.809554 0
M  V30 47 H -0.708395 -7.251862 0.832625 0
M  V30 48 H -0.975210 -7.156713 -1.500919 0
M  V30 49 H -0.286444 -8.862948 -1.494954 0
M  V30 50 H 1.185898 -6.452463 -2.151724 0
M  V30 51 H 1.986205 -8.046818 -1.748281 0
M  V30 END ATOM
M  V30 BEGIN BOND
M  V30 1 2 1 2
M  V30 2 1 2 3
M  V30 3 1 3 4
M  V30 4 2 4 5
M  V30 5 1 5 6
M  V30 6 2 6 7
M  V30 7 1 7 8
M  V30 8 2 8 9
M  V30 9 1 9 10
M  V30 10 2 10 11
M  V30 11 1 11 12
M  V30 12 1 12 13
M  V30 13 2 13 14
M  V30 14 1 14 15
M  V30 15 2 15 16
M  V30 16 1 16 17
M  V30 17 2 17 18
M  V30 18 1 18 19
M  V30 19 1 19 20
M  V30 20 2 20 21
M  V30 21 1 21 22
M  V30 22 2 22 23
M  V30 23 1 23 24
M  V30 24 2 24 25
M  V30 25 1 7 26
M  V30 26 2 26 27
M  V30 27 1 2 28
M  V30 28 1 28 29
M  V30 29 1 29 30
M  V30 30 1 30 31
M  V30 31 1 27 4
M  V30 32 1 31 28
M  V30 33 1 12 8
M  V30 34 1 18 13
M  V30 35 1 25 20
M  V30 36 1 25 11
M  V30 37 1 3 32
M  V30 38 1 5 33
M  V30 39 1 6 34
M  V30 40 1 14 35
M  V30 41 1 15 36
M  V30 42 1 16 37
M  V30 43 1 19 38
M  V30 44 1 21 39
M  V30 45 1 22 40
M  V30 46 1 23 41
M  V30 47 1 24 42
M  V30 48 1 26 43
M  V30 49 1 27 44
M  V30 50 1 28 45
M  V30 51 1 29 46
M  V30 52 1 29 47
M  V30 53 1 30 48
M  V30 54 1 30 49
M  V30 55 1 31 50
M  V30 56 1 31 51
M  V30 END BOND
M  V30 END CTAB
M  END
>  <Dataset>  (453) 
ChEMBL_Kinases

>  <Ligand_Instance>  (453) 
nan

>  <PDB_ID>  (453) 
nan

>  <Standardized_SMILES>  (453) 
O=C(Nc1ccc(-c2nnc3n2-c2cccnc2Nc2ccccc2-3)cc1)C1CCC1

>  <Name>  (453) 
nan

>  <Pocket>  (453) 
nan

>  <ATP_Site>  (453) 
nan

>  <Peripheral>  (453) 
nan

>  <Num_H_Atoms_ProtBoundConf>  (453) 
nan

>  <Num_Resolved_Atoms>  (453) 
nan

>  <Num_Not_Resolved_Atoms>  (453) 
nan

$$$$
CHEMBL3684366
     RDKit          3D

  0  0  0  0  0  0  0  0  0  0999 V3000
M  V30 BEGIN CTAB
M  V30 COUNTS 51 56 0 0 0
M  V30 BEGIN ATOM
M  V30 1 O 0.996148 -2.954419 3.362912 0
M  V30 2 C 1.552315 -4.068962 3.100337 0
M  V30 3 N 1.973145 -4.138637 1.744018 0
M  V30 4 C 1.661557 -2.939857 1.031747 0
M  V30 5 C 2.566022 -1.898891 0.988192 0
M  V30 6 C 2.252767 -0.747497 0.297218 0
M  V30 7 C 1.024595 -0.593648 -0.375560 0
M  V30 8 C 0.647895 0.571077 -1.144053 0
M  V30 9 N 1.481037 0.795930 -2.197128 0
M  V30 10 N 1.040797 1.860767 -2.891671 0
M  V30 11 C -0.069600 2.317728 -2.288179 0
M  V30 12 N -0.282974 1.521148 -1.231474 0
M  V30 13 C -1.312326 1.575384 -0.270882 0
M  V30 14 C -0.899933 1.001621 0.899993 0
M  V30 15 C -1.822692 0.929778 1.923044 0
M  V30 16 C -3.100858 1.450175 1.681932 0
M  V30 17 N -3.512180 2.027499 0.512743 0
M  V30 18 C -2.581331 2.078441 -0.461181 0
M  V30 19 N -3.107204 2.776296 -1.614410 0
M  V30 20 C -2.241582 3.568849 -2.466196 0
M  V30 21 C -2.961130 4.634854 -3.010103 0
M  V30 22 C -2.275145 5.500014 -3.835550 0
M  V30 23 C -0.923232 5.311921 -4.110096 0
M  V30 24 C -0.190657 4.278180 -3.594006 0
M  V30 25 C -0.882845 3.426047 -2.776669 0
M  V30 26 C 0.173797 -1.713324 -0.269020 0
M  V30 27 C 0.432913 -2.886624 0.405681 0
M  V30 28 C 1.755981 -5.168003 4.038027 0
M  V30 29 C 2.359731 -6.375030 3.748003 0
M  V30 30 C 2.473719 -7.311832 4.754420 0
M  V30 31 C 1.996990 -7.053130 6.022827 0
M  V30 32 F 2.128195 -7.994597 6.976441 0
M  V30 33 C 1.388939 -5.845264 6.326524 0
M  V30 34 C 1.270951 -4.902392 5.324925 0
M  V30 35 H 2.447122 -4.992841 1.377106 0
M  V30 36 H 3.513541 -2.001666 1.499813 0
M  V30 37 H 2.936621 0.087173 0.242029 0
M  V30 38 H 0.036613 0.622410 1.212986 0
M  V30 39 H -1.690494 0.512609 2.919915 0
M  V30 40 H -3.863584 1.417724 2.449249 0
M  V30 41 H -4.120363 2.725775 -1.831087 0
M  V30 42 H -4.007270 4.711759 -2.751535 0
M  V30 43 H -2.815333 6.332984 -4.267141 0
M  V30 44 H -0.383025 6.009047 -4.770837 0
M  V30 45 H 0.840900 4.051127 -3.744726 0
M  V30 46 H -0.792721 -1.616911 -0.787000 0
M  V30 47 H -0.323947 -3.655302 0.394288 0
M  V30 48 H 2.706891 -6.499250 2.728243 0
M  V30 49 H 2.945340 -8.241619 4.508314 0
M  V30 50 H 1.017923 -5.650119 7.322912 0
M  V30 51 H 0.785687 -3.973210 5.619327 0
M  V30 END ATOM
M  V30 BEGIN BOND
M  V30 1 2 1 2
M  V30 2 1 2 3
M  V30 3 1 3 4
M  V30 4 2 4 5
M  V30 5 1 5 6
M  V30 6 2 6 7
M  V30 7 1 7 8
M  V30 8 2 8 9
M  V30 9 1 9 10
M  V30 10 2 10 11
M  V30 11 1 11 12
M  V30 12 1 12 13
M  V30 13 2 13 14
M  V30 14 1 14 15
M  V30 15 2 15 16
M  V30 16 1 16 17
M  V30 17 2 17 18
M  V30 18 1 18 19
M  V30 19 1 19 20
M  V30 20 2 20 21
M  V30 21 1 21 22
M  V30 22 2 22 23
M  V30 23 1 23 24
M  V30 24 2 24 25
M  V30 25 1 7 26
M  V30 26 2 26 27
M  V30 27 1 2 28
M  V30 28 2 28 29
M  V30 29 1 29 30
M  V30 30 2 30 31
M  V30 31 1 31 32
M  V30 32 1 31 33
M  V30 33 2 33 34
M  V30 34 1 27 4
M  V30 35 1 34 28
M  V30 36 1 12 8
M  V30 37 1 18 13
M  V30 38 1 25 20
M  V30 39 1 25 11
M  V30 40 1 3 35
M  V30 41 1 5 36
M  V30 42 1 6 37
M  V30 43 1 14 38
M  V30 44 1 15 39
M  V30 45 1 16 40
M  V30 46 1 19 41
M  V30 47 1 21 42
M  V30 48 1 22 43
M  V30 49 1 23 44
M  V30 50 1 24 45
M  V30 51 1 26 46
M  V30 52 1 27 47
M  V30 53 1 29 48
M  V30 54 1 30 49
M  V30 55 1 33 50
M  V30 56 1 34 51
M  V30 END BOND
M  V30 END CTAB
M  END
>  <Dataset>  (454) 
ChEMBL_Kinases

>  <Ligand_Instance>  (454) 
nan

>  <PDB_ID>  (454) 
nan

>  <Standardized_SMILES>  (454) 
O=C(Nc1ccc(-c2nnc3n2-c2cccnc2Nc2ccccc2-3)cc1)c1ccc(F)cc1

>  <Name>  (454) 
nan

>  <Pocket>  (454) 
nan

>  <ATP_Site>  (454) 
nan

>  <Peripheral>  (454) 
nan

>  <Num_H_Atoms_ProtBoundConf>  (454) 
nan

>  <Num_Resolved_Atoms>  (454) 
nan

>  <Num_Not_Resolved_Atoms>  (454) 
nan

$$$$
CHEMBL3684365
     RDKit          3D

  0  0  0  0  0  0  0  0  0  0999 V3000
M  V30 BEGIN CTAB
M  V30 COUNTS 55 61 0 0 0
M  V30 BEGIN ATOM
M  V30 1 O -1.469842 -0.691272 3.976840 0
M  V30 2 C -1.144878 0.535286 4.129751 0
M  V30 3 N -0.335291 0.990306 3.063244 0
M  V30 4 C -0.028933 0.033217 2.031152 0
M  V30 5 C 1.091876 -0.768070 2.119608 0
M  V30 6 C 1.367880 -1.678921 1.120213 0
M  V30 7 C 0.532426 -1.821564 -0.004719 0
M  V30 8 C 0.735518 -2.772151 -1.071763 0
M  V30 9 N 0.702618 -4.076644 -0.664854 0
M  V30 10 N 0.847773 -4.885964 -1.713807 0
M  V30 11 C 0.974189 -4.132101 -2.794452 0
M  V30 12 N 0.907966 -2.854629 -2.391671 0
M  V30 13 C 0.995140 -1.674493 -3.154343 0
M  V30 14 C 1.438113 -0.636559 -2.382171 0
M  V30 15 C 1.526680 0.607787 -2.972340 0
M  V30 16 C 1.161928 0.730414 -4.319038 0
M  V30 17 N 0.723914 -0.319486 -5.080484 0
M  V30 18 C 0.644325 -1.536712 -4.479574 0
M  V30 19 N 0.240857 -2.549184 -5.429913 0
M  V30 20 C 0.723824 -3.908525 -5.290512 0
M  V30 21 C 0.821112 -4.488477 -6.561403 0
M  V30 22 C 1.283150 -5.784840 -6.627730 0
M  V30 23 C 1.633898 -6.476526 -5.479963 0
M  V30 24 C 1.548803 -5.933815 -4.215143 0
M  V30 25 C 1.088647 -4.645766 -4.154436 0
M  V30 26 C -0.578339 -0.956087 0.009809 0
M  V30 27 C -0.911826 -0.027309 0.971530 0
M  V30 28 C -1.551004 1.387099 5.265885 0
M  V30 29 C -2.347957 0.762119 6.217196 0
M  V30 30 N -2.792453 1.420475 7.308202 0
M  V30 31 C -2.471380 2.712576 7.503935 0
M  V30 32 C -2.885718 3.459633 8.595146 0
M  V30 33 C -2.541456 4.783772 8.770910 0
M  V30 34 C -1.746217 5.331643 7.779478 0
M  V30 35 C -1.302896 4.627415 6.664857 0
M  V30 36 C -1.673695 3.306122 6.533937 0
M  V30 37 N -1.210159 2.673541 5.426238 0
M  V30 38 H 0.000648 1.998595 3.076788 0
M  V30 39 H 1.761854 -0.685948 2.975509 0
M  V30 40 H 2.239158 -2.330694 1.147677 0
M  V30 41 H 1.786446 -0.599070 -1.384650 0
M  V30 42 H 1.856161 1.537779 -2.505049 0
M  V30 43 H 1.213389 1.686212 -4.821255 0
M  V30 44 H -0.372487 -2.291068 -6.205375 0
M  V30 45 H 0.528178 -3.892195 -7.411502 0
M  V30 46 H 1.369788 -6.260819 -7.594374 0
M  V30 47 H 2.004953 -7.512833 -5.519517 0
M  V30 48 H 1.791651 -6.379127 -3.275156 0
M  V30 49 H -1.236857 -1.060242 -0.864977 0
M  V30 50 H -1.798990 0.554944 0.827127 0
M  V30 51 H -2.680976 -0.271649 6.184713 0
M  V30 52 H -3.509355 2.973957 9.341456 0
M  V30 53 H -2.870875 5.355422 9.626066 0
M  V30 54 H -1.454992 6.377045 7.886565 0
M  V30 55 H -0.681204 5.116444 5.923585 0
M  V30 END ATOM
M  V30 BEGIN BOND
M  V30 1 2 1 2
M  V30 2 1 2 3
M  V30 3 1 3 4
M  V30 4 2 4 5
M  V30 5 1 5 6
M  V30 6 2 6 7
M  V30 7 1 7 8
M  V30 8 2 8 9
M  V30 9 1 9 10
M  V30 10 2 10 11
M  V30 11 1 11 12
M  V30 12 1 12 13
M  V30 13 2 13 14
M  V30 14 1 14 15
M  V30 15 2 15 16
M  V30 16 1 16 17
M  V30 17 2 17 18
M  V30 18 1 18 19
M  V30 19 1 19 20
M  V30 20 2 20 21
M  V30 21 1 21 22
M  V30 22 2 22 23
M  V30 23 1 23 24
M  V30 24 2 24 25
M  V30 25 1 7 26
M  V30 26 2 26 27
M  V30 27 1 2 28
M  V30 28 2 28 29
M  V30 29 1 29 30
M  V30 30 2 30 31
M  V30 31 1 31 32
M  V30 32 2 32 33
M  V30 33 1 33 34
M  V30 34 2 34 35
M  V30 35 1 35 36
M  V30 36 2 36 37
M  V30 37 1 27 4
M  V30 38 1 37 28
M  V30 39 1 12 8
M  V30 40 1 18 13
M  V30 41 1 25 20
M  V30 42 1 36 31
M  V30 43 1 25 11
M  V30 44 1 3 38
M  V30 45 1 5 39
M  V30 46 1 6 40
M  V30 47 1 14 41
M  V30 48 1 15 42
M  V30 49 1 16 43
M  V30 50 1 19 44
M  V30 51 1 21 45
M  V30 52 1 22 46
M  V30 53 1 23 47
M  V30 54 1 24 48
M  V30 55 1 26 49
M  V30 56 1 27 50
M  V30 57 1 29 51
M  V30 58 1 32 52
M  V30 59 1 33 53
M  V30 60 1 34 54
M  V30 61 1 35 55
M  V30 END BOND
M  V30 END CTAB
M  END
>  <Dataset>  (455) 
ChEMBL_Kinases

>  <Ligand_Instance>  (455) 
nan

>  <PDB_ID>  (455) 
nan

>  <Standardized_SMILES>  (455) 
O=C(Nc1ccc(-c2nnc3n2-c2cccnc2Nc2ccccc2-3)cc1)c1cnc2ccccc2n1

>  <Name>  (455) 
nan

>  <Pocket>  (455) 
nan

>  <ATP_Site>  (455) 
nan

>  <Peripheral>  (455) 
nan

>  <Num_H_Atoms_ProtBoundConf>  (455) 
nan

>  <Num_Resolved_Atoms>  (455) 
nan

>  <Num_Not_Resolved_Atoms>  (455) 
nan

$$$$
CHEMBL3684364
     RDKit          3D

  0  0  0  0  0  0  0  0  0  0999 V3000
M  V30 BEGIN CTAB
M  V30 COUNTS 57 62 0 0 0
M  V30 BEGIN ATOM
M  V30 1 O 2.629691 0.304770 2.131649 0
M  V30 2 C 2.656104 0.271217 3.409726 0
M  V30 3 C 3.553063 0.239972 4.554931 0
M  V30 4 C 5.009662 0.241254 4.294437 0
M  V30 5 C 5.471002 -0.920027 3.492031 0
M  V30 6 C 5.854609 -2.092689 4.154468 0
M  V30 7 C 6.296066 -3.212937 3.482117 0
M  V30 8 C 6.376480 -3.216102 2.102763 0
M  V30 9 C 6.003525 -2.071403 1.431198 0
M  V30 10 C 5.566023 -0.964194 2.116559 0
M  V30 11 N 1.294740 0.262565 3.805921 0
M  V30 12 C 0.229126 0.289272 2.832185 0
M  V30 13 C -0.216305 -0.941453 2.395328 0
M  V30 14 C -1.234463 -0.871595 1.466028 0
M  V30 15 C -1.844986 0.250681 0.934717 0
M  V30 16 C -2.922407 0.178153 -0.005905 0
M  V30 17 N -4.089249 0.711485 0.465771 0
M  V30 18 N -5.057549 0.566294 -0.437823 0
M  V30 19 C -4.531848 -0.057729 -1.495437 0
M  V30 20 N -3.241285 -0.280401 -1.216609 0
M  V30 21 C -2.256949 -0.902263 -2.010109 0
M  V30 22 C -1.013439 -0.456127 -1.651914 0
M  V30 23 C 0.070622 -1.012489 -2.300792 0
M  V30 24 C -0.174075 -1.987614 -3.277061 0
M  V30 25 N -1.423994 -2.422248 -3.628891 0
M  V30 26 C -2.475448 -1.852497 -2.969014 0
M  V30 27 N -3.726231 -2.352999 -3.497091 0
M  V30 28 C -4.900767 -1.504349 -3.517917 0
M  V30 29 C -5.704865 -1.861065 -4.607952 0
M  V30 30 C -6.862133 -1.141062 -4.789647 0
M  V30 31 C -7.218012 -0.105080 -3.929330 0
M  V30 32 C -6.447175 0.258688 -2.858756 0
M  V30 33 C -5.291429 -0.456869 -2.672377 0
M  V30 34 C -1.309565 1.446116 1.453062 0
M  V30 35 C -0.293254 1.485184 2.383293 0
M  V30 36 H 3.316962 -0.710169 5.118030 0
M  V30 37 H 3.263946 1.043049 5.262235 0
M  V30 38 H 5.510353 0.163145 5.287199 0
M  V30 39 H 5.401516 1.183844 3.865893 0
M  V30 40 H 5.830196 -2.199301 5.245499 0
M  V30 41 H 6.596026 -4.124848 3.967724 0
M  V30 42 H 6.711982 -4.054381 1.508691 0
M  V30 43 H 6.061272 -2.058334 0.345489 0
M  V30 44 H 5.285615 -0.094035 1.579057 0
M  V30 45 H 0.782266 0.239265 4.721440 0
M  V30 46 H 0.152789 -1.897772 2.709853 0
M  V30 47 H -1.618955 -1.821047 1.091709 0
M  V30 48 H -0.693440 0.294584 -0.978756 0
M  V30 49 H 1.123918 -0.779906 -2.142642 0
M  V30 50 H 0.644686 -2.451960 -3.808803 0
M  V30 51 H -3.770600 -3.316413 -3.874326 0
M  V30 52 H -5.370779 -2.675251 -5.233177 0
M  V30 53 H -7.505112 -1.391906 -5.622588 0
M  V30 54 H -8.136915 0.468588 -4.072128 0
M  V30 55 H -6.622690 1.036786 -2.133119 0
M  V30 56 H -1.753343 2.374674 1.069627 0
M  V30 57 H 0.077038 2.435183 2.744627 0
M  V30 END ATOM
M  V30 BEGIN BOND
M  V30 1 2 1 2
M  V30 2 1 2 3
M  V30 3 1 3 4
M  V30 4 1 4 5
M  V30 5 2 5 6
M  V30 6 1 6 7
M  V30 7 2 7 8
M  V30 8 1 8 9
M  V30 9 2 9 10
M  V30 10 1 2 11
M  V30 11 1 11 12
M  V30 12 2 12 13
M  V30 13 1 13 14
M  V30 14 2 14 15
M  V30 15 1 15 16
M  V30 16 2 16 17
M  V30 17 1 17 18
M  V30 18 2 18 19
M  V30 19 1 19 20
M  V30 20 1 20 21
M  V30 21 2 21 22
M  V30 22 1 22 23
M  V30 23 2 23 24
M  V30 24 1 24 25
M  V30 25 2 25 26
M  V30 26 1 26 27
M  V30 27 1 27 28
M  V30 28 2 28 29
M  V30 29 1 29 30
M  V30 30 2 30 31
M  V30 31 1 31 32
M  V30 32 2 32 33
M  V30 33 1 15 34
M  V30 34 2 34 35
M  V30 35 1 10 5
M  V30 36 1 35 12
M  V30 37 1 20 16
M  V30 38 1 26 21
M  V30 39 1 33 28
M  V30 40 1 33 19
M  V30 41 1 3 36
M  V30 42 1 3 37
M  V30 43 1 4 38
M  V30 44 1 4 39
M  V30 45 1 6 40
M  V30 46 1 7 41
M  V30 47 1 8 42
M  V30 48 1 9 43
M  V30 49 1 10 44
M  V30 50 1 11 45
M  V30 51 1 13 46
M  V30 52 1 14 47
M  V30 53 1 22 48
M  V30 54 1 23 49
M  V30 55 1 24 50
M  V30 56 1 27 51
M  V30 57 1 29 52
M  V30 58 1 30 53
M  V30 59 1 31 54
M  V30 60 1 32 55
M  V30 61 1 34 56
M  V30 62 1 35 57
M  V30 END BOND
M  V30 END CTAB
M  END
>  <Dataset>  (456) 
ChEMBL_Kinases

>  <Ligand_Instance>  (456) 
nan

>  <PDB_ID>  (456) 
nan

>  <Standardized_SMILES>  (456) 
O=C(CCc1ccccc1)Nc1ccc(-c2nnc3n2-c2cccnc2Nc2ccccc2-3)cc1

>  <Name>  (456) 
nan

>  <Pocket>  (456) 
nan

>  <ATP_Site>  (456) 
nan

>  <Peripheral>  (456) 
nan

>  <Num_H_Atoms_ProtBoundConf>  (456) 
nan

>  <Num_Resolved_Atoms>  (456) 
nan

>  <Num_Not_Resolved_Atoms>  (456) 
nan

$$$$
CHEMBL3684363
     RDKit          3D

  0  0  0  0  0  0  0  0  0  0999 V3000
M  V30 BEGIN CTAB
M  V30 COUNTS 48 52 0 0 0
M  V30 BEGIN ATOM
M  V30 1 C 4.300061 0.141408 7.306988 0
M  V30 2 O 5.064943 0.892352 6.467967 0
M  V30 3 C 4.431298 1.707478 5.576460 0
M  V30 4 C 3.634365 1.055305 4.524817 0
M  V30 5 O 3.150114 2.041554 3.844897 0
M  V30 6 N 3.204232 -0.158884 3.979905 0
M  V30 7 C 2.349578 -0.110472 2.843721 0
M  V30 8 C 0.982381 -0.070749 3.022176 0
M  V30 9 C 0.249985 -0.026215 1.857104 0
M  V30 10 C 0.758543 -0.017915 0.542516 0
M  V30 11 C -0.101443 0.064444 -0.615444 0
M  V30 12 N 0.104134 1.191797 -1.350671 0
M  V30 13 N -0.763129 1.220335 -2.377645 0
M  V30 14 C -1.515586 0.128679 -2.304948 0
M  V30 15 N -1.101205 -0.563106 -1.235028 0
M  V30 16 C -1.567979 -1.791478 -0.725520 0
M  V30 17 C -0.584948 -2.419323 -0.013020 0
M  V30 18 C -0.910592 -3.613396 0.596711 0
M  V30 19 C -2.217653 -4.093927 0.439690 0
M  V30 20 N -3.204652 -3.471281 -0.275996 0
M  V30 21 C -2.844118 -2.291024 -0.865606 0
M  V30 22 N -3.943832 -1.775052 -1.649687 0
M  V30 23 C -3.691577 -1.010935 -2.855019 0
M  V30 24 C -4.738373 -1.218607 -3.762798 0
M  V30 25 C -4.644702 -0.573225 -4.973814 0
M  V30 26 C -3.571869 0.243414 -5.288152 0
M  V30 27 C -2.531380 0.464507 -4.414344 0
M  V30 28 C -2.620958 -0.176362 -3.205870 0
M  V30 29 C 2.165790 -0.060959 0.478232 0
M  V30 30 C 2.960088 -0.106777 1.605608 0
M  V30 31 H 3.641572 -0.532369 6.775738 0
M  V30 32 H 5.028652 -0.474409 7.921971 0
M  V30 33 H 3.732142 0.746225 8.055417 0
M  V30 34 H 3.810243 2.447496 6.157819 0
M  V30 35 H 5.237077 2.364404 5.131319 0
M  V30 36 H 3.630217 -0.915415 4.541782 0
M  V30 37 H 0.496080 -0.072813 3.966147 0
M  V30 38 H -0.850583 0.007395 1.909039 0
M  V30 39 H 0.435479 -2.187899 0.138307 0
M  V30 40 H -0.258027 -4.239737 1.198243 0
M  V30 41 H -2.527228 -5.020758 0.896171 0
M  V30 42 H -4.918003 -1.967046 -1.355518 0
M  V30 43 H -5.540346 -1.859436 -3.458734 0
M  V30 44 H -5.430374 -0.708194 -5.698438 0
M  V30 45 H -3.491047 0.761002 -6.253396 0
M  V30 46 H -1.653220 1.075854 -4.552581 0
M  V30 47 H 2.566301 -0.054808 -0.535368 0
M  V30 48 H 4.033573 -0.138289 1.483574 0
M  V30 END ATOM
M  V30 BEGIN BOND
M  V30 1 1 1 2
M  V30 2 1 2 3
M  V30 3 1 3 4
M  V30 4 2 4 5
M  V30 5 1 4 6
M  V30 6 1 6 7
M  V30 7 2 7 8
M  V30 8 1 8 9
M  V30 9 2 9 10
M  V30 10 1 10 11
M  V30 11 2 11 12
M  V30 12 1 12 13
M  V30 13 2 13 14
M  V30 14 1 14 15
M  V30 15 1 15 16
M  V30 16 2 16 17
M  V30 17 1 17 18
M  V30 18 2 18 19
M  V30 19 1 19 20
M  V30 20 2 20 21
M  V30 21 1 21 22
M  V30 22 1 22 23
M  V30 23 2 23 24
M  V30 24 1 24 25
M  V30 25 2 25 26
M  V30 26 1 26 27
M  V30 27 2 27 28
M  V30 28 1 10 29
M  V30 29 2 29 30
M  V30 30 1 30 7
M  V30 31 1 15 11
M  V30 32 1 21 16
M  V30 33 1 28 23
M  V30 34 1 28 14
M  V30 35 1 1 31
M  V30 36 1 1 32
M  V30 37 1 1 33
M  V30 38 1 3 34
M  V30 39 1 3 35
M  V30 40 1 6 36
M  V30 41 1 8 37
M  V30 42 1 9 38
M  V30 43 1 17 39
M  V30 44 1 18 40
M  V30 45 1 19 41
M  V30 46 1 22 42
M  V30 47 1 24 43
M  V30 48 1 25 44
M  V30 49 1 26 45
M  V30 50 1 27 46
M  V30 51 1 29 47
M  V30 52 1 30 48
M  V30 END BOND
M  V30 END CTAB
M  END
>  <Dataset>  (457) 
ChEMBL_Kinases

>  <Ligand_Instance>  (457) 
nan

>  <PDB_ID>  (457) 
nan

>  <Standardized_SMILES>  (457) 
COCC(=O)Nc1ccc(-c2nnc3n2-c2cccnc2Nc2ccccc2-3)cc1

>  <Name>  (457) 
nan

>  <Pocket>  (457) 
nan

>  <ATP_Site>  (457) 
nan

>  <Peripheral>  (457) 
nan

>  <Num_H_Atoms_ProtBoundConf>  (457) 
nan

>  <Num_Resolved_Atoms>  (457) 
nan

>  <Num_Not_Resolved_Atoms>  (457) 
nan

$$$$
CHEMBL3684362
     RDKit          3D

  0  0  0  0  0  0  0  0  0  0999 V3000
M  V30 BEGIN CTAB
M  V30 COUNTS 54 59 0 0 0
M  V30 BEGIN ATOM
M  V30 1 O 0.726705 -3.963505 3.644681 0
M  V30 2 C 0.392432 -2.945221 4.300327 0
M  V30 3 N 0.261308 -1.737496 3.592759 0
M  V30 4 C 0.447146 -1.440309 2.197855 0
M  V30 5 C 1.678446 -1.050580 1.712665 0
M  V30 6 C 1.830063 -0.771261 0.370280 0
M  V30 7 C 0.761180 -0.869587 -0.539081 0
M  V30 8 C 0.853195 -0.626210 -1.957545 0
M  V30 9 N 1.711459 -1.473326 -2.593579 0
M  V30 10 N 1.706645 -1.220955 -3.909717 0
M  V30 11 C 0.849917 -0.215912 -4.126004 0
M  V30 12 N 0.348582 0.129863 -2.932398 0
M  V30 13 C -0.587475 1.135259 -2.619156 0
M  V30 14 C -0.426802 1.548061 -1.325670 0
M  V30 15 C -1.310429 2.495094 -0.851490 0
M  V30 16 C -2.301372 2.966581 -1.720648 0
M  V30 17 N -2.454166 2.552089 -3.015636 0
M  V30 18 C -1.568415 1.617731 -3.456078 0
M  V30 19 N -1.795798 1.329276 -4.853567 0
M  V30 20 C -0.691459 0.969911 -5.719401 0
M  V30 21 C -0.962470 1.409595 -7.020911 0
M  V30 22 C -0.008033 1.166535 -7.979318 0
M  V30 23 C 1.182445 0.506689 -7.660820 0
M  V30 24 C 1.474966 0.062642 -6.388804 0
M  V30 25 C 0.513741 0.311356 -5.442970 0
M  V30 26 C -0.443964 -1.274096 0.063517 0
M  V30 27 C -0.664779 -1.567727 1.391021 0
M  V30 28 C 0.133719 -2.935263 5.736560 0
M  V30 29 C -0.234736 -1.859593 6.515141 0
M  V30 30 C -0.448303 -1.982304 7.857051 0
M  V30 31 C -0.304090 -3.203195 8.507008 0
M  V30 32 C -0.563321 -3.213340 9.970279 0
M  V30 33 F -0.293329 -1.987849 10.530488 0
M  V30 34 F 0.213165 -4.178526 10.618534 0
M  V30 35 F -1.883688 -3.587483 10.165330 0
M  V30 36 C 0.062098 -4.273100 7.734228 0
M  V30 37 C 0.281764 -4.168529 6.379828 0
M  V30 38 H -0.008059 -0.807120 3.990001 0
M  V30 39 H 2.528576 -0.961169 2.373869 0
M  V30 40 H 2.772898 -0.468120 -0.027514 0
M  V30 41 H 0.296169 1.311816 -0.591559 0
M  V30 42 H -1.328936 2.931077 0.145604 0
M  V30 43 H -3.018252 3.706478 -1.396141 0
M  V30 44 H -2.753690 1.396864 -5.237707 0
M  V30 45 H -1.902751 1.909669 -7.195175 0
M  V30 46 H -0.187734 1.494018 -8.994663 0
M  V30 47 H 1.946642 0.310894 -8.420891 0
M  V30 48 H 2.339689 -0.443968 -6.044750 0
M  V30 49 H -1.279597 -1.353721 -0.632321 0
M  V30 50 H -1.656730 -1.864298 1.685329 0
M  V30 51 H -0.338941 -0.938197 5.998694 0
M  V30 52 H -0.737617 -1.096637 8.419431 0
M  V30 53 H 0.166501 -5.208670 8.266437 0
M  V30 54 H 0.566444 -5.097686 5.895295 0
M  V30 END ATOM
M  V30 BEGIN BOND
M  V30 1 2 1 2
M  V30 2 1 2 3
M  V30 3 1 3 4
M  V30 4 2 4 5
M  V30 5 1 5 6
M  V30 6 2 6 7
M  V30 7 1 7 8
M  V30 8 2 8 9
M  V30 9 1 9 10
M  V30 10 2 10 11
M  V30 11 1 11 12
M  V30 12 1 12 13
M  V30 13 2 13 14
M  V30 14 1 14 15
M  V30 15 2 15 16
M  V30 16 1 16 17
M  V30 17 2 17 18
M  V30 18 1 18 19
M  V30 19 1 19 20
M  V30 20 2 20 21
M  V30 21 1 21 22
M  V30 22 2 22 23
M  V30 23 1 23 24
M  V30 24 2 24 25
M  V30 25 1 7 26
M  V30 26 2 26 27
M  V30 27 1 2 28
M  V30 28 2 28 29
M  V30 29 1 29 30
M  V30 30 2 30 31
M  V30 31 1 31 32
M  V30 32 1 32 33
M  V30 33 1 32 34
M  V30 34 1 32 35
M  V30 35 1 31 36
M  V30 36 2 36 37
M  V30 37 1 27 4
M  V30 38 1 37 28
M  V30 39 1 12 8
M  V30 40 1 18 13
M  V30 41 1 25 20
M  V30 42 1 25 11
M  V30 43 1 3 38
M  V30 44 1 5 39
M  V30 45 1 6 40
M  V30 46 1 14 41
M  V30 47 1 15 42
M  V30 48 1 16 43
M  V30 49 1 19 44
M  V30 50 1 21 45
M  V30 51 1 22 46
M  V30 52 1 23 47
M  V30 53 1 24 48
M  V30 54 1 26 49
M  V30 55 1 27 50
M  V30 56 1 29 51
M  V30 57 1 30 52
M  V30 58 1 36 53
M  V30 59 1 37 54
M  V30 END BOND
M  V30 END CTAB
M  END
>  <Dataset>  (458) 
ChEMBL_Kinases

>  <Ligand_Instance>  (458) 
nan

>  <PDB_ID>  (458) 
nan

>  <Standardized_SMILES>  (458) 
O=C(Nc1ccc(-c2nnc3n2-c2cccnc2Nc2ccccc2-3)cc1)c1ccc(C(F)(F)F)cc1

>  <Name>  (458) 
nan

>  <Pocket>  (458) 
nan

>  <ATP_Site>  (458) 
nan

>  <Peripheral>  (458) 
nan

>  <Num_H_Atoms_ProtBoundConf>  (458) 
nan

>  <Num_Resolved_Atoms>  (458) 
nan

>  <Num_Not_Resolved_Atoms>  (458) 
nan

$$$$
CHEMBL3684361
     RDKit          3D

  0  0  0  0  0  0  0  0  0  0999 V3000
M  V30 BEGIN CTAB
M  V30 COUNTS 51 56 0 0 0
M  V30 BEGIN ATOM
M  V30 1 O 1.399783 -4.452355 2.319160 0
M  V30 2 C 1.520119 -4.150662 3.553342 0
M  V30 3 N 1.346271 -2.769731 3.711806 0
M  V30 4 C 1.082134 -2.018991 2.511808 0
M  V30 5 C 2.140020 -1.500139 1.793248 0
M  V30 6 C 1.872355 -0.783638 0.646679 0
M  V30 7 C 0.566971 -0.556404 0.174172 0
M  V30 8 C 0.254482 0.160730 -1.039514 0
M  V30 9 N 0.775516 -0.433975 -2.147764 0
M  V30 10 N 0.398213 0.263128 -3.232547 0
M  V30 11 C -0.358866 1.297792 -2.832299 0
M  V30 12 N -0.426054 1.212181 -1.497080 0
M  V30 13 C -1.091943 2.055824 -0.586999 0
M  V30 14 C -0.501165 1.996282 0.644247 0
M  V30 15 C -1.079556 2.730233 1.658226 0
M  V30 16 C -2.222496 3.483057 1.360099 0
M  V30 17 N -2.808942 3.543491 0.125046 0
M  V30 18 C -2.213155 2.805761 -0.859716 0
M  V30 19 N -2.889306 3.023844 -2.117485 0
M  V30 20 C -2.150363 2.972246 -3.361564 0
M  V30 21 C -2.740539 3.833219 -4.293328 0
M  V30 22 C -2.148477 3.916420 -5.533037 0
M  V30 23 C -1.013958 3.176368 -5.843228 0
M  V30 24 C -0.413024 2.324116 -4.952506 0
M  V30 25 C -1.008709 2.248132 -3.724604 0
M  V30 26 C -0.414194 -1.136904 0.996106 0
M  V30 27 C -0.234768 -1.853784 2.135364 0
M  V30 28 C 1.795886 -5.145499 4.579939 0
M  V30 29 C 1.919283 -6.463310 4.117919 0
M  V30 30 C 2.175496 -7.505884 4.946922 0
M  V30 31 C 2.331095 -7.344352 6.289578 0
M  V30 32 C 2.213671 -6.055594 6.765933 0
M  V30 33 C 1.956535 -5.008518 5.934678 0
M  V30 34 F 1.841379 -3.757940 6.387673 0
M  V30 35 H 1.417300 -2.373343 4.674276 0
M  V30 36 H 3.149496 -1.651794 2.120945 0
M  V30 37 H 2.681547 -0.357048 0.050433 0
M  V30 38 H 0.375696 1.513490 0.982767 0
M  V30 39 H -0.732181 2.788639 2.696731 0
M  V30 40 H -2.709761 4.071363 2.124754 0
M  V30 41 H -3.903407 3.233961 -2.128266 0
M  V30 42 H -3.622192 4.374284 -3.981584 0
M  V30 43 H -2.588002 4.576064 -6.269030 0
M  V30 44 H -0.543901 3.246529 -6.835419 0
M  V30 45 H 0.457805 1.713165 -5.094559 0
M  V30 46 H -1.445560 -0.974476 0.649565 0
M  V30 47 H -1.094881 -2.239694 2.663269 0
M  V30 48 H 1.808748 -6.690405 3.045790 0
M  V30 49 H 2.262287 -8.505273 4.545610 0
M  V30 50 H 2.535625 -8.111007 7.020578 0
M  V30 51 H 2.325395 -5.846310 7.828528 0
M  V30 END ATOM
M  V30 BEGIN BOND
M  V30 1 2 1 2
M  V30 2 1 2 3
M  V30 3 1 3 4
M  V30 4 2 4 5
M  V30 5 1 5 6
M  V30 6 2 6 7
M  V30 7 1 7 8
M  V30 8 2 8 9
M  V30 9 1 9 10
M  V30 10 2 10 11
M  V30 11 1 11 12
M  V30 12 1 12 13
M  V30 13 2 13 14
M  V30 14 1 14 15
M  V30 15 2 15 16
M  V30 16 1 16 17
M  V30 17 2 17 18
M  V30 18 1 18 19
M  V30 19 1 19 20
M  V30 20 2 20 21
M  V30 21 1 21 22
M  V30 22 2 22 23
M  V30 23 1 23 24
M  V30 24 2 24 25
M  V30 25 1 7 26
M  V30 26 2 26 27
M  V30 27 1 2 28
M  V30 28 2 28 29
M  V30 29 1 29 30
M  V30 30 2 30 31
M  V30 31 1 31 32
M  V30 32 2 32 33
M  V30 33 1 33 34
M  V30 34 1 27 4
M  V30 35 1 33 28
M  V30 36 1 12 8
M  V30 37 1 18 13
M  V30 38 1 25 20
M  V30 39 1 25 11
M  V30 40 1 3 35
M  V30 41 1 5 36
M  V30 42 1 6 37
M  V30 43 1 14 38
M  V30 44 1 15 39
M  V30 45 1 16 40
M  V30 46 1 19 41
M  V30 47 1 21 42
M  V30 48 1 22 43
M  V30 49 1 23 44
M  V30 50 1 24 45
M  V30 51 1 26 46
M  V30 52 1 27 47
M  V30 53 1 29 48
M  V30 54 1 30 49
M  V30 55 1 31 50
M  V30 56 1 32 51
M  V30 END BOND
M  V30 END CTAB
M  END
>  <Dataset>  (459) 
ChEMBL_Kinases

>  <Ligand_Instance>  (459) 
nan

>  <PDB_ID>  (459) 
nan

>  <Standardized_SMILES>  (459) 
O=C(Nc1ccc(-c2nnc3n2-c2cccnc2Nc2ccccc2-3)cc1)c1ccccc1F

>  <Name>  (459) 
nan

>  <Pocket>  (459) 
nan

>  <ATP_Site>  (459) 
nan

>  <Peripheral>  (459) 
nan

>  <Num_H_Atoms_ProtBoundConf>  (459) 
nan

>  <Num_Resolved_Atoms>  (459) 
nan

>  <Num_Not_Resolved_Atoms>  (459) 
nan

$$$$
CHEMBL3684360
     RDKit          3D

  0  0  0  0  0  0  0  0  0  0999 V3000
M  V30 BEGIN CTAB
M  V30 COUNTS 48 53 0 0 0
M  V30 BEGIN ATOM
M  V30 1 O -0.904036 -5.049341 -0.851276 0
M  V30 2 C 0.270312 -5.461652 -1.039897 0
M  V30 3 N 1.298395 -4.509066 -0.940310 0
M  V30 4 C 0.764378 -3.217539 -0.632067 0
M  V30 5 C 0.640331 -2.898495 0.703112 0
M  V30 6 C 0.122508 -1.646813 0.955552 0
M  V30 7 C -0.281406 -0.687680 0.008862 0
M  V30 8 C -0.842929 0.582340 0.409531 0
M  V30 9 N -2.134851 0.768276 0.004286 0
M  V30 10 N -2.587162 1.941741 0.460942 0
M  V30 11 C -1.613167 2.512989 1.150805 0
M  V30 12 N -0.561224 1.682829 1.110021 0
M  V30 13 C 0.713883 1.834896 1.681808 0
M  V30 14 C 1.640659 1.105080 0.990570 0
M  V30 15 C 2.936062 1.107776 1.463872 0
M  V30 16 C 3.235752 1.849966 2.612681 0
M  V30 17 N 2.286718 2.575904 3.283108 0
M  V30 18 C 1.011113 2.566838 2.807696 0
M  V30 19 N 0.166023 3.439540 3.587008 0
M  V30 20 C -0.939637 4.130239 2.958125 0
M  V30 21 C -1.150177 5.346139 3.622006 0
M  V30 22 C -2.163609 6.149875 3.142869 0
M  V30 23 C -2.946641 5.775125 2.048013 0
M  V30 24 C -2.746568 4.580669 1.389830 0
M  V30 25 C -1.740592 3.777669 1.862646 0
M  V30 26 C -0.114753 -1.109434 -1.322558 0
M  V30 27 C 0.397711 -2.349164 -1.639935 0
M  V30 28 C 0.464774 -6.875244 -1.342247 0
M  V30 29 C -0.588171 -7.763548 -1.426592 0
M  V30 30 C -0.029073 -9.008542 -1.727748 0
M  V30 31 C 1.344178 -8.789305 -1.807030 0
M  V30 32 O 1.594979 -7.505349 -1.570836 0
M  V30 33 H 2.275357 -4.842918 -1.095343 0
M  V30 34 H 0.902793 -3.518296 1.548771 0
M  V30 35 H -0.001123 -1.333128 2.005290 0
M  V30 36 H 1.572829 0.545998 0.096871 0
M  V30 37 H 3.791693 0.578862 1.032732 0
M  V30 38 H 4.241667 1.868949 3.008047 0
M  V30 39 H 0.371693 3.575178 4.591532 0
M  V30 40 H -0.518406 5.580976 4.460515 0
M  V30 41 H -2.354474 7.096021 3.631014 0
M  V30 42 H -3.742642 6.400643 1.666673 0
M  V30 43 H -3.283008 4.188822 0.542196 0
M  V30 44 H -0.421654 -0.381124 -2.063523 0
M  V30 45 H 0.511423 -2.638867 -2.680865 0
M  V30 46 H -1.644609 -7.604052 -1.299474 0
M  V30 47 H -0.549360 -9.957104 -1.872120 0
M  V30 48 H 2.048070 -9.583892 -2.030438 0
M  V30 END ATOM
M  V30 BEGIN BOND
M  V30 1 2 1 2
M  V30 2 1 2 3
M  V30 3 1 3 4
M  V30 4 2 4 5
M  V30 5 1 5 6
M  V30 6 2 6 7
M  V30 7 1 7 8
M  V30 8 2 8 9
M  V30 9 1 9 10
M  V30 10 2 10 11
M  V30 11 1 11 12
M  V30 12 1 12 13
M  V30 13 2 13 14
M  V30 14 1 14 15
M  V30 15 2 15 16
M  V30 16 1 16 17
M  V30 17 2 17 18
M  V30 18 1 18 19
M  V30 19 1 19 20
M  V30 20 2 20 21
M  V30 21 1 21 22
M  V30 22 2 22 23
M  V30 23 1 23 24
M  V30 24 2 24 25
M  V30 25 1 7 26
M  V30 26 2 26 27
M  V30 27 1 2 28
M  V30 28 2 28 29
M  V30 29 1 29 30
M  V30 30 2 30 31
M  V30 31 1 31 32
M  V30 32 1 27 4
M  V30 33 1 32 28
M  V30 34 1 12 8
M  V30 35 1 18 13
M  V30 36 1 25 20
M  V30 37 1 25 11
M  V30 38 1 3 33
M  V30 39 1 5 34
M  V30 40 1 6 35
M  V30 41 1 14 36
M  V30 42 1 15 37
M  V30 43 1 16 38
M  V30 44 1 19 39
M  V30 45 1 21 40
M  V30 46 1 22 41
M  V30 47 1 23 42
M  V30 48 1 24 43
M  V30 49 1 26 44
M  V30 50 1 27 45
M  V30 51 1 29 46
M  V30 52 1 30 47
M  V30 53 1 31 48
M  V30 END BOND
M  V30 END CTAB
M  END
>  <Dataset>  (460) 
ChEMBL_Kinases

>  <Ligand_Instance>  (460) 
nan

>  <PDB_ID>  (460) 
nan

>  <Standardized_SMILES>  (460) 
O=C(Nc1ccc(-c2nnc3n2-c2cccnc2Nc2ccccc2-3)cc1)c1ccco1

>  <Name>  (460) 
nan

>  <Pocket>  (460) 
nan

>  <ATP_Site>  (460) 
nan

>  <Peripheral>  (460) 
nan

>  <Num_H_Atoms_ProtBoundConf>  (460) 
nan

>  <Num_Resolved_Atoms>  (460) 
nan

>  <Num_Not_Resolved_Atoms>  (460) 
nan

$$$$
CHEMBL3684359
     RDKit          3D

  0  0  0  0  0  0  0  0  0  0999 V3000
M  V30 BEGIN CTAB
M  V30 COUNTS 54 59 0 0 0
M  V30 BEGIN ATOM
M  V30 1 O 3.514727 1.465657 1.246657 0
M  V30 2 C 2.977897 2.478421 0.722254 0
M  V30 3 C 3.791627 3.706153 0.963161 0
M  V30 4 C 5.008040 3.399543 1.754170 0
M  V30 5 C 6.233656 3.050965 1.212567 0
M  V30 6 C 7.300769 2.786110 2.048809 0
M  V30 7 C 7.167300 2.862885 3.422385 0
M  V30 8 C 5.943334 3.211214 3.972063 0
M  V30 9 C 4.879523 3.474935 3.127407 0
M  V30 10 N 1.777399 2.595491 -0.019601 0
M  V30 11 C 1.113348 1.318575 -0.160128 0
M  V30 12 C 0.215093 1.031842 0.848268 0
M  V30 13 C -0.423807 -0.184681 0.724516 0
M  V30 14 C -0.250215 -1.132081 -0.303318 0
M  V30 15 C -0.964816 -2.388787 -0.290379 0
M  V30 16 N -0.144582 -3.472141 -0.193965 0
M  V30 17 N -0.873884 -4.595777 -0.136632 0
M  V30 18 C -2.156526 -4.240712 -0.195403 0
M  V30 19 N -2.194747 -2.903657 -0.291584 0
M  V30 20 C -3.307535 -2.046023 -0.386270 0
M  V30 21 C -2.955621 -0.878365 -1.006970 0
M  V30 22 C -3.927595 0.093030 -1.127357 0
M  V30 23 C -5.196692 -0.192548 -0.607826 0
M  V30 24 N -5.547140 -1.361517 0.008363 0
M  V30 25 C -4.571660 -2.286567 0.107202 0
M  V30 26 N -5.081344 -3.504365 0.704892 0
M  V30 27 C -4.555390 -4.790651 0.338588 0
M  V30 28 C -5.555793 -5.759172 0.446073 0
M  V30 29 C -5.222644 -7.054687 0.112130 0
M  V30 30 C -3.953152 -7.384788 -0.311528 0
M  V30 31 C -2.942446 -6.460751 -0.429466 0
M  V30 32 C -3.276899 -5.170158 -0.095414 0
M  V30 33 C 0.685451 -0.745576 -1.280718 0
M  V30 34 C 1.355282 0.457394 -1.211129 0
M  V30 35 H 4.149779 4.027688 -0.056978 0
M  V30 36 H 3.218823 4.548043 1.348742 0
M  V30 37 H 6.239206 3.017646 0.132246 0
M  V30 38 H 8.231165 2.518609 1.535558 0
M  V30 39 H 8.039391 2.644354 4.032513 0
M  V30 40 H 5.819762 3.276501 5.044542 0
M  V30 41 H 3.939098 3.743912 3.603086 0
M  V30 42 H 1.503468 3.537101 -0.373062 0
M  V30 43 H -0.025236 1.647020 1.692595 0
M  V30 44 H -1.148574 -0.482572 1.482928 0
M  V30 45 H -2.060552 -0.566093 -1.475976 0
M  V30 46 H -3.839695 1.076980 -1.583061 0
M  V30 47 H -6.000008 0.528027 -0.668775 0
M  V30 48 H -5.850150 -3.440025 1.396706 0
M  V30 49 H -6.529015 -5.434403 0.786586 0
M  V30 50 H -5.982217 -7.821764 0.188037 0
M  V30 51 H -3.678595 -8.414337 -0.580229 0
M  V30 52 H -1.921639 -6.610278 -0.748568 0
M  V30 53 H 0.853216 -1.440327 -2.090477 0
M  V30 54 H 2.071771 0.741255 -1.969533 0
M  V30 END ATOM
M  V30 BEGIN BOND
M  V30 1 2 1 2
M  V30 2 1 2 3
M  V30 3 1 3 4
M  V30 4 2 4 5
M  V30 5 1 5 6
M  V30 6 2 6 7
M  V30 7 1 7 8
M  V30 8 2 8 9
M  V30 9 1 2 10
M  V30 10 1 10 11
M  V30 11 2 11 12
M  V30 12 1 12 13
M  V30 13 2 13 14
M  V30 14 1 14 15
M  V30 15 2 15 16
M  V30 16 1 16 17
M  V30 17 2 17 18
M  V30 18 1 18 19
M  V30 19 1 19 20
M  V30 20 2 20 21
M  V30 21 1 21 22
M  V30 22 2 22 23
M  V30 23 1 23 24
M  V30 24 2 24 25
M  V30 25 1 25 26
M  V30 26 1 26 27
M  V30 27 2 27 28
M  V30 28 1 28 29
M  V30 29 2 29 30
M  V30 30 1 30 31
M  V30 31 2 31 32
M  V30 32 1 14 33
M  V30 33 2 33 34
M  V30 34 1 9 4
M  V30 35 1 34 11
M  V30 36 1 19 15
M  V30 37 1 25 20
M  V30 38 1 32 27
M  V30 39 1 32 18
M  V30 40 1 3 35
M  V30 41 1 3 36
M  V30 42 1 5 37
M  V30 43 1 6 38
M  V30 44 1 7 39
M  V30 45 1 8 40
M  V30 46 1 9 41
M  V30 47 1 10 42
M  V30 48 1 12 43
M  V30 49 1 13 44
M  V30 50 1 21 45
M  V30 51 1 22 46
M  V30 52 1 23 47
M  V30 53 1 26 48
M  V30 54 1 28 49
M  V30 55 1 29 50
M  V30 56 1 30 51
M  V30 57 1 31 52
M  V30 58 1 33 53
M  V30 59 1 34 54
M  V30 END BOND
M  V30 END CTAB
M  END
>  <Dataset>  (461) 
ChEMBL_Kinases

>  <Ligand_Instance>  (461) 
nan

>  <PDB_ID>  (461) 
nan

>  <Standardized_SMILES>  (461) 
O=C(Cc1ccccc1)Nc1ccc(-c2nnc3n2-c2cccnc2Nc2ccccc2-3)cc1

>  <Name>  (461) 
nan

>  <Pocket>  (461) 
nan

>  <ATP_Site>  (461) 
nan

>  <Peripheral>  (461) 
nan

>  <Num_H_Atoms_ProtBoundConf>  (461) 
nan

>  <Num_Resolved_Atoms>  (461) 
nan

>  <Num_Not_Resolved_Atoms>  (461) 
nan

$$$$
CHEMBL3684341
     RDKit          3D

  0  0  0  0  0  0  0  0  0  0999 V3000
M  V30 BEGIN CTAB
M  V30 COUNTS 54 59 0 0 0
M  V30 BEGIN ATOM
M  V30 1 C 9.695308 0.031028 1.313649 0
M  V30 2 C 8.204524 -0.074939 1.288013 0
M  V30 3 C 7.469012 0.917134 0.652802 0
M  V30 4 C 6.091371 0.804556 0.637805 0
M  V30 5 C 5.478830 -0.272956 1.243598 0
M  V30 6 C 4.035929 -0.487722 1.285662 0
M  V30 7 O 3.450337 -1.471388 1.836721 0
M  V30 8 N 3.121057 0.411726 0.695501 0
M  V30 9 C 1.747922 0.026586 0.843259 0
M  V30 10 C 1.024553 0.452224 1.941853 0
M  V30 11 C -0.296845 0.077125 2.076816 0
M  V30 12 C -0.939255 -0.733668 1.121810 0
M  V30 13 C -2.307492 -1.190833 1.216910 0
M  V30 14 N -2.551714 -1.973742 2.312620 0
M  V30 15 N -3.809296 -2.394990 2.307417 0
M  V30 16 C -4.397566 -1.895650 1.215332 0
M  V30 17 N -3.474728 -1.167754 0.570723 0
M  V30 18 C -3.595167 -0.434250 -0.627178 0
M  V30 19 C -2.673496 0.576394 -0.653716 0
M  V30 20 C -2.629292 1.354166 -1.792518 0
M  V30 21 C -3.526057 1.054430 -2.826692 0
M  V30 22 N -4.449325 0.045601 -2.795602 0
M  V30 23 C -4.462236 -0.699706 -1.654640 0
M  V30 24 N -5.527506 -1.676763 -1.717422 0
M  V30 25 C -6.216218 -2.094223 -0.511750 0
M  V30 26 C -7.539551 -2.428820 -0.823680 0
M  V30 27 C -8.341732 -2.833479 0.221080 0
M  V30 28 C -7.871919 -2.910280 1.527168 0
M  V30 29 C -6.572301 -2.585190 1.850779 0
M  V30 30 C -5.769206 -2.182143 0.813808 0
M  V30 31 C -0.110759 -1.107866 0.047586 0
M  V30 32 C 1.211694 -0.769587 -0.147741 0
M  V30 33 C 6.220655 -1.273209 1.884063 0
M  V30 34 C 7.605868 -1.158196 1.898066 0
M  V30 35 H 10.049784 1.016040 1.018556 0
M  V30 36 H 10.054650 -0.278511 2.327367 0
M  V30 37 H 10.103021 -0.697626 0.596493 0
M  V30 38 H 7.918710 1.773347 0.169208 0
M  V30 39 H 5.465689 1.545682 0.158756 0
M  V30 40 H 3.445388 1.272281 0.202007 0
M  V30 41 H 1.476972 1.077891 2.703152 0
M  V30 42 H -0.917871 0.381541 2.920952 0
M  V30 43 H -1.984673 0.930109 0.066529 0
M  V30 44 H -1.968080 2.192791 -1.993096 0
M  V30 45 H -3.542830 1.617311 -3.737591 0
M  V30 46 H -5.811773 -2.069675 -2.632206 0
M  V30 47 H -7.843730 -2.350952 -1.856244 0
M  V30 48 H -9.366602 -3.096911 0.006157 0
M  V30 49 H -8.500160 -3.227353 2.349415 0
M  V30 50 H -6.097879 -2.606040 2.819751 0
M  V30 51 H -0.597552 -1.739975 -0.704830 0
M  V30 52 H 1.710386 -1.135215 -1.022335 0
M  V30 53 H 5.795465 -2.137402 2.373878 0
M  V30 54 H 8.206646 -1.924401 2.390679 0
M  V30 END ATOM
M  V30 BEGIN BOND
M  V30 1 1 1 2
M  V30 2 2 2 3
M  V30 3 1 3 4
M  V30 4 2 4 5
M  V30 5 1 5 6
M  V30 6 2 6 7
M  V30 7 1 6 8
M  V30 8 1 8 9
M  V30 9 2 9 10
M  V30 10 1 10 11
M  V30 11 2 11 12
M  V30 12 1 12 13
M  V30 13 2 13 14
M  V30 14 1 14 15
M  V30 15 2 15 16
M  V30 16 1 16 17
M  V30 17 1 17 18
M  V30 18 2 18 19
M  V30 19 1 19 20
M  V30 20 2 20 21
M  V30 21 1 21 22
M  V30 22 2 22 23
M  V30 23 1 23 24
M  V30 24 1 24 25
M  V30 25 2 25 26
M  V30 26 1 26 27
M  V30 27 2 27 28
M  V30 28 1 28 29
M  V30 29 2 29 30
M  V30 30 1 12 31
M  V30 31 2 31 32
M  V30 32 1 5 33
M  V30 33 2 33 34
M  V30 34 1 34 2
M  V30 35 1 32 9
M  V30 36 1 17 13
M  V30 37 1 23 18
M  V30 38 1 30 25
M  V30 39 1 30 16
M  V30 40 1 1 35
M  V30 41 1 1 36
M  V30 42 1 1 37
M  V30 43 1 3 38
M  V30 44 1 4 39
M  V30 45 1 8 40
M  V30 46 1 10 41
M  V30 47 1 11 42
M  V30 48 1 19 43
M  V30 49 1 20 44
M  V30 50 1 21 45
M  V30 51 1 24 46
M  V30 52 1 26 47
M  V30 53 1 27 48
M  V30 54 1 28 49
M  V30 55 1 29 50
M  V30 56 1 31 51
M  V30 57 1 32 52
M  V30 58 1 33 53
M  V30 59 1 34 54
M  V30 END BOND
M  V30 END CTAB
M  END
>  <Dataset>  (462) 
ChEMBL_Kinases

>  <Ligand_Instance>  (462) 
nan

>  <PDB_ID>  (462) 
nan

>  <Standardized_SMILES>  (462) 
Cc1ccc(C(=O)Nc2ccc(-c3nnc4n3-c3cccnc3Nc3ccccc3-4)cc2)cc1

>  <Name>  (462) 
nan

>  <Pocket>  (462) 
nan

>  <ATP_Site>  (462) 
nan

>  <Peripheral>  (462) 
nan

>  <Num_H_Atoms_ProtBoundConf>  (462) 
nan

>  <Num_Resolved_Atoms>  (462) 
nan

>  <Num_Not_Resolved_Atoms>  (462) 
nan

$$$$
CHEMBL3684342
     RDKit          3D

  0  0  0  0  0  0  0  0  0  0999 V3000
M  V30 BEGIN CTAB
M  V30 COUNTS 55 60 0 0 0
M  V30 BEGIN ATOM
M  V30 1 C 9.818125 2.549848 1.864924 0
M  V30 2 O 8.769236 2.958443 1.015534 0
M  V30 3 C 7.506380 2.442151 0.991818 0
M  V30 4 C 6.548020 2.920206 0.112072 0
M  V30 5 C 5.301071 2.328853 0.169394 0
M  V30 6 C 4.988139 1.309937 1.046146 0
M  V30 7 C 3.683262 0.669390 1.127551 0
M  V30 8 O 3.429733 -0.265374 1.942861 0
M  V30 9 N 2.591407 1.022527 0.318796 0
M  V30 10 C 1.348752 0.323393 0.485502 0
M  V30 11 C 0.487199 0.886489 1.405306 0
M  V30 12 C -0.713657 0.232749 1.583551 0
M  V30 13 C -1.099634 -0.938244 0.903564 0
M  V30 14 C -2.365653 -1.575956 1.178106 0
M  V30 15 N -2.514554 -1.990718 2.474398 0
M  V30 16 N -3.677147 -2.606984 2.629539 0
M  V30 17 C -4.298681 -2.607701 1.462322 0
M  V30 18 N -3.496146 -1.977563 0.592439 0
M  V30 19 C -3.698362 -1.709336 -0.773389 0
M  V30 20 C -2.974181 -0.614514 -1.162615 0
M  V30 21 C -3.021766 -0.250823 -2.493486 0
M  V30 22 C -3.807625 -1.020156 -3.361403 0
M  V30 23 N -4.531060 -2.110548 -2.961124 0
M  V30 24 C -4.470437 -2.453942 -1.638333 0
M  V30 25 N -5.343459 -3.572244 -1.363867 0
M  V30 26 C -5.985981 -3.682450 -0.069903 0
M  V30 27 C -7.216849 -4.331649 -0.227914 0
M  V30 28 C -7.982600 -4.511612 0.907856 0
M  V30 29 C -7.550497 -4.067334 2.156406 0
M  V30 30 C -6.342136 -3.428114 2.326200 0
M  V30 31 C -5.580605 -3.249112 1.200514 0
M  V30 32 C -0.143077 -1.405515 0.003576 0
M  V30 33 C 1.078453 -0.817610 -0.236878 0
M  V30 34 C 5.977056 0.853643 1.917296 0
M  V30 35 C 7.250981 1.416173 1.899957 0
M  V30 36 H 9.677282 2.949502 2.906695 0
M  V30 37 H 10.742111 3.045170 1.490745 0
M  V30 38 H 9.931258 1.472169 1.973162 0
M  V30 39 H 6.753957 3.715839 -0.588919 0
M  V30 40 H 4.529126 2.683056 -0.508588 0
M  V30 41 H 2.687411 1.788779 -0.398785 0
M  V30 42 H 0.700233 1.781858 1.971771 0
M  V30 43 H -1.427895 0.624009 2.288141 0
M  V30 44 H -2.389201 0.072197 -0.611005 0
M  V30 45 H -2.512763 0.582196 -2.974475 0
M  V30 46 H -3.874280 -0.776084 -4.411128 0
M  V30 47 H -5.511658 -4.264848 -2.089883 0
M  V30 48 H -7.493468 -4.654266 -1.221050 0
M  V30 49 H -8.931036 -5.005708 0.819720 0
M  V30 50 H -8.146855 -4.205339 3.050622 0
M  V30 51 H -5.912401 -3.046863 3.237933 0
M  V30 52 H -0.430040 -2.305177 -0.524279 0
M  V30 53 H 1.777161 -1.229456 -0.948365 0
M  V30 54 H 5.810390 0.052992 2.639773 0
M  V30 55 H 8.002043 1.052737 2.578446 0
M  V30 END ATOM
M  V30 BEGIN BOND
M  V30 1 1 1 2
M  V30 2 1 2 3
M  V30 3 2 3 4
M  V30 4 1 4 5
M  V30 5 2 5 6
M  V30 6 1 6 7
M  V30 7 2 7 8
M  V30 8 1 7 9
M  V30 9 1 9 10
M  V30 10 2 10 11
M  V30 11 1 11 12
M  V30 12 2 12 13
M  V30 13 1 13 14
M  V30 14 2 14 15
M  V30 15 1 15 16
M  V30 16 2 16 17
M  V30 17 1 17 18
M  V30 18 1 18 19
M  V30 19 2 19 20
M  V30 20 1 20 21
M  V30 21 2 21 22
M  V30 22 1 22 23
M  V30 23 2 23 24
M  V30 24 1 24 25
M  V30 25 1 25 26
M  V30 26 2 26 27
M  V30 27 1 27 28
M  V30 28 2 28 29
M  V30 29 1 29 30
M  V30 30 2 30 31
M  V30 31 1 13 32
M  V30 32 2 32 33
M  V30 33 1 6 34
M  V30 34 2 34 35
M  V30 35 1 35 3
M  V30 36 1 33 10
M  V30 37 1 18 14
M  V30 38 1 24 19
M  V30 39 1 31 26
M  V30 40 1 31 17
M  V30 41 1 1 36
M  V30 42 1 1 37
M  V30 43 1 1 38
M  V30 44 1 4 39
M  V30 45 1 5 40
M  V30 46 1 9 41
M  V30 47 1 11 42
M  V30 48 1 12 43
M  V30 49 1 20 44
M  V30 50 1 21 45
M  V30 51 1 22 46
M  V30 52 1 25 47
M  V30 53 1 27 48
M  V30 54 1 28 49
M  V30 55 1 29 50
M  V30 56 1 30 51
M  V30 57 1 32 52
M  V30 58 1 33 53
M  V30 59 1 34 54
M  V30 60 1 35 55
M  V30 END BOND
M  V30 END CTAB
M  END
>  <Dataset>  (463) 
ChEMBL_Kinases

>  <Ligand_Instance>  (463) 
nan

>  <PDB_ID>  (463) 
nan

>  <Standardized_SMILES>  (463) 
COc1ccc(C(=O)Nc2ccc(-c3nnc4n3-c3cccnc3Nc3ccccc3-4)cc2)cc1

>  <Name>  (463) 
nan

>  <Pocket>  (463) 
nan

>  <ATP_Site>  (463) 
nan

>  <Peripheral>  (463) 
nan

>  <Num_H_Atoms_ProtBoundConf>  (463) 
nan

>  <Num_Resolved_Atoms>  (463) 
nan

>  <Num_Not_Resolved_Atoms>  (463) 
nan

$$$$
CHEMBL3684343
     RDKit          3D

  0  0  0  0  0  0  0  0  0  0999 V3000
M  V30 BEGIN CTAB
M  V30 COUNTS 50 54 0 0 0
M  V30 BEGIN ATOM
M  V30 1 C 4.124399 -2.332881 5.864965 0
M  V30 2 C 4.462326 -0.870773 6.049889 0
M  V30 3 C 4.964853 -0.271771 4.745303 0
M  V30 4 C 3.936805 -0.377194 3.677542 0
M  V30 5 O 2.777792 -0.894055 3.802206 0
M  V30 6 N 4.253286 0.138650 2.392778 0
M  V30 7 C 3.179617 -0.021781 1.445456 0
M  V30 8 C 2.253608 0.995891 1.351422 0
M  V30 9 C 1.260262 0.767929 0.426077 0
M  V30 10 C 1.100923 -0.340884 -0.392236 0
M  V30 11 C 0.046194 -0.484417 -1.360284 0
M  V30 12 N 0.500967 -0.573040 -2.646126 0
M  V30 13 N -0.529784 -0.654187 -3.487400 0
M  V30 14 C -1.654600 -0.619882 -2.772070 0
M  V30 15 N -1.281922 -0.520359 -1.487128 0
M  V30 16 C -2.086233 -0.453998 -0.330382 0
M  V30 17 C -1.397526 -0.913133 0.758516 0
M  V30 18 C -2.032188 -0.861396 1.982421 0
M  V30 19 C -3.334147 -0.344796 2.014738 0
M  V30 20 N -4.025048 0.110639 0.926554 0
M  V30 21 C -3.366589 0.042714 -0.258299 0
M  V30 22 N -4.231517 0.480348 -1.335809 0
M  V30 23 C -4.107283 -0.094719 -2.662718 0
M  V30 24 C -5.345070 -0.094252 -3.285006 0
M  V30 25 C -5.415961 -0.624459 -4.555947 0
M  V30 26 C -4.292312 -1.142057 -5.196136 0
M  V30 27 C -3.053852 -1.149949 -4.592629 0
M  V30 28 C -2.988553 -0.620272 -3.327241 0
M  V30 29 C 2.109128 -1.303737 -0.199233 0
M  V30 30 C 3.147942 -1.179996 0.696861 0
M  V30 31 H 4.618973 -2.740258 4.953155 0
M  V30 32 H 3.032655 -2.493589 5.677589 0
M  V30 33 H 4.396239 -2.889309 6.775896 0
M  V30 34 H 5.245519 -0.709310 6.811690 0
M  V30 35 H 3.546890 -0.347420 6.405427 0
M  V30 36 H 5.846576 -0.867078 4.431625 0
M  V30 37 H 5.274550 0.765608 4.852732 0
M  V30 38 H 5.183701 0.583397 2.193367 0
M  V30 39 H 2.269967 1.899475 1.928824 0
M  V30 40 H 0.495261 1.540544 0.305843 0
M  V30 41 H -0.444879 -1.363500 0.852753 0
M  V30 42 H -1.622369 -1.185316 2.946441 0
M  V30 43 H -3.886173 -0.273706 2.936739 0
M  V30 44 H -4.949970 1.194166 -1.151065 0
M  V30 45 H -6.183689 0.322569 -2.742265 0
M  V30 46 H -6.374348 -0.635626 -5.064317 0
M  V30 47 H -4.340252 -1.560725 -6.194627 0
M  V30 48 H -2.123753 -1.521112 -4.990622 0
M  V30 49 H 2.056104 -2.199813 -0.800983 0
M  V30 50 H 3.885000 -1.952618 0.794978 0
M  V30 END ATOM
M  V30 BEGIN BOND
M  V30 1 1 1 2
M  V30 2 1 2 3
M  V30 3 1 3 4
M  V30 4 2 4 5
M  V30 5 1 4 6
M  V30 6 1 6 7
M  V30 7 2 7 8
M  V30 8 1 8 9
M  V30 9 2 9 10
M  V30 10 1 10 11
M  V30 11 2 11 12
M  V30 12 1 12 13
M  V30 13 2 13 14
M  V30 14 1 14 15
M  V30 15 1 15 16
M  V30 16 2 16 17
M  V30 17 1 17 18
M  V30 18 2 18 19
M  V30 19 1 19 20
M  V30 20 2 20 21
M  V30 21 1 21 22
M  V30 22 1 22 23
M  V30 23 2 23 24
M  V30 24 1 24 25
M  V30 25 2 25 26
M  V30 26 1 26 27
M  V30 27 2 27 28
M  V30 28 1 10 29
M  V30 29 2 29 30
M  V30 30 1 30 7
M  V30 31 1 15 11
M  V30 32 1 21 16
M  V30 33 1 28 23
M  V30 34 1 28 14
M  V30 35 1 1 31
M  V30 36 1 1 32
M  V30 37 1 1 33
M  V30 38 1 2 34
M  V30 39 1 2 35
M  V30 40 1 3 36
M  V30 41 1 3 37
M  V30 42 1 6 38
M  V30 43 1 8 39
M  V30 44 1 9 40
M  V30 45 1 17 41
M  V30 46 1 18 42
M  V30 47 1 19 43
M  V30 48 1 22 44
M  V30 49 1 24 45
M  V30 50 1 25 46
M  V30 51 1 26 47
M  V30 52 1 27 48
M  V30 53 1 29 49
M  V30 54 1 30 50
M  V30 END BOND
M  V30 END CTAB
M  END
>  <Dataset>  (464) 
ChEMBL_Kinases

>  <Ligand_Instance>  (464) 
nan

>  <PDB_ID>  (464) 
nan

>  <Standardized_SMILES>  (464) 
CCCC(=O)Nc1ccc(-c2nnc3n2-c2cccnc2Nc2ccccc2-3)cc1

>  <Name>  (464) 
nan

>  <Pocket>  (464) 
nan

>  <ATP_Site>  (464) 
nan

>  <Peripheral>  (464) 
nan

>  <Num_H_Atoms_ProtBoundConf>  (464) 
nan

>  <Num_Resolved_Atoms>  (464) 
nan

>  <Num_Not_Resolved_Atoms>  (464) 
nan

$$$$
CHEMBL3684344
     RDKit          3D

  0  0  0  0  0  0  0  0  0  0999 V3000
M  V30 BEGIN CTAB
M  V30 COUNTS 53 57 0 0 0
M  V30 BEGIN ATOM
M  V30 1 C 6.759221 0.021109 2.374690 0
M  V30 2 C 6.952654 -0.804562 1.121945 0
M  V30 3 C 6.757927 -2.282712 1.393569 0
M  V30 4 C 6.088815 -0.319442 -0.013314 0
M  V30 5 C 4.644072 -0.376956 0.314576 0
M  V30 6 O 4.286166 -0.798560 1.438757 0
M  V30 7 N 3.698543 0.038660 -0.631295 0
M  V30 8 C 2.338061 -0.071124 -0.179991 0
M  V30 9 C 1.816833 1.017754 0.455280 0
M  V30 10 C 0.511503 0.890857 0.879452 0
M  V30 11 C -0.295444 -0.249268 0.707563 0
M  V30 12 C -1.646616 -0.305040 1.216271 0
M  V30 13 N -1.729545 -0.158899 2.573341 0
M  V30 14 N -3.000365 -0.272045 2.966406 0
M  V30 15 C -3.738175 -0.488358 1.889548 0
M  V30 16 N -2.909586 -0.503244 0.834169 0
M  V30 17 C -3.203965 -0.689721 -0.524329 0
M  V30 18 C -2.246039 -0.100707 -1.305315 0
M  V30 19 C -2.360983 -0.239924 -2.674037 0
M  V30 20 C -3.447935 -0.970153 -3.172195 0
M  V30 21 N -4.398480 -1.548789 -2.376758 0
M  V30 22 C -4.262485 -1.397349 -1.043793 0
M  V30 23 N -5.378571 -1.995926 -0.344151 0
M  V30 24 C -5.855157 -1.431335 0.904638 0
M  V30 25 C -7.232617 -1.668297 1.010222 0
M  V30 26 C -7.862880 -1.182591 2.135333 0
M  V30 27 C -7.153417 -0.488805 3.117310 0
M  V30 28 C -5.798278 -0.249452 3.026158 0
M  V30 29 C -5.175926 -0.730563 1.913666 0
M  V30 30 C 0.355560 -1.301869 0.039818 0
M  V30 31 C 1.656855 -1.248397 -0.412874 0
M  V30 32 H 6.262548 0.995784 2.191379 0
M  V30 33 H 6.202313 -0.577006 3.152918 0
M  V30 34 H 7.729290 0.276238 2.882403 0
M  V30 35 H 8.009033 -0.669356 0.808786 0
M  V30 36 H 7.711504 -2.794501 1.691933 0
M  V30 37 H 6.082092 -2.447036 2.272498 0
M  V30 38 H 6.416381 -2.764008 0.469717 0
M  V30 39 H 6.404157 0.721002 -0.232540 0
M  V30 40 H 6.366650 -0.906669 -0.912746 0
M  V30 41 H 4.030487 0.389167 -1.570264 0
M  V30 42 H 2.331591 1.938744 0.644109 0
M  V30 43 H 0.006598 1.709667 1.398418 0
M  V30 44 H -1.414450 0.508759 -1.066657 0
M  V30 45 H -1.695446 0.156045 -3.454354 0
M  V30 46 H -3.581763 -1.109973 -4.235518 0
M  V30 47 H -5.844980 -2.825557 -0.754692 0
M  V30 48 H -7.716461 -2.213405 0.215367 0
M  V30 49 H -8.916621 -1.350498 2.240165 0
M  V30 50 H -7.649834 -0.101165 4.011678 0
M  V30 51 H -5.169948 0.264110 3.714189 0
M  V30 52 H -0.228697 -2.207581 -0.117369 0
M  V30 53 H 2.081877 -2.101033 -0.916475 0
M  V30 END ATOM
M  V30 BEGIN BOND
M  V30 1 1 1 2
M  V30 2 1 2 3
M  V30 3 1 2 4
M  V30 4 1 4 5
M  V30 5 2 5 6
M  V30 6 1 5 7
M  V30 7 1 7 8
M  V30 8 2 8 9
M  V30 9 1 9 10
M  V30 10 2 10 11
M  V30 11 1 11 12
M  V30 12 2 12 13
M  V30 13 1 13 14
M  V30 14 2 14 15
M  V30 15 1 15 16
M  V30 16 1 16 17
M  V30 17 2 17 18
M  V30 18 1 18 19
M  V30 19 2 19 20
M  V30 20 1 20 21
M  V30 21 2 21 22
M  V30 22 1 22 23
M  V30 23 1 23 24
M  V30 24 2 24 25
M  V30 25 1 25 26
M  V30 26 2 26 27
M  V30 27 1 27 28
M  V30 28 2 28 29
M  V30 29 1 11 30
M  V30 30 2 30 31
M  V30 31 1 31 8
M  V30 32 1 16 12
M  V30 33 1 22 17
M  V30 34 1 29 24
M  V30 35 1 29 15
M  V30 36 1 1 32
M  V30 37 1 1 33
M  V30 38 1 1 34
M  V30 39 1 2 35
M  V30 40 1 3 36
M  V30 41 1 3 37
M  V30 42 1 3 38
M  V30 43 1 4 39
M  V30 44 1 4 40
M  V30 45 1 7 41
M  V30 46 1 9 42
M  V30 47 1 10 43
M  V30 48 1 18 44
M  V30 49 1 19 45
M  V30 50 1 20 46
M  V30 51 1 23 47
M  V30 52 1 25 48
M  V30 53 1 26 49
M  V30 54 1 27 50
M  V30 55 1 28 51
M  V30 56 1 30 52
M  V30 57 1 31 53
M  V30 END BOND
M  V30 END CTAB
M  END
>  <Dataset>  (465) 
ChEMBL_Kinases

>  <Ligand_Instance>  (465) 
nan

>  <PDB_ID>  (465) 
nan

>  <Standardized_SMILES>  (465) 
CC(C)CC(=O)Nc1ccc(-c2nnc3n2-c2cccnc2Nc2ccccc2-3)cc1

>  <Name>  (465) 
nan

>  <Pocket>  (465) 
nan

>  <ATP_Site>  (465) 
nan

>  <Peripheral>  (465) 
nan

>  <Num_H_Atoms_ProtBoundConf>  (465) 
nan

>  <Num_Resolved_Atoms>  (465) 
nan

>  <Num_Not_Resolved_Atoms>  (465) 
nan

$$$$
CHEMBL3684345
     RDKit          3D

  0  0  0  0  0  0  0  0  0  0999 V3000
M  V30 BEGIN CTAB
M  V30 COUNTS 57 63 0 0 0
M  V30 BEGIN ATOM
M  V30 1 O 2.474602 -4.012952 -1.407554 0
M  V30 2 C 1.653627 -4.517072 -0.609062 0
M  V30 3 N 0.673063 -3.724718 0.044204 0
M  V30 4 C 0.470658 -2.329163 -0.089538 0
M  V30 5 C -0.572969 -1.786853 0.622642 0
M  V30 6 C -0.854367 -0.440046 0.564216 0
M  V30 7 C -0.100707 0.453395 -0.217908 0
M  V30 8 C -0.509715 1.839322 -0.231301 0
M  V30 9 N -0.897220 2.294743 -1.461932 0
M  V30 10 N -1.306495 3.554583 -1.373905 0
M  V30 11 C -1.190639 3.924369 -0.102370 0
M  V30 12 N -0.703264 2.878438 0.580779 0
M  V30 13 C -0.398335 2.776768 1.952971 0
M  V30 14 C 0.564077 1.821946 2.139105 0
M  V30 15 C 0.942746 1.556070 3.442110 0
M  V30 16 C 0.308481 2.289997 4.454483 0
M  V30 17 N -0.648014 3.242955 4.253411 0
M  V30 18 C -0.994830 3.478925 2.971739 0
M  V30 19 N -1.956392 4.558118 2.896713 0
M  V30 20 C -1.964447 5.451063 1.749996 0
M  V30 21 C -2.396415 6.712219 2.170469 0
M  V30 22 C -2.457504 7.735955 1.215254 0
M  V30 23 C -2.086980 7.424300 -0.072194 0
M  V30 24 C -1.656383 6.206525 -0.541750 0
M  V30 25 C -1.606494 5.222998 0.413308 0
M  V30 26 C 0.965052 -0.102346 -0.944439 0
M  V30 27 C 1.203145 -1.456102 -0.850531 0
M  V30 28 C 1.772899 -5.955239 -0.400412 0
M  V30 29 C 2.655390 -6.540414 0.479685 0
M  V30 30 C 2.671243 -7.935021 0.591639 0
M  V30 31 C 1.796182 -8.659366 -0.189682 0
M  V30 32 C 0.898133 -8.115270 -1.081491 0
M  V30 33 C 0.033363 -8.857842 -1.852023 0
M  V30 34 C -0.831468 -8.220332 -2.719785 0
M  V30 35 C -0.873266 -6.830561 -2.857045 0
M  V30 36 C 0.021576 -6.158453 -2.052606 0
M  V30 37 C 0.915299 -6.720097 -1.162885 0
M  V30 38 H 0.077934 -4.291561 0.668822 0
M  V30 39 H -1.200370 -2.415552 1.248311 0
M  V30 40 H -1.686417 -0.072678 1.146281 0
M  V30 41 H 1.139722 1.246751 1.462945 0
M  V30 42 H 1.682637 0.840228 3.825889 0
M  V30 43 H 0.549405 2.136958 5.496720 0
M  V30 44 H -2.618068 4.700510 3.658125 0
M  V30 45 H -2.665637 6.853633 3.197475 0
M  V30 46 H -2.783751 8.725403 1.493464 0
M  V30 47 H -2.133093 8.224859 -0.828162 0
M  V30 48 H -1.360083 5.918590 -1.527784 0
M  V30 49 H 1.537269 0.573790 -1.536446 0
M  V30 50 H 2.021360 -1.805383 -1.422668 0
M  V30 51 H 3.314462 -5.908002 1.061312 0
M  V30 52 H 3.351038 -8.429317 1.272423 0
M  V30 53 H 1.795130 -9.742718 -0.115279 0
M  V30 54 H 0.062566 -9.935311 -1.746500 0
M  V30 55 H -1.504229 -8.815721 -3.318847 0
M  V30 56 H -1.531891 -6.307939 -3.520023 0
M  V30 57 H 0.000397 -5.071134 -2.149275 0
M  V30 END ATOM
M  V30 BEGIN BOND
M  V30 1 2 1 2
M  V30 2 1 2 3
M  V30 3 1 3 4
M  V30 4 2 4 5
M  V30 5 1 5 6
M  V30 6 2 6 7
M  V30 7 1 7 8
M  V30 8 2 8 9
M  V30 9 1 9 10
M  V30 10 2 10 11
M  V30 11 1 11 12
M  V30 12 1 12 13
M  V30 13 2 13 14
M  V30 14 1 14 15
M  V30 15 2 15 16
M  V30 16 1 16 17
M  V30 17 2 17 18
M  V30 18 1 18 19
M  V30 19 1 19 20
M  V30 20 2 20 21
M  V30 21 1 21 22
M  V30 22 2 22 23
M  V30 23 1 23 24
M  V30 24 2 24 25
M  V30 25 1 7 26
M  V30 26 2 26 27
M  V30 27 1 2 28
M  V30 28 2 28 29
M  V30 29 1 29 30
M  V30 30 2 30 31
M  V30 31 1 31 32
M  V30 32 2 32 33
M  V30 33 1 33 34
M  V30 34 2 34 35
M  V30 35 1 35 36
M  V30 36 2 36 37
M  V30 37 1 27 4
M  V30 38 1 37 28
M  V30 39 1 12 8
M  V30 40 1 18 13
M  V30 41 1 25 20
M  V30 42 1 37 32
M  V30 43 1 25 11
M  V30 44 1 3 38
M  V30 45 1 5 39
M  V30 46 1 6 40
M  V30 47 1 14 41
M  V30 48 1 15 42
M  V30 49 1 16 43
M  V30 50 1 19 44
M  V30 51 1 21 45
M  V30 52 1 22 46
M  V30 53 1 23 47
M  V30 54 1 24 48
M  V30 55 1 26 49
M  V30 56 1 27 50
M  V30 57 1 29 51
M  V30 58 1 30 52
M  V30 59 1 31 53
M  V30 60 1 33 54
M  V30 61 1 34 55
M  V30 62 1 35 56
M  V30 63 1 36 57
M  V30 END BOND
M  V30 END CTAB
M  END
>  <Dataset>  (466) 
ChEMBL_Kinases

>  <Ligand_Instance>  (466) 
nan

>  <PDB_ID>  (466) 
nan

>  <Standardized_SMILES>  (466) 
O=C(Nc1ccc(-c2nnc3n2-c2cccnc2Nc2ccccc2-3)cc1)c1cccc2ccccc12

>  <Name>  (466) 
nan

>  <Pocket>  (466) 
nan

>  <ATP_Site>  (466) 
nan

>  <Peripheral>  (466) 
nan

>  <Num_H_Atoms_ProtBoundConf>  (466) 
nan

>  <Num_Resolved_Atoms>  (466) 
nan

>  <Num_Not_Resolved_Atoms>  (466) 
nan

$$$$
CHEMBL3684346
     RDKit          3D

  0  0  0  0  0  0  0  0  0  0999 V3000
M  V30 BEGIN CTAB
M  V30 COUNTS 60 66 0 0 0
M  V30 BEGIN ATOM
M  V30 1 O 1.773990 0.790056 2.996077 0
M  V30 2 C 1.332686 -0.021113 3.851814 0
M  V30 3 C 2.017782 0.380580 5.102915 0
M  V30 4 C 2.924259 1.519917 4.926249 0
M  V30 5 C 4.316979 1.411097 4.864915 0
M  V30 6 C 5.137666 2.520704 4.694340 0
M  V30 7 C 4.579471 3.780996 4.579585 0
M  V30 8 C 3.222221 3.904910 4.637363 0
M  V30 9 C 2.694473 5.188491 4.518876 0
M  V30 10 C 1.326488 5.392871 4.568661 0
M  V30 11 C 0.509485 4.299183 4.737292 0
M  V30 12 C 1.055032 3.034994 4.852520 0
M  V30 13 C 2.412559 2.805437 4.806204 0
M  V30 14 N 0.408924 -1.095283 3.767215 0
M  V30 15 C -0.058476 -1.199238 2.403500 0
M  V30 16 C 0.643592 -2.008968 1.532764 0
M  V30 17 C 0.162572 -2.077509 0.241440 0
M  V30 18 C -0.971044 -1.393814 -0.241790 0
M  V30 19 C -1.375093 -1.506829 -1.627809 0
M  V30 20 N -1.333019 -0.328831 -2.301837 0
M  V30 21 N -1.667334 -0.513172 -3.582676 0
M  V30 22 C -1.927366 -1.820272 -3.738249 0
M  V30 23 N -1.748280 -2.403031 -2.543682 0
M  V30 24 C -1.898228 -3.755081 -2.175588 0
M  V30 25 C -2.178090 -3.853517 -0.841173 0
M  V30 26 C -2.295579 -5.127743 -0.327078 0
M  V30 27 C -2.124283 -6.210442 -1.198873 0
M  V30 28 N -1.849444 -6.112576 -2.529211 0
M  V30 29 C -1.741221 -4.848515 -2.999870 0
M  V30 30 N -1.528300 -4.866259 -4.431864 0
M  V30 31 C -2.043382 -3.806820 -5.277704 0
M  V30 32 C -2.356021 -4.312325 -6.534490 0
M  V30 33 C -2.876387 -3.423223 -7.448729 0
M  V30 34 C -3.093439 -2.082278 -7.169615 0
M  V30 35 C -2.786029 -1.564134 -5.921547 0
M  V30 36 C -2.267051 -2.448806 -5.010274 0
M  V30 37 C -1.628345 -0.590731 0.710167 0
M  V30 38 C -1.179533 -0.494298 2.013460 0
M  V30 39 H 2.600490 -0.462983 5.544962 0
M  V30 40 H 1.238895 0.628664 5.842355 0
M  V30 41 H 4.750277 0.403471 4.957360 0
M  V30 42 H 6.201374 2.435429 4.647523 0
M  V30 43 H 5.207080 4.659515 4.445534 0
M  V30 44 H 3.314439 6.064939 4.385393 0
M  V30 45 H 0.891272 6.376731 4.479509 0
M  V30 46 H -0.574125 4.464987 4.776415 0
M  V30 47 H 0.354800 2.249909 4.979606 0
M  V30 48 H 0.192194 -1.639659 4.622601 0
M  V30 49 H 1.525118 -2.578325 1.794279 0
M  V30 50 H 0.669157 -2.699664 -0.502741 0
M  V30 51 H -2.373875 -3.125328 -0.100048 0
M  V30 52 H -2.512433 -5.382402 0.708591 0
M  V30 53 H -2.206215 -7.225876 -0.834617 0
M  V30 54 H -1.014720 -5.654404 -4.867276 0
M  V30 55 H -2.169556 -5.356353 -6.708946 0
M  V30 56 H -3.126113 -3.801781 -8.435486 0
M  V30 57 H -3.500894 -1.389633 -7.885651 0
M  V30 58 H -2.906368 -0.546511 -5.580931 0
M  V30 59 H -2.507052 -0.052356 0.360946 0
M  V30 60 H -1.689306 0.122240 2.732193 0
M  V30 END ATOM
M  V30 BEGIN BOND
M  V30 1 2 1 2
M  V30 2 1 2 3
M  V30 3 1 3 4
M  V30 4 2 4 5
M  V30 5 1 5 6
M  V30 6 2 6 7
M  V30 7 1 7 8
M  V30 8 2 8 9
M  V30 9 1 9 10
M  V30 10 2 10 11
M  V30 11 1 11 12
M  V30 12 2 12 13
M  V30 13 1 2 14
M  V30 14 1 14 15
M  V30 15 2 15 16
M  V30 16 1 16 17
M  V30 17 2 17 18
M  V30 18 1 18 19
M  V30 19 2 19 20
M  V30 20 1 20 21
M  V30 21 2 21 22
M  V30 22 1 22 23
M  V30 23 1 23 24
M  V30 24 2 24 25
M  V30 25 1 25 26
M  V30 26 2 26 27
M  V30 27 1 27 28
M  V30 28 2 28 29
M  V30 29 1 29 30
M  V30 30 1 30 31
M  V30 31 2 31 32
M  V30 32 1 32 33
M  V30 33 2 33 34
M  V30 34 1 34 35
M  V30 35 2 35 36
M  V30 36 1 18 37
M  V30 37 2 37 38
M  V30 38 1 13 4
M  V30 39 1 38 15
M  V30 40 1 13 8
M  V30 41 1 23 19
M  V30 42 1 29 24
M  V30 43 1 36 31
M  V30 44 1 36 22
M  V30 45 1 3 39
M  V30 46 1 3 40
M  V30 47 1 5 41
M  V30 48 1 6 42
M  V30 49 1 7 43
M  V30 50 1 9 44
M  V30 51 1 10 45
M  V30 52 1 11 46
M  V30 53 1 12 47
M  V30 54 1 14 48
M  V30 55 1 16 49
M  V30 56 1 17 50
M  V30 57 1 25 51
M  V30 58 1 26 52
M  V30 59 1 27 53
M  V30 60 1 30 54
M  V30 61 1 32 55
M  V30 62 1 33 56
M  V30 63 1 34 57
M  V30 64 1 35 58
M  V30 65 1 37 59
M  V30 66 1 38 60
M  V30 END BOND
M  V30 END CTAB
M  END
>  <Dataset>  (467) 
ChEMBL_Kinases

>  <Ligand_Instance>  (467) 
nan

>  <PDB_ID>  (467) 
nan

>  <Standardized_SMILES>  (467) 
O=C(Cc1cccc2ccccc12)Nc1ccc(-c2nnc3n2-c2cccnc2Nc2ccccc2-3)cc1

>  <Name>  (467) 
nan

>  <Pocket>  (467) 
nan

>  <ATP_Site>  (467) 
nan

>  <Peripheral>  (467) 
nan

>  <Num_H_Atoms_ProtBoundConf>  (467) 
nan

>  <Num_Resolved_Atoms>  (467) 
nan

>  <Num_Not_Resolved_Atoms>  (467) 
nan

$$$$
CHEMBL3684347
     RDKit          3D

  0  0  0  0  0  0  0  0  0  0999 V3000
M  V30 BEGIN CTAB
M  V30 COUNTS 56 60 0 0 0
M  V30 BEGIN ATOM
M  V30 1 C 6.135804 1.605777 1.532879 0
M  V30 2 C 6.245591 1.138699 0.107810 0
M  V30 3 C 6.357813 -0.381320 0.154677 0
M  V30 4 C 7.489701 1.646287 -0.585575 0
M  V30 5 C 5.039301 1.569026 -0.697268 0
M  V30 6 C 3.780426 1.014332 -0.141795 0
M  V30 7 O 3.454810 0.266407 0.841538 0
M  V30 8 N 2.573167 1.355266 -0.821596 0
M  V30 9 C 1.393424 0.777815 -0.220918 0
M  V30 10 C 1.033717 -0.467077 -0.696641 0
M  V30 11 C -0.095578 -0.993387 -0.105079 0
M  V30 12 C -0.890772 -0.410781 0.899145 0
M  V30 13 C -2.036056 -1.105073 1.448727 0
M  V30 14 N -1.892257 -1.364830 2.769025 0
M  V30 15 N -2.968253 -2.053289 3.193193 0
M  V30 16 C -3.796994 -2.234045 2.150523 0
M  V30 17 N -3.206208 -1.643360 1.100619 0
M  V30 18 C -3.652660 -1.537448 -0.231862 0
M  V30 19 C -3.099206 -0.440087 -0.832776 0
M  V30 20 C -3.404308 -0.239989 -2.162687 0
M  V30 21 C -4.249164 -1.165740 -2.782011 0
M  V30 22 N -4.810690 -2.263272 -2.189641 0
M  V30 23 C -4.484235 -2.419553 -0.885839 0
M  V30 24 N -5.193026 -3.561659 -0.343422 0
M  V30 25 C -5.608851 -3.584008 1.046938 0
M  V30 26 C -6.778082 -4.323643 1.190068 0
M  V30 27 C -7.309390 -4.422488 2.458489 0
M  V30 28 C -6.718779 -3.818659 3.554425 0
M  V30 29 C -5.559927 -3.079347 3.448261 0
M  V30 30 C -5.044203 -2.990474 2.184425 0
M  V30 31 C -0.439270 0.855358 1.313521 0
M  V30 32 C 0.683323 1.436871 0.761430 0
M  V30 33 H 6.606139 0.876732 2.215792 0
M  V30 34 H 5.066962 1.662270 1.795753 0
M  V30 35 H 6.573427 2.618700 1.658954 0
M  V30 36 H 7.414868 -0.592554 0.465215 0
M  V30 37 H 6.271996 -0.817975 -0.861243 0
M  V30 38 H 5.680162 -0.815228 0.900415 0
M  V30 39 H 8.329141 1.734875 0.146359 0
M  V30 40 H 7.336058 2.598626 -1.125965 0
M  V30 41 H 7.747997 0.892540 -1.373064 0
M  V30 42 H 5.169122 1.253985 -1.750312 0
M  V30 43 H 5.016688 2.677918 -0.691963 0
M  V30 44 H 2.474735 1.961482 -1.679879 0
M  V30 45 H 1.524830 -1.043604 -1.450509 0
M  V30 46 H -0.448974 -1.985713 -0.430240 0
M  V30 47 H -2.494452 0.342967 -0.459386 0
M  V30 48 H -3.060112 0.565172 -2.796243 0
M  V30 49 H -4.514652 -1.047981 -3.830591 0
M  V30 50 H -5.424399 -4.363155 -0.940936 0
M  V30 51 H -7.183215 -4.767171 0.303933 0
M  V30 52 H -8.219350 -4.995426 2.583786 0
M  V30 53 H -7.145502 -3.899600 4.562657 0
M  V30 54 H -5.021360 -2.571736 4.233528 0
M  V30 55 H -1.037226 1.330755 2.091719 0
M  V30 56 H 1.011456 2.411948 1.096482 0
M  V30 END ATOM
M  V30 BEGIN BOND
M  V30 1 1 1 2
M  V30 2 1 2 3
M  V30 3 1 2 4
M  V30 4 1 2 5
M  V30 5 1 5 6
M  V30 6 2 6 7
M  V30 7 1 6 8
M  V30 8 1 8 9
M  V30 9 2 9 10
M  V30 10 1 10 11
M  V30 11 2 11 12
M  V30 12 1 12 13
M  V30 13 2 13 14
M  V30 14 1 14 15
M  V30 15 2 15 16
M  V30 16 1 16 17
M  V30 17 1 17 18
M  V30 18 2 18 19
M  V30 19 1 19 20
M  V30 20 2 20 21
M  V30 21 1 21 22
M  V30 22 2 22 23
M  V30 23 1 23 24
M  V30 24 1 24 25
M  V30 25 2 25 26
M  V30 26 1 26 27
M  V30 27 2 27 28
M  V30 28 1 28 29
M  V30 29 2 29 30
M  V30 30 1 12 31
M  V30 31 2 31 32
M  V30 32 1 32 9
M  V30 33 1 17 13
M  V30 34 1 23 18
M  V30 35 1 30 25
M  V30 36 1 30 16
M  V30 37 1 1 33
M  V30 38 1 1 34
M  V30 39 1 1 35
M  V30 40 1 3 36
M  V30 41 1 3 37
M  V30 42 1 3 38
M  V30 43 1 4 39
M  V30 44 1 4 40
M  V30 45 1 4 41
M  V30 46 1 5 42
M  V30 47 1 5 43
M  V30 48 1 8 44
M  V30 49 1 10 45
M  V30 50 1 11 46
M  V30 51 1 19 47
M  V30 52 1 20 48
M  V30 53 1 21 49
M  V30 54 1 24 50
M  V30 55 1 26 51
M  V30 56 1 27 52
M  V30 57 1 28 53
M  V30 58 1 29 54
M  V30 59 1 31 55
M  V30 60 1 32 56
M  V30 END BOND
M  V30 END CTAB
M  END
>  <Dataset>  (468) 
ChEMBL_Kinases

>  <Ligand_Instance>  (468) 
nan

>  <PDB_ID>  (468) 
nan

>  <Standardized_SMILES>  (468) 
CC(C)(C)CC(=O)Nc1ccc(-c2nnc3n2-c2cccnc2Nc2ccccc2-3)cc1

>  <Name>  (468) 
nan

>  <Pocket>  (468) 
nan

>  <ATP_Site>  (468) 
nan

>  <Peripheral>  (468) 
nan

>  <Num_H_Atoms_ProtBoundConf>  (468) 
nan

>  <Num_Resolved_Atoms>  (468) 
nan

>  <Num_Not_Resolved_Atoms>  (468) 
nan

$$$$
CHEMBL3684348
     RDKit          3D

  0  0  0  0  0  0  0  0  0  0999 V3000
M  V30 BEGIN CTAB
M  V30 COUNTS 51 56 0 0 0
M  V30 BEGIN ATOM
M  V30 1 O 1.577417 -4.372805 1.991250 0
M  V30 2 C 0.673834 -5.153303 1.607801 0
M  V30 3 N -0.361701 -4.603541 0.845851 0
M  V30 4 C -0.465114 -3.233223 0.475996 0
M  V30 5 C 0.131061 -2.882044 -0.718327 0
M  V30 6 C 0.035419 -1.553570 -1.085074 0
M  V30 7 C -0.620841 -0.565568 -0.324561 0
M  V30 8 C -0.719691 0.806660 -0.773837 0
M  V30 9 N -1.385752 0.945827 -1.961350 0
M  V30 10 N -1.481225 2.229753 -2.285264 0
M  V30 11 C -0.880403 2.939222 -1.315266 0
M  V30 12 N -0.424093 2.056588 -0.412994 0
M  V30 13 C 0.277157 2.290732 0.776750 0
M  V30 14 C 1.027510 1.195079 1.110750 0
M  V30 15 C 1.737682 1.251750 2.292220 0
M  V30 16 C 1.649528 2.411239 3.063484 0
M  V30 17 N 0.903673 3.503509 2.725705 0
M  V30 18 C 0.210339 3.420599 1.550249 0
M  V30 19 N -0.467719 4.672147 1.289805 0
M  V30 20 C -0.665985 5.119672 -0.074950 0
M  V30 21 C -0.668044 6.520016 -0.109545 0
M  V30 22 C -0.830175 7.110578 -1.344273 0
M  V30 23 C -0.985834 6.353899 -2.511252 0
M  V30 24 C -0.986546 4.988693 -2.493085 0
M  V30 25 C -0.825883 4.396273 -1.265188 0
M  V30 26 C -1.191360 -1.039702 0.873979 0
M  V30 27 C -1.133362 -2.349681 1.299728 0
M  V30 28 C 0.773421 -6.560280 1.983443 0
M  V30 29 C 1.868514 -6.943352 2.744512 0
M  V30 30 C 2.017311 -8.270134 3.132523 0
M  V30 31 C 1.047267 -9.156416 2.731998 0
M  V30 32 F 1.104746 -10.480222 3.063000 0
M  V30 33 C -0.052577 -8.811026 1.976416 0
M  V30 34 F -0.996342 -9.706701 1.594201 0
M  V30 35 C -0.176528 -7.487156 1.604379 0
M  V30 36 H -1.132249 -5.221544 0.508236 0
M  V30 37 H 0.652324 -3.578358 -1.358011 0
M  V30 38 H 0.478742 -1.194868 -2.012563 0
M  V30 39 H 1.218681 0.286640 0.604229 0
M  V30 40 H 2.380398 0.483288 2.716398 0
M  V30 41 H 2.184099 2.504323 3.997074 0
M  V30 42 H -0.793096 5.249100 2.069317 0
M  V30 43 H -0.546521 7.037278 0.820779 0
M  V30 44 H -0.834882 8.187142 -1.394925 0
M  V30 45 H -1.112740 6.828224 -3.481398 0
M  V30 46 H -1.098130 4.308662 -3.323524 0
M  V30 47 H -1.706564 -0.283737 1.478889 0
M  V30 48 H -1.597523 -2.633667 2.233815 0
M  V30 49 H 2.651718 -6.276733 3.078824 0
M  V30 50 H 2.821471 -8.669617 3.717784 0
M  V30 51 H -1.033730 -7.196353 1.010663 0
M  V30 END ATOM
M  V30 BEGIN BOND
M  V30 1 2 1 2
M  V30 2 1 2 3
M  V30 3 1 3 4
M  V30 4 2 4 5
M  V30 5 1 5 6
M  V30 6 2 6 7
M  V30 7 1 7 8
M  V30 8 2 8 9
M  V30 9 1 9 10
M  V30 10 2 10 11
M  V30 11 1 11 12
M  V30 12 1 12 13
M  V30 13 2 13 14
M  V30 14 1 14 15
M  V30 15 2 15 16
M  V30 16 1 16 17
M  V30 17 2 17 18
M  V30 18 1 18 19
M  V30 19 1 19 20
M  V30 20 2 20 21
M  V30 21 1 21 22
M  V30 22 2 22 23
M  V30 23 1 23 24
M  V30 24 2 24 25
M  V30 25 1 7 26
M  V30 26 2 26 27
M  V30 27 1 2 28
M  V30 28 2 28 29
M  V30 29 1 29 30
M  V30 30 2 30 31
M  V30 31 1 31 32
M  V30 32 1 31 33
M  V30 33 1 33 34
M  V30 34 2 33 35
M  V30 35 1 27 4
M  V30 36 1 35 28
M  V30 37 1 12 8
M  V30 38 1 18 13
M  V30 39 1 25 20
M  V30 40 1 25 11
M  V30 41 1 3 36
M  V30 42 1 5 37
M  V30 43 1 6 38
M  V30 44 1 14 39
M  V30 45 1 15 40
M  V30 46 1 16 41
M  V30 47 1 19 42
M  V30 48 1 21 43
M  V30 49 1 22 44
M  V30 50 1 23 45
M  V30 51 1 24 46
M  V30 52 1 26 47
M  V30 53 1 27 48
M  V30 54 1 29 49
M  V30 55 1 30 50
M  V30 56 1 35 51
M  V30 END BOND
M  V30 END CTAB
M  END
>  <Dataset>  (469) 
ChEMBL_Kinases

>  <Ligand_Instance>  (469) 
nan

>  <PDB_ID>  (469) 
nan

>  <Standardized_SMILES>  (469) 
O=C(Nc1ccc(-c2nnc3n2-c2cccnc2Nc2ccccc2-3)cc1)c1ccc(F)c(F)c1

>  <Name>  (469) 
nan

>  <Pocket>  (469) 
nan

>  <ATP_Site>  (469) 
nan

>  <Peripheral>  (469) 
nan

>  <Num_H_Atoms_ProtBoundConf>  (469) 
nan

>  <Num_Resolved_Atoms>  (469) 
nan

>  <Num_Not_Resolved_Atoms>  (469) 
nan

$$$$
CHEMBL3684358
     RDKit          3D

  0  0  0  0  0  0  0  0  0  0999 V3000
M  V30 BEGIN CTAB
M  V30 COUNTS 54 60 0 0 0
M  V30 BEGIN ATOM
M  V30 1 O -0.527233 -3.416704 -2.017067 0
M  V30 2 C 0.468690 -4.153203 -1.735921 0
M  V30 3 N 1.361349 -3.542184 -0.798025 0
M  V30 4 C 0.895126 -2.248393 -0.417643 0
M  V30 5 C 0.057606 -2.173080 0.676182 0
M  V30 6 C -0.358565 -0.896433 0.993506 0
M  V30 7 C -0.019242 0.296771 0.326984 0
M  V30 8 C -0.554761 1.575037 0.745274 0
M  V30 9 N -1.334586 2.181712 -0.201641 0
M  V30 10 N -1.827702 3.325614 0.279934 0
M  V30 11 C -1.379358 3.468916 1.524030 0
M  V30 12 N -0.607936 2.403595 1.789719 0
M  V30 13 C 0.098936 2.090086 2.964330 0
M  V30 14 C 1.163884 1.279795 2.674491 0
M  V30 15 C 1.932929 0.835429 3.731166 0
M  V30 16 C 1.574214 1.244202 5.022351 0
M  V30 17 N 0.508894 2.058212 5.297882 0
M  V30 18 C -0.227396 2.478584 4.239510 0
M  V30 19 N -1.265032 3.387144 4.679163 0
M  V30 20 C -1.703855 4.466217 3.813926 0
M  V30 21 C -2.116968 5.547952 4.602876 0
M  V30 22 C -2.552261 6.673804 3.938677 0
M  V30 23 C -2.579639 6.731814 2.551721 0
M  V30 24 C -2.179613 5.682116 1.751879 0
M  V30 25 C -1.747895 4.563960 2.415268 0
M  V30 26 C 0.838959 0.113030 -0.774438 0
M  V30 27 C 1.289837 -1.139289 -1.142085 0
M  V30 28 C 0.701302 -5.498409 -2.303297 0
M  V30 29 C 1.780155 -6.318150 -2.010406 0
M  V30 30 C 1.842397 -7.560621 -2.638614 0
M  V30 31 C 0.866818 -7.974837 -3.527165 0
M  V30 32 C -0.203309 -7.153059 -3.813003 0
M  V30 33 C -0.269958 -5.921510 -3.193680 0
M  V30 34 O -1.015194 -7.839809 -4.737045 0
M  V30 35 C -0.194260 -8.857705 -5.284641 0
M  V30 36 O 0.748561 -9.169892 -4.252833 0
M  V30 37 H 2.220945 -4.073997 -0.499354 0
M  V30 38 H -0.285874 -2.988922 1.279359 0
M  V30 39 H -1.027450 -0.741386 1.849787 0
M  V30 40 H 1.566690 0.940800 1.756724 0
M  V30 41 H 2.798737 0.194734 3.677208 0
M  V30 42 H 2.142751 0.922093 5.884364 0
M  V30 43 H -1.674670 3.274589 5.606875 0
M  V30 44 H -2.072119 5.434346 5.664267 0
M  V30 45 H -2.877800 7.525995 4.519400 0
M  V30 46 H -2.925266 7.626860 2.012028 0
M  V30 47 H -2.160999 5.622081 0.684463 0
M  V30 48 H 1.121863 1.009725 -1.312263 0
M  V30 49 H 1.948866 -1.266869 -1.990315 0
M  V30 50 H 2.497454 -5.928342 -1.311119 0
M  V30 51 H 2.712081 -8.147801 -2.362785 0
M  V30 52 H -1.139044 -5.304962 -3.453271 0
M  V30 53 H 0.329883 -8.414710 -6.165144 0
M  V30 54 H -0.749983 -9.748402 -5.602888 0
M  V30 END ATOM
M  V30 BEGIN BOND
M  V30 1 2 1 2
M  V30 2 1 2 3
M  V30 3 1 3 4
M  V30 4 2 4 5
M  V30 5 1 5 6
M  V30 6 2 6 7
M  V30 7 1 7 8
M  V30 8 2 8 9
M  V30 9 1 9 10
M  V30 10 2 10 11
M  V30 11 1 11 12
M  V30 12 1 12 13
M  V30 13 2 13 14
M  V30 14 1 14 15
M  V30 15 2 15 16
M  V30 16 1 16 17
M  V30 17 2 17 18
M  V30 18 1 18 19
M  V30 19 1 19 20
M  V30 20 2 20 21
M  V30 21 1 21 22
M  V30 22 2 22 23
M  V30 23 1 23 24
M  V30 24 2 24 25
M  V30 25 1 7 26
M  V30 26 2 26 27
M  V30 27 1 2 28
M  V30 28 2 28 29
M  V30 29 1 29 30
M  V30 30 2 30 31
M  V30 31 1 31 32
M  V30 32 2 32 33
M  V30 33 1 32 34
M  V30 34 1 34 35
M  V30 35 1 35 36
M  V30 36 1 27 4
M  V30 37 1 33 28
M  V30 38 1 12 8
M  V30 39 1 18 13
M  V30 40 1 25 20
M  V30 41 1 36 31
M  V30 42 1 25 11
M  V30 43 1 3 37
M  V30 44 1 5 38
M  V30 45 1 6 39
M  V30 46 1 14 40
M  V30 47 1 15 41
M  V30 48 1 16 42
M  V30 49 1 19 43
M  V30 50 1 21 44
M  V30 51 1 22 45
M  V30 52 1 23 46
M  V30 53 1 24 47
M  V30 54 1 26 48
M  V30 55 1 27 49
M  V30 56 1 29 50
M  V30 57 1 30 51
M  V30 58 1 33 52
M  V30 59 1 35 53
M  V30 60 1 35 54
M  V30 END BOND
M  V30 END CTAB
M  END
>  <Dataset>  (470) 
ChEMBL_Kinases

>  <Ligand_Instance>  (470) 
nan

>  <PDB_ID>  (470) 
nan

>  <Standardized_SMILES>  (470) 
O=C(Nc1ccc(-c2nnc3n2-c2cccnc2Nc2ccccc2-3)cc1)c1ccc2c(c1)OCO2

>  <Name>  (470) 
nan

>  <Pocket>  (470) 
nan

>  <ATP_Site>  (470) 
nan

>  <Peripheral>  (470) 
nan

>  <Num_H_Atoms_ProtBoundConf>  (470) 
nan

>  <Num_Resolved_Atoms>  (470) 
nan

>  <Num_Not_Resolved_Atoms>  (470) 
nan

$$$$
CHEMBL3684350
     RDKit          3D

  0  0  0  0  0  0  0  0  0  0999 V3000
M  V30 BEGIN CTAB
M  V30 COUNTS 47 51 0 0 0
M  V30 BEGIN ATOM
M  V30 1 C 5.974300 -5.262207 1.720970 0
M  V30 2 C 6.136336 -3.820352 2.214430 0
M  V30 3 C 4.864912 -3.119871 1.815456 0
M  V30 4 O 4.204380 -4.029715 1.240806 0
M  V30 5 N 4.591210 -1.749371 2.081320 0
M  V30 6 C 3.302716 -1.429182 1.564468 0
M  V30 7 C 3.262413 -0.980188 0.260262 0
M  V30 8 C 2.018706 -0.667668 -0.248580 0
M  V30 9 C 0.817654 -0.780795 0.477571 0
M  V30 10 C -0.472175 -0.474037 -0.105260 0
M  V30 11 N -0.766746 -1.264044 -1.178549 0
M  V30 12 N -1.996671 -0.953126 -1.628941 0
M  V30 13 C -2.488581 0.027623 -0.852389 0
M  V30 14 N -1.545569 0.303191 0.061262 0
M  V30 15 C -1.565540 1.255585 1.100240 0
M  V30 16 C -0.287714 1.616648 1.429705 0
M  V30 17 C -0.139987 2.506505 2.473313 0
M  V30 18 C -1.296301 2.972582 3.111266 0
M  V30 19 N -2.561569 2.610008 2.772853 0
M  V30 20 C -2.674636 1.728345 1.736161 0
M  V30 21 N -4.072679 1.496228 1.443018 0
M  V30 22 C -4.500399 1.221694 0.085296 0
M  V30 23 C -5.794112 1.700999 -0.110340 0
M  V30 24 C -6.346327 1.532247 -1.364015 0
M  V30 25 C -5.641784 0.912951 -2.380234 0
M  V30 26 C -4.361347 0.425578 -2.225103 0
M  V30 27 C -3.826339 0.599701 -0.975185 0
M  V30 28 C 0.980269 -1.248502 1.796554 0
M  V30 29 C 2.190551 -1.578519 2.367614 0
M  V30 30 H 5.145079 -5.765195 2.289734 0
M  V30 31 H 5.645240 -5.284833 0.668609 0
M  V30 32 H 6.903817 -5.845588 1.824398 0
M  V30 33 H 7.016042 -3.388077 1.737467 0
M  V30 34 H 6.213770 -3.802258 3.307924 0
M  V30 35 H 5.307784 -1.203688 2.577672 0
M  V30 36 H 4.147276 -0.875419 -0.337562 0
M  V30 37 H 1.933395 -0.310072 -1.269936 0
M  V30 38 H 0.651810 1.379936 1.005938 0
M  V30 39 H 0.798344 2.896308 2.865768 0
M  V30 40 H -1.255161 3.660983 3.927130 0
M  V30 41 H -4.775903 1.540538 2.195742 0
M  V30 42 H -6.279642 2.169771 0.729817 0
M  V30 43 H -7.350145 1.897486 -1.536837 0
M  V30 44 H -6.080811 0.777940 -3.381294 0
M  V30 45 H -3.740635 -0.064481 -2.944082 0
M  V30 46 H 0.078652 -1.349371 2.388405 0
M  V30 47 H 2.226203 -1.930561 3.388734 0
M  V30 END ATOM
M  V30 BEGIN BOND
M  V30 1 1 1 2
M  V30 2 1 2 3
M  V30 3 2 3 4
M  V30 4 1 3 5
M  V30 5 1 5 6
M  V30 6 2 6 7
M  V30 7 1 7 8
M  V30 8 2 8 9
M  V30 9 1 9 10
M  V30 10 2 10 11
M  V30 11 1 11 12
M  V30 12 2 12 13
M  V30 13 1 13 14
M  V30 14 1 14 15
M  V30 15 2 15 16
M  V30 16 1 16 17
M  V30 17 2 17 18
M  V30 18 1 18 19
M  V30 19 2 19 20
M  V30 20 1 20 21
M  V30 21 1 21 22
M  V30 22 2 22 23
M  V30 23 1 23 24
M  V30 24 2 24 25
M  V30 25 1 25 26
M  V30 26 2 26 27
M  V30 27 1 9 28
M  V30 28 2 28 29
M  V30 29 1 29 6
M  V30 30 1 14 10
M  V30 31 1 20 15
M  V30 32 1 27 22
M  V30 33 1 27 13
M  V30 34 1 1 30
M  V30 35 1 1 31
M  V30 36 1 1 32
M  V30 37 1 2 33
M  V30 38 1 2 34
M  V30 39 1 5 35
M  V30 40 1 7 36
M  V30 41 1 8 37
M  V30 42 1 16 38
M  V30 43 1 17 39
M  V30 44 1 18 40
M  V30 45 1 21 41
M  V30 46 1 23 42
M  V30 47 1 24 43
M  V30 48 1 25 44
M  V30 49 1 26 45
M  V30 50 1 28 46
M  V30 51 1 29 47
M  V30 END BOND
M  V30 END CTAB
M  END
>  <Dataset>  (471) 
ChEMBL_Kinases

>  <Ligand_Instance>  (471) 
nan

>  <PDB_ID>  (471) 
nan

>  <Standardized_SMILES>  (471) 
CCC(=O)Nc1ccc(-c2nnc3n2-c2cccnc2Nc2ccccc2-3)cc1

>  <Name>  (471) 
nan

>  <Pocket>  (471) 
nan

>  <ATP_Site>  (471) 
nan

>  <Peripheral>  (471) 
nan

>  <Num_H_Atoms_ProtBoundConf>  (471) 
nan

>  <Num_Resolved_Atoms>  (471) 
nan

>  <Num_Not_Resolved_Atoms>  (471) 
nan

$$$$
CHEMBL3684351
     RDKit          3D

  0  0  0  0  0  0  0  0  0  0999 V3000
M  V30 BEGIN CTAB
M  V30 COUNTS 50 55 0 0 0
M  V30 BEGIN ATOM
M  V30 1 O 1.405747 -5.275940 2.024398 0
M  V30 2 C 1.193940 -4.810052 3.172928 0
M  V30 3 N 0.942354 -3.431437 3.389029 0
M  V30 4 C 0.911582 -2.473056 2.316776 0
M  V30 5 C 2.056007 -1.810659 1.925221 0
M  V30 6 C 1.997503 -0.896849 0.894006 0
M  V30 7 C 0.800786 -0.607142 0.213778 0
M  V30 8 C 0.677211 0.309632 -0.891640 0
M  V30 9 N 1.419942 -0.059768 -1.970046 0
M  V30 10 N 1.211444 0.814095 -2.970605 0
M  V30 11 C 0.343908 1.737382 -2.543772 0
M  V30 12 N 0.036770 1.413047 -1.280098 0
M  V30 13 C -0.828884 2.066720 -0.380678 0
M  V30 14 C -0.468966 1.797346 0.910465 0
M  V30 15 C -1.258929 2.323836 1.911749 0
M  V30 16 C -2.367851 3.095959 1.540368 0
M  V30 17 N -2.717091 3.363059 0.243712 0
M  V30 18 C -1.920984 2.831914 -0.723341 0
M  V30 19 N -2.365083 3.258475 -2.030110 0
M  V30 20 C -1.410240 3.447380 -3.102716 0
M  V30 21 C -1.872559 4.452758 -3.961377 0
M  V30 22 C -1.070327 4.773075 -5.035968 0
M  V30 23 C 0.145256 4.125357 -5.257089 0
M  V30 24 C 0.620525 3.132525 -4.426113 0
M  V30 25 C -0.184219 2.820963 -3.361283 0
M  V30 26 C -0.290552 -1.336601 0.695611 0
M  V30 27 C -0.311303 -2.261920 1.715806 0
M  V30 28 C 1.222949 -5.773835 4.267739 0
M  V30 29 C 1.472440 -7.095419 3.988646 0
M  V30 30 C 1.517166 -8.081047 4.980739 0
M  V30 31 C 1.302238 -7.712856 6.293355 0
M  V30 32 N 1.059445 -6.409956 6.541570 0
M  V30 33 C 1.015614 -5.462146 5.594520 0
M  V30 34 H 0.767795 -3.055610 4.346729 0
M  V30 35 H 2.978514 -2.023611 2.438114 0
M  V30 36 H 2.879678 -0.365728 0.569398 0
M  V30 37 H 0.355855 1.279111 1.320508 0
M  V30 38 H -1.118876 2.207163 2.988367 0
M  V30 39 H -3.015933 3.526448 2.290875 0
M  V30 40 H -3.368642 3.444669 -2.192709 0
M  V30 41 H -2.813793 4.906378 -3.735196 0
M  V30 42 H -1.399230 5.545385 -5.717620 0
M  V30 43 H 0.785554 4.378103 -6.110294 0
M  V30 44 H 1.527326 2.578238 -4.504017 0
M  V30 45 H -1.226567 -1.120188 0.174797 0
M  V30 46 H -1.250745 -2.736171 1.960113 0
M  V30 47 H 1.649836 -7.456156 2.984378 0
M  V30 48 H 1.716685 -9.116619 4.727896 0
M  V30 49 H 1.331233 -8.463985 7.092635 0
M  V30 50 H 0.816991 -4.433704 5.849710 0
M  V30 END ATOM
M  V30 BEGIN BOND
M  V30 1 2 1 2
M  V30 2 1 2 3
M  V30 3 1 3 4
M  V30 4 2 4 5
M  V30 5 1 5 6
M  V30 6 2 6 7
M  V30 7 1 7 8
M  V30 8 2 8 9
M  V30 9 1 9 10
M  V30 10 2 10 11
M  V30 11 1 11 12
M  V30 12 1 12 13
M  V30 13 2 13 14
M  V30 14 1 14 15
M  V30 15 2 15 16
M  V30 16 1 16 17
M  V30 17 2 17 18
M  V30 18 1 18 19
M  V30 19 1 19 20
M  V30 20 2 20 21
M  V30 21 1 21 22
M  V30 22 2 22 23
M  V30 23 1 23 24
M  V30 24 2 24 25
M  V30 25 1 7 26
M  V30 26 2 26 27
M  V30 27 1 2 28
M  V30 28 2 28 29
M  V30 29 1 29 30
M  V30 30 2 30 31
M  V30 31 1 31 32
M  V30 32 2 32 33
M  V30 33 1 27 4
M  V30 34 1 33 28
M  V30 35 1 12 8
M  V30 36 1 18 13
M  V30 37 1 25 20
M  V30 38 1 25 11
M  V30 39 1 3 34
M  V30 40 1 5 35
M  V30 41 1 6 36
M  V30 42 1 14 37
M  V30 43 1 15 38
M  V30 44 1 16 39
M  V30 45 1 19 40
M  V30 46 1 21 41
M  V30 47 1 22 42
M  V30 48 1 23 43
M  V30 49 1 24 44
M  V30 50 1 26 45
M  V30 51 1 27 46
M  V30 52 1 29 47
M  V30 53 1 30 48
M  V30 54 1 31 49
M  V30 55 1 33 50
M  V30 END BOND
M  V30 END CTAB
M  END
>  <Dataset>  (472) 
ChEMBL_Kinases

>  <Ligand_Instance>  (472) 
nan

>  <PDB_ID>  (472) 
nan

>  <Standardized_SMILES>  (472) 
O=C(Nc1ccc(-c2nnc3n2-c2cccnc2Nc2ccccc2-3)cc1)c1cccnc1

>  <Name>  (472) 
nan

>  <Pocket>  (472) 
nan

>  <ATP_Site>  (472) 
nan

>  <Peripheral>  (472) 
nan

>  <Num_H_Atoms_ProtBoundConf>  (472) 
nan

>  <Num_Resolved_Atoms>  (472) 
nan

>  <Num_Not_Resolved_Atoms>  (472) 
nan

$$$$
CHEMBL3684352
     RDKit          3D

  0  0  0  0  0  0  0  0  0  0999 V3000
M  V30 BEGIN CTAB
M  V30 COUNTS 55 60 0 0 0
M  V30 BEGIN ATOM
M  V30 1 C 4.408659 -1.207474 6.111690 0
M  V30 2 O 4.224081 -0.473716 4.945034 0
M  V30 3 C 5.089859 0.446736 4.394852 0
M  V30 4 C 6.273156 0.677483 5.061145 0
M  V30 5 C 7.171323 1.589970 4.548914 0
M  V30 6 C 6.820605 2.220855 3.386016 0
M  V30 7 C 5.632280 1.971530 2.741189 0
M  V30 8 C 4.715349 1.065764 3.228522 0
M  V30 9 C 3.494446 0.878381 2.470942 0
M  V30 10 O 3.301225 1.531134 1.409045 0
M  V30 11 N 2.387203 0.030674 2.719484 0
M  V30 12 C 1.294284 0.042152 1.793954 0
M  V30 13 C 1.356864 -0.842882 0.746751 0
M  V30 14 C 0.285688 -0.799729 -0.120568 0
M  V30 15 C -0.838168 0.047740 -0.032587 0
M  V30 16 C -1.887775 0.024909 -1.024203 0
M  V30 17 N -2.011862 1.203532 -1.696374 0
M  V30 18 N -2.969227 1.091713 -2.631986 0
M  V30 19 C -3.459977 -0.153030 -2.563577 0
M  V30 20 N -2.793597 -0.777662 -1.582846 0
M  V30 21 C -2.935717 -2.097474 -1.110450 0
M  V30 22 C -2.521611 -2.186541 0.189287 0
M  V30 23 C -2.549276 -3.434709 0.776245 0
M  V30 24 C -2.998539 -4.514012 0.006012 0
M  V30 25 N -3.417048 -4.424993 -1.293894 0
M  V30 26 C -3.377574 -3.175120 -1.845733 0
M  V30 27 N -3.914365 -3.208400 -3.187598 0
M  V30 28 C -4.615994 -2.060200 -3.721578 0
M  V30 29 C -5.589146 -2.492105 -4.631319 0
M  V30 30 C -6.366409 -1.521450 -5.225391 0
M  V30 31 C -6.194420 -0.171558 -4.936386 0
M  V30 32 C -5.245953 0.276129 -4.047919 0
M  V30 33 C -4.475438 -0.690473 -3.460217 0
M  V30 34 C -0.804944 0.916892 1.077163 0
M  V30 35 C 0.242640 0.915207 1.975801 0
M  V30 36 H 3.412108 -1.648450 6.389384 0
M  V30 37 H 4.795494 -0.646927 6.966455 0
M  V30 38 H 5.056614 -2.104554 5.912290 0
M  V30 39 H 6.491804 0.145266 5.977894 0
M  V30 40 H 8.089774 1.747459 5.095904 0
M  V30 41 H 7.500443 2.942333 2.955769 0
M  V30 42 H 5.432517 2.522805 1.813826 0
M  V30 43 H 2.432823 -0.559080 3.571516 0
M  V30 44 H 2.142861 -1.554326 0.537497 0
M  V30 45 H 0.267166 -1.479413 -0.982058 0
M  V30 46 H -2.210312 -1.453068 0.883828 0
M  V30 47 H -2.250135 -3.674090 1.803380 0
M  V30 48 H -3.036829 -5.511878 0.419677 0
M  V30 49 H -3.810048 -4.058989 -3.757735 0
M  V30 50 H -5.667920 -3.549560 -4.811273 0
M  V30 51 H -7.125273 -1.829091 -5.931806 0
M  V30 52 H -6.811360 0.600209 -5.407157 0
M  V30 53 H -5.030834 1.289929 -3.755130 0
M  V30 54 H -1.672947 1.580790 1.156699 0
M  V30 55 H 0.208515 1.600428 2.798869 0
M  V30 END ATOM
M  V30 BEGIN BOND
M  V30 1 1 1 2
M  V30 2 1 2 3
M  V30 3 2 3 4
M  V30 4 1 4 5
M  V30 5 2 5 6
M  V30 6 1 6 7
M  V30 7 2 7 8
M  V30 8 1 8 9
M  V30 9 2 9 10
M  V30 10 1 9 11
M  V30 11 1 11 12
M  V30 12 2 12 13
M  V30 13 1 13 14
M  V30 14 2 14 15
M  V30 15 1 15 16
M  V30 16 2 16 17
M  V30 17 1 17 18
M  V30 18 2 18 19
M  V30 19 1 19 20
M  V30 20 1 20 21
M  V30 21 2 21 22
M  V30 22 1 22 23
M  V30 23 2 23 24
M  V30 24 1 24 25
M  V30 25 2 25 26
M  V30 26 1 26 27
M  V30 27 1 27 28
M  V30 28 2 28 29
M  V30 29 1 29 30
M  V30 30 2 30 31
M  V30 31 1 31 32
M  V30 32 2 32 33
M  V30 33 1 15 34
M  V30 34 2 34 35
M  V30 35 1 8 3
M  V30 36 1 35 12
M  V30 37 1 20 16
M  V30 38 1 26 21
M  V30 39 1 33 28
M  V30 40 1 33 19
M  V30 41 1 1 36
M  V30 42 1 1 37
M  V30 43 1 1 38
M  V30 44 1 4 39
M  V30 45 1 5 40
M  V30 46 1 6 41
M  V30 47 1 7 42
M  V30 48 1 11 43
M  V30 49 1 13 44
M  V30 50 1 14 45
M  V30 51 1 22 46
M  V30 52 1 23 47
M  V30 53 1 24 48
M  V30 54 1 27 49
M  V30 55 1 29 50
M  V30 56 1 30 51
M  V30 57 1 31 52
M  V30 58 1 32 53
M  V30 59 1 34 54
M  V30 60 1 35 55
M  V30 END BOND
M  V30 END CTAB
M  END
>  <Dataset>  (473) 
ChEMBL_Kinases

>  <Ligand_Instance>  (473) 
nan

>  <PDB_ID>  (473) 
nan

>  <Standardized_SMILES>  (473) 
COc1ccccc1C(=O)Nc1ccc(-c2nnc3n2-c2cccnc2Nc2ccccc2-3)cc1

>  <Name>  (473) 
nan

>  <Pocket>  (473) 
nan

>  <ATP_Site>  (473) 
nan

>  <Peripheral>  (473) 
nan

>  <Num_H_Atoms_ProtBoundConf>  (473) 
nan

>  <Num_Resolved_Atoms>  (473) 
nan

>  <Num_Not_Resolved_Atoms>  (473) 
nan

$$$$
CHEMBL3684353
     RDKit          3D

  0  0  0  0  0  0  0  0  0  0999 V3000
M  V30 BEGIN CTAB
M  V30 COUNTS 54 60 0 0 0
M  V30 BEGIN ATOM
M  V30 1 O 2.802704 -2.112783 -1.691594 0
M  V30 2 C 2.055969 -3.108411 -1.835084 0
M  V30 3 N 0.705835 -3.189964 -1.402558 0
M  V30 4 C -0.029899 -2.155260 -0.732358 0
M  V30 5 C 0.015540 -2.130562 0.644985 0
M  V30 6 C -0.713300 -1.111539 1.211646 0
M  V30 7 C -1.465240 -0.136515 0.574486 0
M  V30 8 C -2.218955 0.869554 1.283914 0
M  V30 9 N -3.565817 0.787235 1.069091 0
M  V30 10 N -4.197213 1.714758 1.794240 0
M  V30 11 C -3.283774 2.392024 2.471397 0
M  V30 12 N -2.090206 1.874065 2.152091 0
M  V30 13 C -0.803777 2.241127 2.595830 0
M  V30 14 C 0.138984 1.892860 1.667997 0
M  V30 15 C 1.459477 2.138360 1.982355 0
M  V30 16 C 1.731330 2.726141 3.223323 0
M  V30 17 N 0.791883 3.077883 4.148357 0
M  V30 18 C -0.491656 2.822720 3.806145 0
M  V30 19 N -1.393134 3.310067 4.830615 0
M  V30 20 C -2.709280 3.805228 4.484280 0
M  V30 21 C -3.086360 4.797139 5.381784 0
M  V30 22 C -4.310497 5.396012 5.191635 0
M  V30 23 C -5.141018 5.017008 4.132900 0
M  V30 24 C -4.794409 4.038703 3.230342 0
M  V30 25 C -3.573850 3.454167 3.435821 0
M  V30 26 C -1.429892 -0.271684 -0.824821 0
M  V30 27 C -0.740031 -1.243904 -1.484664 0
M  V30 28 C 2.586172 -4.276610 -2.488190 0
M  V30 29 C 2.103229 -5.487078 -2.809105 0
M  V30 30 C 2.862611 -6.427057 -3.449314 0
M  V30 31 C 2.540900 -7.702744 -3.852061 0
M  V30 32 C 3.485384 -8.449899 -4.478432 0
M  V30 33 C 4.776988 -8.069612 -4.770504 0
M  V30 34 C 5.155835 -6.802793 -4.391021 0
M  V30 35 C 4.182320 -6.021809 -3.741023 0
M  V30 36 S 4.282612 -4.301271 -3.082845 0
M  V30 37 H 0.125357 -4.045978 -1.547142 0
M  V30 38 H 0.556474 -2.821192 1.275934 0
M  V30 39 H -0.709018 -1.048641 2.311417 0
M  V30 40 H 0.056590 1.493825 0.692189 0
M  V30 41 H 2.356249 1.932881 1.380923 0
M  V30 42 H 2.745194 2.942006 3.529831 0
M  V30 43 H -1.087861 3.318090 5.806531 0
M  V30 44 H -2.402851 5.038476 6.174042 0
M  V30 45 H -4.632799 6.173514 5.875379 0
M  V30 46 H -6.121073 5.492473 3.975070 0
M  V30 47 H -5.353015 3.680410 2.397080 0
M  V30 48 H -2.000308 0.462042 -1.401689 0
M  V30 49 H -0.747544 -1.301387 -2.567120 0
M  V30 50 H 1.074667 -5.641832 -2.516891 0
M  V30 51 H 1.554981 -8.109223 -3.675899 0
M  V30 52 H 3.191482 -9.465636 -4.786100 0
M  V30 53 H 5.530512 -8.658302 -5.267253 0
M  V30 54 H 6.114456 -6.320537 -4.527263 0
M  V30 END ATOM
M  V30 BEGIN BOND
M  V30 1 2 1 2
M  V30 2 1 2 3
M  V30 3 1 3 4
M  V30 4 2 4 5
M  V30 5 1 5 6
M  V30 6 2 6 7
M  V30 7 1 7 8
M  V30 8 2 8 9
M  V30 9 1 9 10
M  V30 10 2 10 11
M  V30 11 1 11 12
M  V30 12 1 12 13
M  V30 13 2 13 14
M  V30 14 1 14 15
M  V30 15 2 15 16
M  V30 16 1 16 17
M  V30 17 2 17 18
M  V30 18 1 18 19
M  V30 19 1 19 20
M  V30 20 2 20 21
M  V30 21 1 21 22
M  V30 22 2 22 23
M  V30 23 1 23 24
M  V30 24 2 24 25
M  V30 25 1 7 26
M  V30 26 2 26 27
M  V30 27 1 2 28
M  V30 28 2 28 29
M  V30 29 1 29 30
M  V30 30 2 30 31
M  V30 31 1 31 32
M  V30 32 2 32 33
M  V30 33 1 33 34
M  V30 34 2 34 35
M  V30 35 1 35 36
M  V30 36 1 27 4
M  V30 37 1 36 28
M  V30 38 1 12 8
M  V30 39 1 18 13
M  V30 40 1 25 20
M  V30 41 1 35 30
M  V30 42 1 25 11
M  V30 43 1 3 37
M  V30 44 1 5 38
M  V30 45 1 6 39
M  V30 46 1 14 40
M  V30 47 1 15 41
M  V30 48 1 16 42
M  V30 49 1 19 43
M  V30 50 1 21 44
M  V30 51 1 22 45
M  V30 52 1 23 46
M  V30 53 1 24 47
M  V30 54 1 26 48
M  V30 55 1 27 49
M  V30 56 1 29 50
M  V30 57 1 31 51
M  V30 58 1 32 52
M  V30 59 1 33 53
M  V30 60 1 34 54
M  V30 END BOND
M  V30 END CTAB
M  END
>  <Dataset>  (474) 
ChEMBL_Kinases

>  <Ligand_Instance>  (474) 
nan

>  <PDB_ID>  (474) 
nan

>  <Standardized_SMILES>  (474) 
O=C(Nc1ccc(-c2nnc3n2-c2cccnc2Nc2ccccc2-3)cc1)c1cc2ccccc2s1

>  <Name>  (474) 
nan

>  <Pocket>  (474) 
nan

>  <ATP_Site>  (474) 
nan

>  <Peripheral>  (474) 
nan

>  <Num_H_Atoms_ProtBoundConf>  (474) 
nan

>  <Num_Resolved_Atoms>  (474) 
nan

>  <Num_Not_Resolved_Atoms>  (474) 
nan

$$$$
CHEMBL3684354
     RDKit          3D

  0  0  0  0  0  0  0  0  0  0999 V3000
M  V30 BEGIN CTAB
M  V30 COUNTS 53 57 0 0 0
M  V30 BEGIN ATOM
M  V30 1 C 6.706951 -0.891973 2.333279 0
M  V30 2 C 6.085282 -0.525220 1.000078 0
M  V30 3 C 6.446970 -1.626652 0.026053 0
M  V30 4 C 6.660420 0.806880 0.594952 0
M  V30 5 C 4.608807 -0.508172 1.125520 0
M  V30 6 O 4.436185 -0.816482 2.333829 0
M  V30 7 N 3.793089 -0.188768 0.002945 0
M  V30 8 C 2.395619 -0.226063 0.329923 0
M  V30 9 C 1.819907 0.945456 0.781356 0
M  V30 10 C 0.476616 0.914328 1.097224 0
M  V30 11 C -0.321653 -0.241246 0.981532 0
M  V30 12 C -1.722909 -0.270762 1.347567 0
M  V30 13 N -1.933873 0.020190 2.667637 0
M  V30 14 N -3.242257 -0.074814 2.942661 0
M  V30 15 C -3.874039 -0.424217 1.811891 0
M  V30 16 N -2.932608 -0.532561 0.863324 0
M  V30 17 C -3.078932 -0.869154 -0.491695 0
M  V30 18 C -2.050206 -0.345660 -1.227301 0
M  V30 19 C -2.023438 -0.636403 -2.577404 0
M  V30 20 C -3.052897 -1.441424 -3.084538 0
M  V30 21 N -4.091909 -1.971877 -2.370987 0
M  V30 22 C -4.068753 -1.652314 -1.041661 0
M  V30 23 N -5.247379 -2.195440 -0.397336 0
M  V30 24 C -5.863680 -1.509441 0.723147 0
M  V30 25 C -7.240417 -1.750949 0.722590 0
M  V30 26 C -7.975601 -1.150544 1.721691 0
M  V30 27 C -7.389898 -0.338994 2.693253 0
M  V30 28 C -6.034836 -0.093105 2.706134 0
M  V30 29 C -5.304200 -0.690077 1.713791 0
M  V30 30 C 0.365223 -1.379747 0.512076 0
M  V30 31 C 1.704988 -1.412195 0.180154 0
M  V30 32 H 6.477590 -0.132536 3.110384 0
M  V30 33 H 6.238944 -1.837077 2.706326 0
M  V30 34 H 7.806175 -1.022326 2.195321 0
M  V30 35 H 7.483625 -1.992894 0.182837 0
M  V30 36 H 5.684665 -2.428426 0.152808 0
M  V30 37 H 6.314450 -1.196250 -1.002888 0
M  V30 38 H 6.690739 0.969073 -0.498807 0
M  V30 39 H 7.655024 0.929825 1.030965 0
M  V30 40 H 5.998918 1.574640 1.066413 0
M  V30 41 H 4.284615 0.021127 -0.870893 0
M  V30 42 H 2.385781 1.860758 0.889112 0
M  V30 43 H -0.017594 1.818107 1.457615 0
M  V30 44 H -1.255039 0.303446 -0.970820 0
M  V30 45 H -1.286662 -0.314704 -3.327662 0
M  V30 46 H -3.079874 -1.702410 -4.135414 0
M  V30 47 H -5.670271 -3.076190 -0.745666 0
M  V30 48 H -7.630276 -2.384382 -0.047791 0
M  V30 49 H -9.042730 -1.318609 1.747348 0
M  V30 50 H -7.971729 0.132968 3.478942 0
M  V30 51 H -5.476087 0.511615 3.401649 0
M  V30 52 H -0.200647 -2.319255 0.397997 0
M  V30 53 H 2.145877 -2.333079 -0.171855 0
M  V30 END ATOM
M  V30 BEGIN BOND
M  V30 1 1 1 2
M  V30 2 1 2 3
M  V30 3 1 2 4
M  V30 4 1 2 5
M  V30 5 2 5 6
M  V30 6 1 5 7
M  V30 7 1 7 8
M  V30 8 2 8 9
M  V30 9 1 9 10
M  V30 10 2 10 11
M  V30 11 1 11 12
M  V30 12 2 12 13
M  V30 13 1 13 14
M  V30 14 2 14 15
M  V30 15 1 15 16
M  V30 16 1 16 17
M  V30 17 2 17 18
M  V30 18 1 18 19
M  V30 19 2 19 20
M  V30 20 1 20 21
M  V30 21 2 21 22
M  V30 22 1 22 23
M  V30 23 1 23 24
M  V30 24 2 24 25
M  V30 25 1 25 26
M  V30 26 2 26 27
M  V30 27 1 27 28
M  V30 28 2 28 29
M  V30 29 1 11 30
M  V30 30 2 30 31
M  V30 31 1 31 8
M  V30 32 1 16 12
M  V30 33 1 22 17
M  V30 34 1 29 24
M  V30 35 1 29 15
M  V30 36 1 1 32
M  V30 37 1 1 33
M  V30 38 1 1 34
M  V30 39 1 3 35
M  V30 40 1 3 36
M  V30 41 1 3 37
M  V30 42 1 4 38
M  V30 43 1 4 39
M  V30 44 1 4 40
M  V30 45 1 7 41
M  V30 46 1 9 42
M  V30 47 1 10 43
M  V30 48 1 18 44
M  V30 49 1 19 45
M  V30 50 1 20 46
M  V30 51 1 23 47
M  V30 52 1 25 48
M  V30 53 1 26 49
M  V30 54 1 27 50
M  V30 55 1 28 51
M  V30 56 1 30 52
M  V30 57 1 31 53
M  V30 END BOND
M  V30 END CTAB
M  END
>  <Dataset>  (475) 
ChEMBL_Kinases

>  <Ligand_Instance>  (475) 
nan

>  <PDB_ID>  (475) 
nan

>  <Standardized_SMILES>  (475) 
CC(C)(C)C(=O)Nc1ccc(-c2nnc3n2-c2cccnc2Nc2ccccc2-3)cc1

>  <Name>  (475) 
nan

>  <Pocket>  (475) 
nan

>  <ATP_Site>  (475) 
nan

>  <Peripheral>  (475) 
nan

>  <Num_H_Atoms_ProtBoundConf>  (475) 
nan

>  <Num_Resolved_Atoms>  (475) 
nan

>  <Num_Not_Resolved_Atoms>  (475) 
nan

$$$$
CHEMBL3684355
     RDKit          3D

  0  0  0  0  0  0  0  0  0  0999 V3000
M  V30 BEGIN CTAB
M  V30 COUNTS 63 68 0 0 0
M  V30 BEGIN ATOM
M  V30 1 C 4.096459 4.239197 6.726788 0
M  V30 2 C 4.142569 2.732138 6.635139 0
M  V30 3 C 5.561726 2.319344 6.496094 0
M  V30 4 C 3.547894 2.193018 7.911853 0
M  V30 5 C 3.287329 2.268584 5.489714 0
M  V30 6 C 3.282474 0.876112 5.343912 0
M  V30 7 C 2.540276 0.265100 4.329374 0
M  V30 8 C 1.818246 1.081497 3.483920 0
M  V30 9 C 1.047025 0.426264 2.428773 0
M  V30 10 O 1.090045 -0.830333 2.356262 0
M  V30 11 N 0.249498 1.080294 1.473166 0
M  V30 12 C -0.351425 0.100652 0.604558 0
M  V30 13 C 0.300645 -0.294746 -0.546569 0
M  V30 14 C -0.336457 -1.234820 -1.326336 0
M  V30 15 C -1.588194 -1.794693 -1.010285 0
M  V30 16 C -2.270972 -2.806163 -1.785751 0
M  V30 17 N -2.476921 -3.976679 -1.109640 0
M  V30 18 N -3.061875 -4.868065 -1.900151 0
M  V30 19 C -3.243089 -4.301410 -3.084575 0
M  V30 20 N -2.762855 -3.051654 -3.000980 0
M  V30 21 C -2.722533 -2.040118 -3.982402 0
M  V30 22 C -2.696401 -0.806509 -3.392171 0
M  V30 23 C -2.600784 0.287894 -4.226759 0
M  V30 24 C -2.540391 0.061421 -5.605133 0
M  V30 25 N -2.571351 -1.176041 -6.185749 0
M  V30 26 C -2.665169 -2.225948 -5.347486 0
M  V30 27 N -2.766513 -3.462348 -6.095534 0
M  V30 28 C -3.535387 -4.577568 -5.573515 0
M  V30 29 C -4.074512 -5.307297 -6.635051 0
M  V30 30 C -4.853112 -6.398855 -6.314964 0
M  V30 31 C -5.094309 -6.761805 -5.001190 0
M  V30 32 C -4.574044 -6.059529 -3.935307 0
M  V30 33 C -3.799266 -4.974327 -4.253864 0
M  V30 34 C -2.148892 -1.310062 0.187361 0
M  V30 35 C -1.574095 -0.372507 1.019222 0
M  V30 36 C 1.821867 2.454084 3.626117 0
M  V30 37 C 2.554842 3.062025 4.628426 0
M  V30 38 H 4.502074 4.479151 7.753524 0
M  V30 39 H 4.787368 4.740253 6.031475 0
M  V30 40 H 3.066776 4.650150 6.733743 0
M  V30 41 H 6.287474 3.161889 6.631685 0
M  V30 42 H 5.796408 1.584383 7.292718 0
M  V30 43 H 5.790212 1.795655 5.545512 0
M  V30 44 H 3.292946 3.004856 8.646545 0
M  V30 45 H 2.602279 1.641238 7.711456 0
M  V30 46 H 4.228078 1.442054 8.395428 0
M  V30 47 H 3.835703 0.206491 5.987470 0
M  V30 48 H 2.555858 -0.828232 4.239623 0
M  V30 49 H 0.198614 2.124200 1.513109 0
M  V30 50 H 1.263375 0.101118 -0.839442 0
M  V30 51 H 0.084528 -1.614035 -2.247595 0
M  V30 52 H -2.782074 -0.503092 -2.382646 0
M  V30 53 H -2.566647 1.332910 -3.917483 0
M  V30 54 H -2.463443 0.870486 -6.305757 0
M  V30 55 H -2.308341 -3.542907 -7.000962 0
M  V30 56 H -3.847954 -4.975480 -7.631923 0
M  V30 57 H -5.281387 -6.979208 -7.120415 0
M  V30 58 H -5.711380 -7.626588 -4.737950 0
M  V30 59 H -4.695806 -6.251563 -2.882134 0
M  V30 60 H -3.123210 -1.706854 0.489609 0
M  V30 61 H -2.074323 -0.065198 1.907773 0
M  V30 62 H 1.256236 3.093164 2.963445 0
M  V30 63 H 2.618823 4.116445 4.816219 0
M  V30 END ATOM
M  V30 BEGIN BOND
M  V30 1 1 1 2
M  V30 2 1 2 3
M  V30 3 1 2 4
M  V30 4 1 2 5
M  V30 5 2 5 6
M  V30 6 1 6 7
M  V30 7 2 7 8
M  V30 8 1 8 9
M  V30 9 2 9 10
M  V30 10 1 9 11
M  V30 11 1 11 12
M  V30 12 2 12 13
M  V30 13 1 13 14
M  V30 14 2 14 15
M  V30 15 1 15 16
M  V30 16 2 16 17
M  V30 17 1 17 18
M  V30 18 2 18 19
M  V30 19 1 19 20
M  V30 20 1 20 21
M  V30 21 2 21 22
M  V30 22 1 22 23
M  V30 23 2 23 24
M  V30 24 1 24 25
M  V30 25 2 25 26
M  V30 26 1 26 27
M  V30 27 1 27 28
M  V30 28 2 28 29
M  V30 29 1 29 30
M  V30 30 2 30 31
M  V30 31 1 31 32
M  V30 32 2 32 33
M  V30 33 1 15 34
M  V30 34 2 34 35
M  V30 35 1 8 36
M  V30 36 2 36 37
M  V30 37 1 37 5
M  V30 38 1 35 12
M  V30 39 1 20 16
M  V30 40 1 26 21
M  V30 41 1 33 28
M  V30 42 1 33 19
M  V30 43 1 1 38
M  V30 44 1 1 39
M  V30 45 1 1 40
M  V30 46 1 3 41
M  V30 47 1 3 42
M  V30 48 1 3 43
M  V30 49 1 4 44
M  V30 50 1 4 45
M  V30 51 1 4 46
M  V30 52 1 6 47
M  V30 53 1 7 48
M  V30 54 1 11 49
M  V30 55 1 13 50
M  V30 56 1 14 51
M  V30 57 1 22 52
M  V30 58 1 23 53
M  V30 59 1 24 54
M  V30 60 1 27 55
M  V30 61 1 29 56
M  V30 62 1 30 57
M  V30 63 1 31 58
M  V30 64 1 32 59
M  V30 65 1 34 60
M  V30 66 1 35 61
M  V30 67 1 36 62
M  V30 68 1 37 63
M  V30 END BOND
M  V30 END CTAB
M  END
>  <Dataset>  (476) 
ChEMBL_Kinases

>  <Ligand_Instance>  (476) 
nan

>  <PDB_ID>  (476) 
nan

>  <Standardized_SMILES>  (476) 
CC(C)(C)c1ccc(C(=O)Nc2ccc(-c3nnc4n3-c3cccnc3Nc3ccccc3-4)cc2)cc1

>  <Name>  (476) 
nan

>  <Pocket>  (476) 
nan

>  <ATP_Site>  (476) 
nan

>  <Peripheral>  (476) 
nan

>  <Num_H_Atoms_ProtBoundConf>  (476) 
nan

>  <Num_Resolved_Atoms>  (476) 
nan

>  <Num_Not_Resolved_Atoms>  (476) 
nan

$$$$
CHEMBL3684356
     RDKit          3D

  0  0  0  0  0  0  0  0  0  0999 V3000
M  V30 BEGIN CTAB
M  V30 COUNTS 59 64 0 0 0
M  V30 BEGIN ATOM
M  V30 1 C 6.930049 3.845913 5.604391 0
M  V30 2 N 6.408667 4.239270 4.331595 0
M  V30 3 C 6.960916 5.420294 3.702653 0
M  V30 4 C 5.383634 3.429074 3.787899 0
M  V30 5 C 4.946637 2.326102 4.490820 0
M  V30 6 C 3.944508 1.490160 4.014198 0
M  V30 7 C 3.340662 1.731043 2.808512 0
M  V30 8 C 2.296799 0.831262 2.348531 0
M  V30 9 O 1.983885 -0.140932 3.084314 0
M  V30 10 N 1.598056 0.953908 1.139457 0
M  V30 11 C 0.582117 0.008721 0.780279 0
M  V30 12 C -0.690475 0.344149 1.202042 0
M  V30 13 C -1.684699 -0.552444 0.866626 0
M  V30 14 C -1.488431 -1.745249 0.146711 0
M  V30 15 C -2.618322 -2.610802 -0.108375 0
M  V30 16 N -3.230845 -3.061516 1.024204 0
M  V30 17 N -4.226047 -3.888704 0.712885 0
M  V30 18 C -4.266875 -3.980765 -0.615268 0
M  V30 19 N -3.290128 -3.199384 -1.100555 0
M  V30 20 C -2.924510 -2.951322 -2.440111 0
M  V30 21 C -2.309193 -1.733287 -2.536813 0
M  V30 22 C -1.838191 -1.364569 -3.783840 0
M  V30 23 C -2.034093 -2.267158 -4.837481 0
M  V30 24 N -2.651825 -3.475517 -4.730077 0
M  V30 25 C -3.099433 -3.804673 -3.500942 0
M  V30 26 N -3.800022 -5.072177 -3.542533 0
M  V30 27 C -4.914097 -5.324295 -2.646326 0
M  V30 28 C -5.826208 -6.185073 -3.269589 0
M  V30 29 C -6.960653 -6.515295 -2.557287 0
M  V30 30 C -7.192066 -6.023717 -1.288790 0
M  V30 31 C -6.311419 -5.176029 -0.651950 0
M  V30 32 C -5.179605 -4.843898 -1.355798 0
M  V30 33 C -0.156263 -1.992468 -0.235112 0
M  V30 34 C 0.879010 -1.135669 0.070053 0
M  V30 35 C 3.744691 2.824596 2.067718 0
M  V30 36 C 4.743800 3.626523 2.581749 0
M  V30 37 H 7.302356 2.790615 5.577923 0
M  V30 38 H 6.150999 3.843704 6.408885 0
M  V30 39 H 7.804906 4.456169 5.893003 0
M  V30 40 H 6.767218 6.315768 4.357232 0
M  V30 41 H 6.535876 5.640556 2.704379 0
M  V30 42 H 8.048783 5.280896 3.538073 0
M  V30 43 H 5.374207 2.056111 5.466017 0
M  V30 44 H 3.640989 0.632351 4.615606 0
M  V30 45 H 1.836056 1.750834 0.508423 0
M  V30 46 H -0.942739 1.235385 1.759481 0
M  V30 47 H -2.696486 -0.321007 1.181812 0
M  V30 48 H -2.147819 -0.957890 -1.835549 0
M  V30 49 H -1.327206 -0.448617 -4.053558 0
M  V30 50 H -1.688091 -2.040019 -5.834871 0
M  V30 51 H -3.519927 -5.784694 -4.215701 0
M  V30 52 H -5.580461 -6.534428 -4.263221 0
M  V30 53 H -7.677631 -7.178807 -3.021723 0
M  V30 54 H -8.081799 -6.281765 -0.729129 0
M  V30 55 H -6.389220 -4.734932 0.329352 0
M  V30 56 H -0.004954 -2.927168 -0.799350 0
M  V30 57 H 1.879232 -1.357050 -0.237454 0
M  V30 58 H 3.290888 3.046544 1.110908 0
M  V30 59 H 5.043665 4.476435 1.985221 0
M  V30 END ATOM
M  V30 BEGIN BOND
M  V30 1 1 1 2
M  V30 2 1 2 3
M  V30 3 1 2 4
M  V30 4 2 4 5
M  V30 5 1 5 6
M  V30 6 2 6 7
M  V30 7 1 7 8
M  V30 8 2 8 9
M  V30 9 1 8 10
M  V30 10 1 10 11
M  V30 11 2 11 12
M  V30 12 1 12 13
M  V30 13 2 13 14
M  V30 14 1 14 15
M  V30 15 2 15 16
M  V30 16 1 16 17
M  V30 17 2 17 18
M  V30 18 1 18 19
M  V30 19 1 19 20
M  V30 20 2 20 21
M  V30 21 1 21 22
M  V30 22 2 22 23
M  V30 23 1 23 24
M  V30 24 2 24 25
M  V30 25 1 25 26
M  V30 26 1 26 27
M  V30 27 2 27 28
M  V30 28 1 28 29
M  V30 29 2 29 30
M  V30 30 1 30 31
M  V30 31 2 31 32
M  V30 32 1 14 33
M  V30 33 2 33 34
M  V30 34 1 7 35
M  V30 35 2 35 36
M  V30 36 1 36 4
M  V30 37 1 34 11
M  V30 38 1 19 15
M  V30 39 1 25 20
M  V30 40 1 32 27
M  V30 41 1 32 18
M  V30 42 1 1 37
M  V30 43 1 1 38
M  V30 44 1 1 39
M  V30 45 1 3 40
M  V30 46 1 3 41
M  V30 47 1 3 42
M  V30 48 1 5 43
M  V30 49 1 6 44
M  V30 50 1 10 45
M  V30 51 1 12 46
M  V30 52 1 13 47
M  V30 53 1 21 48
M  V30 54 1 22 49
M  V30 55 1 23 50
M  V30 56 1 26 51
M  V30 57 1 28 52
M  V30 58 1 29 53
M  V30 59 1 30 54
M  V30 60 1 31 55
M  V30 61 1 33 56
M  V30 62 1 34 57
M  V30 63 1 35 58
M  V30 64 1 36 59
M  V30 END BOND
M  V30 END CTAB
M  END
>  <Dataset>  (477) 
ChEMBL_Kinases

>  <Ligand_Instance>  (477) 
nan

>  <PDB_ID>  (477) 
nan

>  <Standardized_SMILES>  (477) 
CN(C)c1ccc(C(=O)Nc2ccc(-c3nnc4n3-c3cccnc3Nc3ccccc3-4)cc2)cc1

>  <Name>  (477) 
nan

>  <Pocket>  (477) 
nan

>  <ATP_Site>  (477) 
nan

>  <Peripheral>  (477) 
nan

>  <Num_H_Atoms_ProtBoundConf>  (477) 
nan

>  <Num_Resolved_Atoms>  (477) 
nan

>  <Num_Not_Resolved_Atoms>  (477) 
nan

$$$$
CHEMBL3684357
     RDKit          3D

  0  0  0  0  0  0  0  0  0  0999 V3000
M  V30 BEGIN CTAB
M  V30 COUNTS 54 59 0 0 0
M  V30 BEGIN ATOM
M  V30 1 O 1.645502 -1.684354 4.520968 0
M  V30 2 C 1.439740 -0.450067 4.659412 0
M  V30 3 N 1.043602 0.197702 3.484704 0
M  V30 4 C 0.831841 -0.286413 2.164027 0
M  V30 5 C 1.877481 -0.297625 1.265178 0
M  V30 6 C 1.656939 -0.770956 -0.015474 0
M  V30 7 C 0.404160 -1.245338 -0.446345 0
M  V30 8 C 0.138478 -1.775556 -1.754903 0
M  V30 9 N 0.874305 -2.887556 -2.050906 0
M  V30 10 N 0.541280 -3.351630 -3.256211 0
M  V30 11 C -0.405439 -2.551847 -3.748364 0
M  V30 12 N -0.633267 -1.603725 -2.828969 0
M  V30 13 C -1.535494 -0.520455 -2.869844 0
M  V30 14 C -1.098066 0.491597 -2.060014 0
M  V30 15 C -1.901938 1.607083 -1.947903 0
M  V30 16 C -3.101804 1.623828 -2.670309 0
M  V30 17 N -3.530562 0.609010 -3.481550 0
M  V30 18 C -2.720324 -0.473851 -3.572410 0
M  V30 19 N -3.256855 -1.429804 -4.516616 0
M  V30 20 C -2.363698 -2.258671 -5.303683 0
M  V30 21 C -2.966593 -2.537869 -6.537602 0
M  V30 22 C -2.250374 -3.306540 -7.431247 0
M  V30 23 C -0.976931 -3.778278 -7.100778 0
M  V30 24 C -0.363510 -3.523007 -5.905305 0
M  V30 25 C -1.083263 -2.759192 -5.024396 0
M  V30 26 C -0.587464 -1.187037 0.553581 0
M  V30 27 C -0.434732 -0.728427 1.844813 0
M  V30 28 C 1.578725 0.315731 5.899474 0
M  V30 29 C 1.356763 1.671496 6.068505 0
M  V30 30 C 1.532648 2.247905 7.309880 0
M  V30 31 C 1.922029 1.500405 8.372138 0
M  V30 32 F 2.057056 2.203070 9.541865 0
M  V30 33 C 2.151511 0.132525 8.225594 0
M  V30 34 C 2.572421 -0.556055 9.473265 0
M  V30 35 F 2.795085 -1.891850 9.323996 0
M  V30 36 F 3.682192 0.127732 9.968562 0
M  V30 37 F 1.569076 -0.324857 10.424212 0
M  V30 38 C 1.971649 -0.429764 6.978744 0
M  V30 39 H 0.828686 1.216192 3.403726 0
M  V30 40 H 2.861135 0.053308 1.536917 0
M  V30 41 H 2.469808 -0.789403 -0.744117 0
M  V30 42 H -0.205622 0.620748 -1.507729 0
M  V30 43 H -1.702928 2.492209 -1.348777 0
M  V30 44 H -3.775880 2.457441 -2.628489 0
M  V30 45 H -4.265701 -1.505120 -4.636243 0
M  V30 46 H -3.954627 -2.138339 -6.715458 0
M  V30 47 H -2.685144 -3.537266 -8.384278 0
M  V30 48 H -0.406989 -4.391530 -7.816460 0
M  V30 49 H 0.591298 -3.834817 -5.565714 0
M  V30 50 H -1.565347 -1.546617 0.250512 0
M  V30 51 H -1.295343 -0.747314 2.497893 0
M  V30 52 H 1.048755 2.200786 5.176510 0
M  V30 53 H 1.337201 3.310547 7.349257 0
M  V30 54 H 2.179486 -1.501638 6.985063 0
M  V30 END ATOM
M  V30 BEGIN BOND
M  V30 1 2 1 2
M  V30 2 1 2 3
M  V30 3 1 3 4
M  V30 4 2 4 5
M  V30 5 1 5 6
M  V30 6 2 6 7
M  V30 7 1 7 8
M  V30 8 2 8 9
M  V30 9 1 9 10
M  V30 10 2 10 11
M  V30 11 1 11 12
M  V30 12 1 12 13
M  V30 13 2 13 14
M  V30 14 1 14 15
M  V30 15 2 15 16
M  V30 16 1 16 17
M  V30 17 2 17 18
M  V30 18 1 18 19
M  V30 19 1 19 20
M  V30 20 2 20 21
M  V30 21 1 21 22
M  V30 22 2 22 23
M  V30 23 1 23 24
M  V30 24 2 24 25
M  V30 25 1 7 26
M  V30 26 2 26 27
M  V30 27 1 2 28
M  V30 28 2 28 29
M  V30 29 1 29 30
M  V30 30 2 30 31
M  V30 31 1 31 32
M  V30 32 1 31 33
M  V30 33 1 33 34
M  V30 34 1 34 35
M  V30 35 1 34 36
M  V30 36 1 34 37
M  V30 37 2 33 38
M  V30 38 1 27 4
M  V30 39 1 38 28
M  V30 40 1 12 8
M  V30 41 1 18 13
M  V30 42 1 25 20
M  V30 43 1 25 11
M  V30 44 1 3 39
M  V30 45 1 5 40
M  V30 46 1 6 41
M  V30 47 1 14 42
M  V30 48 1 15 43
M  V30 49 1 16 44
M  V30 50 1 19 45
M  V30 51 1 21 46
M  V30 52 1 22 47
M  V30 53 1 23 48
M  V30 54 1 24 49
M  V30 55 1 26 50
M  V30 56 1 27 51
M  V30 57 1 29 52
M  V30 58 1 30 53
M  V30 59 1 38 54
M  V30 END BOND
M  V30 END CTAB
M  END
>  <Dataset>  (478) 
ChEMBL_Kinases

>  <Ligand_Instance>  (478) 
nan

>  <PDB_ID>  (478) 
nan

>  <Standardized_SMILES>  (478) 
O=C(Nc1ccc(-c2nnc3n2-c2cccnc2Nc2ccccc2-3)cc1)c1ccc(F)c(C(F)(F)F)c1

>  <Name>  (478) 
nan

>  <Pocket>  (478) 
nan

>  <ATP_Site>  (478) 
nan

>  <Peripheral>  (478) 
nan

>  <Num_H_Atoms_ProtBoundConf>  (478) 
nan

>  <Num_Resolved_Atoms>  (478) 
nan

>  <Num_Not_Resolved_Atoms>  (478) 
nan

$$$$
CHEMBL3684349
     RDKit          3D

  0  0  0  0  0  0  0  0  0  0999 V3000
M  V30 BEGIN CTAB
M  V30 COUNTS 52 57 0 0 0
M  V30 BEGIN ATOM
M  V30 1 C 9.620174 -4.231974 4.232447 0 CHG=-1 VAL=3
M  V30 2 N 8.703460 -3.767705 3.733265 0 CHG=1 VAL=4
M  V30 3 C 7.593061 -3.195056 3.149374 0
M  V30 4 C 7.652738 -2.620936 1.877402 0
M  V30 5 C 6.549245 -2.046192 1.284959 0
M  V30 6 C 5.342154 -2.025415 1.946779 0
M  V30 7 C 4.079027 -1.456814 1.461008 0
M  V30 8 O 2.978822 -1.456332 2.104342 0
M  V30 9 N 3.965253 -0.830738 0.178200 0
M  V30 10 C 2.628668 -0.374684 -0.021918 0
M  V30 11 C 2.260130 0.897048 0.366805 0
M  V30 12 C 0.963341 1.328585 0.168451 0
M  V30 13 C -0.010690 0.500214 -0.426922 0
M  V30 14 C -1.372893 0.898743 -0.693750 0
M  V30 15 N -1.472528 1.952955 -1.555263 0
M  V30 16 N -2.768241 2.225082 -1.787231 0
M  V30 17 C -3.493597 1.365138 -1.090774 0
M  V30 18 N -2.639093 0.570901 -0.431381 0
M  V30 19 C -2.909344 -0.495684 0.446543 0
M  V30 20 C -1.868245 -0.677996 1.314726 0
M  V30 21 C -1.965220 -1.728307 2.205266 0
M  V30 22 C -3.105341 -2.529897 2.169569 0
M  V30 23 N -4.142217 -2.334543 1.298572 0
M  V30 24 C -4.029219 -1.298163 0.431748 0
M  V30 25 N -5.226486 -1.169560 -0.368636 0
M  V30 26 C -5.673660 0.132640 -0.822239 0
M  V30 27 C -7.063677 0.126401 -0.922706 0
M  V30 28 C -7.675595 1.293848 -1.327145 0
M  V30 29 C -6.916894 2.429040 -1.620772 0
M  V30 30 C -5.543002 2.459748 -1.529745 0
M  V30 31 C -4.949119 1.293427 -1.127593 0
M  V30 32 C 0.466826 -0.777182 -0.787157 0
M  V30 33 C 1.747581 -1.258743 -0.612709 0
M  V30 34 C 5.253454 -2.593841 3.223473 0
M  V30 35 C 6.385839 -3.158125 3.776463 0
M  V30 36 H 8.576478 -2.614693 1.323241 0
M  V30 37 H 6.545535 -1.590817 0.305945 0
M  V30 38 H 4.781898 -0.765533 -0.440665 0
M  V30 39 H 2.982983 1.553931 0.824988 0
M  V30 40 H 0.608629 2.312380 0.449516 0
M  V30 41 H -0.981599 -0.125925 1.479872 0
M  V30 42 H -1.217508 -2.005756 2.959411 0
M  V30 43 H -3.224573 -3.362824 2.844085 0
M  V30 44 H -5.770961 -2.018621 -0.601213 0
M  V30 45 H -7.587293 -0.786232 -0.683061 0
M  V30 46 H -8.752673 1.324711 -1.415921 0
M  V30 47 H -7.394194 3.365520 -1.943678 0
M  V30 48 H -4.883183 3.264615 -1.729624 0
M  V30 49 H -0.277800 -1.427032 -1.248768 0
M  V30 50 H 1.959562 -2.263877 -0.942313 0
M  V30 51 H 4.314216 -2.605074 3.797460 0
M  V30 52 H 6.320117 -3.597192 4.760965 0
M  V30 END ATOM
M  V30 BEGIN BOND
M  V30 1 3 1 2
M  V30 2 1 2 3
M  V30 3 2 3 4
M  V30 4 1 4 5
M  V30 5 2 5 6
M  V30 6 1 6 7
M  V30 7 2 7 8
M  V30 8 1 7 9
M  V30 9 1 9 10
M  V30 10 2 10 11
M  V30 11 1 11 12
M  V30 12 2 12 13
M  V30 13 1 13 14
M  V30 14 2 14 15
M  V30 15 1 15 16
M  V30 16 2 16 17
M  V30 17 1 17 18
M  V30 18 1 18 19
M  V30 19 2 19 20
M  V30 20 1 20 21
M  V30 21 2 21 22
M  V30 22 1 22 23
M  V30 23 2 23 24
M  V30 24 1 24 25
M  V30 25 1 25 26
M  V30 26 2 26 27
M  V30 27 1 27 28
M  V30 28 2 28 29
M  V30 29 1 29 30
M  V30 30 2 30 31
M  V30 31 1 13 32
M  V30 32 2 32 33
M  V30 33 1 6 34
M  V30 34 2 34 35
M  V30 35 1 35 3
M  V30 36 1 33 10
M  V30 37 1 18 14
M  V30 38 1 24 19
M  V30 39 1 31 26
M  V30 40 1 31 17
M  V30 41 1 4 36
M  V30 42 1 5 37
M  V30 43 1 9 38
M  V30 44 1 11 39
M  V30 45 1 12 40
M  V30 46 1 20 41
M  V30 47 1 21 42
M  V30 48 1 22 43
M  V30 49 1 25 44
M  V30 50 1 27 45
M  V30 51 1 28 46
M  V30 52 1 29 47
M  V30 53 1 30 48
M  V30 54 1 32 49
M  V30 55 1 33 50
M  V30 56 1 34 51
M  V30 57 1 35 52
M  V30 END BOND
M  V30 END CTAB
M  END
>  <Dataset>  (479) 
ChEMBL_Kinases

>  <Ligand_Instance>  (479) 
nan

>  <PDB_ID>  (479) 
nan

>  <Standardized_SMILES>  (479) 
[C-]#[N+]c1ccc(C(=O)Nc2ccc(-c3nnc4n3-c3cccnc3Nc3ccccc3-4)cc2)cc1

>  <Name>  (479) 
nan

>  <Pocket>  (479) 
nan

>  <ATP_Site>  (479) 
nan

>  <Peripheral>  (479) 
nan

>  <Num_H_Atoms_ProtBoundConf>  (479) 
nan

>  <Num_Resolved_Atoms>  (479) 
nan

>  <Num_Not_Resolved_Atoms>  (479) 
nan

$$$$
CHEMBL3680794
     RDKit          3D

  0  0  0  0  0  0  0  0  0  0999 V3000
M  V30 BEGIN CTAB
M  V30 COUNTS 61 65 0 0 0
M  V30 BEGIN ATOM
M  V30 1 C 6.055022 -2.663942 4.227742 0
M  V30 2 N 6.575387 -1.854928 3.128989 0
M  V30 3 C 6.982527 -0.604364 3.716328 0
M  V30 4 C 7.429427 0.392958 2.675600 0
M  V30 5 C 6.212961 0.835469 1.967785 0
M  V30 6 C 5.804689 2.050247 1.501489 0
M  V30 7 C 4.615020 2.259037 0.846923 0
M  V30 8 C 3.748295 1.214043 0.619528 0
M  V30 9 N 2.506530 1.400634 -0.050907 0
M  V30 10 C 1.188801 1.654099 0.416565 0
M  V30 11 O 0.971552 1.744676 1.667390 0
M  V30 12 C 0.128165 1.801221 -0.563594 0
M  V30 13 C 0.326740 1.872414 -1.926377 0
M  V30 14 C -0.698250 1.999106 -2.867481 0
M  V30 15 C -1.957627 2.048137 -2.304070 0
M  V30 16 C -2.277125 1.986087 -0.972372 0
M  V30 17 C -3.626211 2.029568 -0.361667 0
M  V30 18 N -4.188919 0.685805 -0.197325 0
M  V30 19 C -4.732989 -0.121177 -1.204555 0
M  V30 20 O -4.746726 0.356967 -2.386190 0
M  V30 21 C -5.272401 -1.448485 -0.976757 0
M  V30 22 C -5.382525 -2.093341 0.230482 0
M  V30 23 C -5.893176 -3.360316 0.399874 0
M  V30 24 C -6.322605 -4.022248 -0.728977 0
M  V30 25 N -6.879103 -5.350800 -0.711261 0
M  V30 26 C -7.990837 -5.964961 -0.250517 0
M  V30 27 N -7.915691 -7.265937 -0.565260 0
M  V30 28 C -6.770044 -7.470351 -1.216363 0
M  V30 29 N -6.108954 -6.273473 -1.314752 0
M  V30 30 C -6.260054 -3.462853 -2.015166 0
M  V30 31 C -5.725711 -2.177401 -2.067793 0
M  V30 32 C -1.173455 1.859626 -0.121778 0
M  V30 33 C 4.146386 -0.032601 1.086230 0
M  V30 34 C 5.345380 -0.243669 1.748484 0
M  V30 35 C 5.546744 -1.675997 2.173209 0
M  V30 36 H 5.721098 -2.001201 5.078049 0
M  V30 37 H 6.835091 -3.340999 4.638547 0
M  V30 38 H 5.137669 -3.218089 3.936922 0
M  V30 39 H 6.144416 -0.140471 4.304705 0
M  V30 40 H 7.841190 -0.849807 4.406842 0
M  V30 41 H 8.036655 -0.167873 1.942691 0
M  V30 42 H 8.011524 1.195655 3.139555 0
M  V30 43 H 6.561784 2.824201 1.724626 0
M  V30 44 H 4.404512 3.278390 0.528993 0
M  V30 45 H 2.810459 1.297832 -1.039481 0
M  V30 46 H 1.323101 1.830240 -2.308509 0
M  V30 47 H -0.520037 2.054071 -3.915874 0
M  V30 48 H -2.791162 2.153523 -2.988436 0
M  V30 49 H -3.539991 2.496376 0.654168 0
M  V30 50 H -4.307255 2.672064 -0.952110 0
M  V30 51 H -4.198966 0.265287 0.748222 0
M  V30 52 H -5.035686 -1.559252 1.103992 0
M  V30 53 H -5.964888 -3.846453 1.360089 0
M  V30 54 H -8.637335 -5.237650 0.246359 0
M  V30 55 H -6.523563 -8.485349 -1.561366 0
M  V30 56 H -6.584288 -3.952156 -2.913223 0
M  V30 57 H -5.674608 -1.738996 -3.069757 0
M  V30 58 H -1.357819 1.805580 0.955438 0
M  V30 59 H 3.436092 -0.821592 0.886472 0
M  V30 60 H 5.621837 -2.319849 1.268948 0
M  V30 61 H 4.561133 -1.957348 2.656112 0
M  V30 END ATOM
M  V30 BEGIN BOND
M  V30 1 1 1 2
M  V30 2 1 2 3
M  V30 3 1 3 4
M  V30 4 1 4 5
M  V30 5 2 5 6
M  V30 6 1 6 7
M  V30 7 2 7 8
M  V30 8 1 8 9
M  V30 9 1 9 10
M  V30 10 2 10 11
M  V30 11 1 10 12
M  V30 12 2 12 13
M  V30 13 1 13 14
M  V30 14 2 14 15
M  V30 15 1 15 16
M  V30 16 1 16 17
M  V30 17 1 17 18
M  V30 18 1 18 19
M  V30 19 2 19 20
M  V30 20 1 19 21
M  V30 21 2 21 22
M  V30 22 1 22 23
M  V30 23 2 23 24
M  V30 24 1 24 25
M  V30 25 1 25 26
M  V30 26 2 26 27
M  V30 27 1 27 28
M  V30 28 2 28 29
M  V30 29 1 24 30
M  V30 30 2 30 31
M  V30 31 2 16 32
M  V30 32 1 8 33
M  V30 33 2 33 34
M  V30 34 1 34 35
M  V30 35 1 35 2
M  V30 36 1 34 5
M  V30 37 1 32 12
M  V30 38 1 31 21
M  V30 39 1 29 25
M  V30 40 1 1 36
M  V30 41 1 1 37
M  V30 42 1 1 38
M  V30 43 1 3 39
M  V30 44 1 3 40
M  V30 45 1 4 41
M  V30 46 1 4 42
M  V30 47 1 6 43
M  V30 48 1 7 44
M  V30 49 1 9 45
M  V30 50 1 13 46
M  V30 51 1 14 47
M  V30 52 1 15 48
M  V30 53 1 17 49
M  V30 54 1 17 50
M  V30 55 1 18 51
M  V30 56 1 22 52
M  V30 57 1 23 53
M  V30 58 1 26 54
M  V30 59 1 28 55
M  V30 60 1 30 56
M  V30 61 1 31 57
M  V30 62 1 32 58
M  V30 63 1 33 59
M  V30 64 1 35 60
M  V30 65 1 35 61
M  V30 END BOND
M  V30 END CTAB
M  END
>  <Dataset>  (480) 
ChEMBL_Kinases

>  <Ligand_Instance>  (480) 
nan

>  <PDB_ID>  (480) 
nan

>  <Standardized_SMILES>  (480) 
CN1CCc2ccc(NC(=O)c3cccc(CNC(=O)c4ccc(-n5cncn5)cc4)c3)cc2C1

>  <Name>  (480) 
nan

>  <Pocket>  (480) 
nan

>  <ATP_Site>  (480) 
nan

>  <Peripheral>  (480) 
nan

>  <Num_H_Atoms_ProtBoundConf>  (480) 
nan

>  <Num_Resolved_Atoms>  (480) 
nan

>  <Num_Not_Resolved_Atoms>  (480) 
nan

$$$$
CHEMBL3680793
     RDKit          3D

  0  0  0  0  0  0  0  0  0  0999 V3000
M  V30 BEGIN CTAB
M  V30 COUNTS 63 67 0 0 0
M  V30 BEGIN ATOM
M  V30 1 C 4.635153 -0.381123 3.820865 0
M  V30 2 N 4.786554 0.937182 4.393767 0
M  V30 3 C 5.995418 1.595253 4.035908 0
M  V30 4 C 5.824878 2.871219 3.262217 0
M  V30 5 C 4.621109 2.856343 2.397702 0
M  V30 6 C 4.555619 3.367358 1.133353 0
M  V30 7 C 3.361182 3.278208 0.452203 0
M  V30 8 C 2.212719 2.709623 0.945967 0
M  V30 9 N 0.963611 2.588681 0.292430 0
M  V30 10 C 0.579400 2.995521 -0.996756 0
M  V30 11 O 1.429395 3.557380 -1.728584 0
M  V30 12 C -0.744070 2.821116 -1.575503 0
M  V30 13 C -0.972821 3.257867 -2.862608 0
M  V30 14 C -2.226476 3.111928 -3.461374 0
M  V30 15 C -3.280135 2.525351 -2.785340 0
M  V30 16 C -3.066673 2.075942 -1.477659 0
M  V30 17 C -4.212617 1.453414 -0.773090 0
M  V30 18 N -4.318131 0.030582 -0.971456 0
M  V30 19 C -3.479371 -0.885741 -0.307002 0
M  V30 20 O -2.566874 -0.661507 0.507125 0
M  V30 21 C -3.727588 -2.313494 -0.630330 0
M  V30 22 C -4.646304 -2.938568 -1.478878 0
M  V30 23 C -4.563921 -4.304230 -1.507986 0
M  V30 24 C -3.668361 -4.962289 -0.774580 0
M  V30 25 C -3.444907 -6.394455 -0.685381 0
M  V30 26 C -4.141432 -7.371020 -1.363848 0
M  V30 27 C -3.816641 -8.698706 -1.179146 0
M  V30 28 C -2.800377 -9.068499 -0.321929 0
M  V30 29 N -2.453467 -10.433355 -0.120650 0
M  V30 30 N -2.115050 -8.094467 0.346463 0
M  V30 31 C -2.420142 -6.794855 0.176934 0
M  V30 32 S -2.784000 -3.673545 0.093020 0
M  V30 33 C -1.824381 2.244478 -0.945057 0
M  V30 34 C 2.342099 2.213778 2.222246 0
M  V30 35 C 3.492966 2.274790 2.937389 0
M  V30 36 C 3.587518 1.731561 4.295804 0
M  V30 37 H 5.588043 -0.752109 3.433101 0
M  V30 38 H 3.812965 -0.399675 3.052969 0
M  V30 39 H 4.314637 -1.061552 4.638430 0
M  V30 40 H 6.551337 1.860410 4.958131 0
M  V30 41 H 6.627820 0.839239 3.490145 0
M  V30 42 H 5.776871 3.754789 3.905710 0
M  V30 43 H 6.705192 2.984772 2.597395 0
M  V30 44 H 5.423257 3.817465 0.711936 0
M  V30 45 H 3.354559 3.692927 -0.538539 0
M  V30 46 H 0.175785 2.138689 0.796214 0
M  V30 47 H -0.204616 3.731870 -3.473030 0
M  V30 48 H -2.368750 3.471855 -4.486145 0
M  V30 49 H -4.218185 2.446805 -3.311105 0
M  V30 50 H -5.171421 1.952490 -0.961062 0
M  V30 51 H -4.035464 1.589365 0.335993 0
M  V30 52 H -5.064856 -0.284459 -1.647740 0
M  V30 53 H -5.309184 -2.274545 -2.009958 0
M  V30 54 H -5.269123 -4.843819 -2.163855 0
M  V30 55 H -4.907702 -6.977325 -2.001587 0
M  V30 56 H -4.388701 -9.429525 -1.730963 0
M  V30 57 H -3.138063 -11.209096 -0.270060 0
M  V30 58 H -1.462831 -10.654925 0.191317 0
M  V30 59 H -1.786354 -6.146882 0.776075 0
M  V30 60 H -1.690663 1.890524 0.065904 0
M  V30 61 H 1.474128 1.738668 2.704140 0
M  V30 62 H 2.744422 1.080262 4.584317 0
M  V30 63 H 3.697546 2.589494 5.006324 0
M  V30 END ATOM
M  V30 BEGIN BOND
M  V30 1 1 1 2
M  V30 2 1 2 3
M  V30 3 1 3 4
M  V30 4 1 4 5
M  V30 5 2 5 6
M  V30 6 1 6 7
M  V30 7 2 7 8
M  V30 8 1 8 9
M  V30 9 1 9 10
M  V30 10 2 10 11
M  V30 11 1 10 12
M  V30 12 2 12 13
M  V30 13 1 13 14
M  V30 14 2 14 15
M  V30 15 1 15 16
M  V30 16 1 16 17
M  V30 17 1 17 18
M  V30 18 1 18 19
M  V30 19 2 19 20
M  V30 20 1 19 21
M  V30 21 2 21 22
M  V30 22 1 22 23
M  V30 23 2 23 24
M  V30 24 1 24 25
M  V30 25 2 25 26
M  V30 26 1 26 27
M  V30 27 2 27 28
M  V30 28 1 28 29
M  V30 29 1 28 30
M  V30 30 2 30 31
M  V30 31 1 24 32
M  V30 32 2 16 33
M  V30 33 1 8 34
M  V30 34 2 34 35
M  V30 35 1 35 36
M  V30 36 1 36 2
M  V30 37 1 35 5
M  V30 38 1 33 12
M  V30 39 1 32 21
M  V30 40 1 31 25
M  V30 41 1 1 37
M  V30 42 1 1 38
M  V30 43 1 1 39
M  V30 44 1 3 40
M  V30 45 1 3 41
M  V30 46 1 4 42
M  V30 47 1 4 43
M  V30 48 1 6 44
M  V30 49 1 7 45
M  V30 50 1 9 46
M  V30 51 1 13 47
M  V30 52 1 14 48
M  V30 53 1 15 49
M  V30 54 1 17 50
M  V30 55 1 17 51
M  V30 56 1 18 52
M  V30 57 1 22 53
M  V30 58 1 23 54
M  V30 59 1 26 55
M  V30 60 1 27 56
M  V30 61 1 29 57
M  V30 62 1 29 58
M  V30 63 1 31 59
M  V30 64 1 33 60
M  V30 65 1 34 61
M  V30 66 1 36 62
M  V30 67 1 36 63
M  V30 END BOND
M  V30 END CTAB
M  END
>  <Dataset>  (481) 
ChEMBL_Kinases

>  <Ligand_Instance>  (481) 
nan

>  <PDB_ID>  (481) 
nan

>  <Standardized_SMILES>  (481) 
CN1CCc2ccc(NC(=O)c3cccc(CNC(=O)c4ccc(-c5ccc(N)nc5)s4)c3)cc2C1

>  <Name>  (481) 
nan

>  <Pocket>  (481) 
nan

>  <ATP_Site>  (481) 
nan

>  <Peripheral>  (481) 
nan

>  <Num_H_Atoms_ProtBoundConf>  (481) 
nan

>  <Num_Resolved_Atoms>  (481) 
nan

>  <Num_Not_Resolved_Atoms>  (481) 
nan

$$$$
CHEMBL3680792
     RDKit          3D

  0  0  0  0  0  0  0  0  0  0999 V3000
M  V30 BEGIN CTAB
M  V30 COUNTS 67 72 0 0 0
M  V30 BEGIN ATOM
M  V30 1 N 9.780580 -0.262678 4.061112 0
M  V30 2 C 8.893427 0.450943 3.849014 0
M  V30 3 C 7.788582 1.322188 3.566408 0
M  V30 4 C 7.692009 2.611828 4.086542 0
M  V30 5 C 6.636489 3.463224 3.824851 0
M  V30 6 C 5.674464 2.934140 3.000623 0
M  V30 7 C 4.495103 3.509516 2.538841 0
M  V30 8 C 3.814858 2.626117 1.727129 0
M  V30 9 C 2.530232 2.839976 1.038608 0
M  V30 10 O 2.057713 1.919824 0.327402 0
M  V30 11 N 1.874009 4.072743 1.201886 0
M  V30 12 C 0.600496 4.485978 0.610601 0
M  V30 13 C -0.551424 3.858043 1.302855 0
M  V30 14 C -1.125621 4.485415 2.390519 0
M  V30 15 C -2.198520 3.895595 3.026783 0
M  V30 16 C -2.721966 2.688911 2.609165 0
M  V30 17 C -2.170380 2.020046 1.511803 0
M  V30 18 C -2.649866 0.739114 0.989194 0
M  V30 19 O -2.151563 0.149690 -0.010618 0
M  V30 20 N -3.728135 0.059066 1.581742 0
M  V30 21 C -4.034014 -1.228563 0.869144 0
M  V30 22 N -3.438739 -2.246187 1.261001 0
M  V30 23 C -3.629248 -3.427007 0.711130 0
M  V30 24 C -4.546672 -3.526807 -0.362679 0
M  V30 25 S -5.085221 -1.777426 -0.484117 0
M  V30 26 C -4.768819 -4.836645 -0.988950 0
M  V30 27 C -3.463199 -5.544139 -1.303524 0 CFG=1
M  V30 28 N -3.129868 -5.385170 -2.668006 0
M  V30 29 C -2.938328 -4.075340 -3.170330 0
M  V30 30 C -1.656201 -3.823987 -3.898801 0
M  V30 31 O -1.290111 -4.916066 -4.647067 0
M  V30 32 C -1.010658 -5.960395 -3.744900 0
M  V30 33 C -2.369762 -6.430093 -3.259001 0
M  V30 34 C -2.377423 -5.178145 -0.319654 0
M  V30 35 C -3.028892 -4.769425 1.010395 0
M  V30 36 C -1.100159 2.652885 0.912378 0
M  V30 37 N 4.560658 1.508618 1.680964 0
M  V30 38 C 5.669673 1.678179 2.433960 0
M  V30 39 C 6.756132 0.877264 2.737017 0
M  V30 40 H 8.497120 2.965974 4.737054 0
M  V30 41 H 6.578691 4.454025 4.234385 0
M  V30 42 H 4.120447 4.495842 2.752663 0
M  V30 43 H 2.329620 4.793757 1.812389 0
M  V30 44 H 0.622390 4.005815 -0.413768 0
M  V30 45 H 0.550482 5.568035 0.506550 0
M  V30 46 H -0.731509 5.435582 2.737414 0
M  V30 47 H -2.688909 4.343804 3.886439 0
M  V30 48 H -3.562187 2.214381 3.097002 0
M  V30 49 H -4.229408 0.418146 2.400527 0
M  V30 50 H -5.429655 -5.418954 -0.313800 0
M  V30 51 H -5.352592 -4.646854 -1.913431 0
M  V30 52 H -3.669855 -6.624394 -1.143358 0
M  V30 53 H -3.149265 -3.332851 -2.381689 0
M  V30 54 H -3.764384 -3.907800 -3.923966 0
M  V30 55 H -0.805993 -3.531856 -3.267279 0
M  V30 56 H -1.830377 -2.968003 -4.600006 0
M  V30 57 H -0.545978 -6.797568 -4.319957 0
M  V30 58 H -0.369415 -5.623250 -2.915593 0
M  V30 59 H -2.297293 -7.257693 -2.526283 0
M  V30 60 H -2.925875 -6.773032 -4.170388 0
M  V30 61 H -1.792458 -4.289906 -0.625232 0
M  V30 62 H -1.696140 -6.008033 -0.113952 0
M  V30 63 H -3.750285 -5.498445 1.376842 0
M  V30 64 H -2.148875 -4.642204 1.707836 0
M  V30 65 H -0.663958 2.143890 0.059224 0
M  V30 66 H 4.300668 0.645981 1.135363 0
M  V30 67 H 6.756122 -0.125833 2.286367 0
M  V30 END ATOM
M  V30 BEGIN BOND
M  V30 1 3 1 2
M  V30 2 1 2 3
M  V30 3 2 3 4
M  V30 4 1 4 5
M  V30 5 2 5 6
M  V30 6 1 6 7
M  V30 7 2 7 8
M  V30 8 1 8 9
M  V30 9 2 9 10
M  V30 10 1 9 11
M  V30 11 1 11 12
M  V30 12 1 12 13
M  V30 13 2 13 14
M  V30 14 1 14 15
M  V30 15 2 15 16
M  V30 16 1 16 17
M  V30 17 1 17 18
M  V30 18 2 18 19
M  V30 19 1 18 20
M  V30 20 1 20 21
M  V30 21 2 21 22
M  V30 22 1 22 23
M  V30 23 2 23 24
M  V30 24 1 24 25
M  V30 25 1 24 26
M  V30 26 1 26 27
M  V30 27 1 27 28
M  V30 28 1 28 29
M  V30 29 1 29 30
M  V30 30 1 30 31
M  V30 31 1 31 32
M  V30 32 1 32 33
M  V30 33 1 27 34
M  V30 34 1 34 35
M  V30 35 2 17 36
M  V30 36 1 8 37
M  V30 37 1 37 38
M  V30 38 2 38 39
M  V30 39 1 39 3
M  V30 40 1 38 6
M  V30 41 1 36 13
M  V30 42 1 25 21
M  V30 43 1 33 28
M  V30 44 1 35 23
M  V30 45 1 4 40
M  V30 46 1 5 41
M  V30 47 1 7 42
M  V30 48 1 11 43
M  V30 49 1 12 44
M  V30 50 1 12 45
M  V30 51 1 14 46
M  V30 52 1 15 47
M  V30 53 1 16 48
M  V30 54 1 20 49
M  V30 55 1 26 50
M  V30 56 1 26 51
M  V30 57 1 27 52 CFG=3
M  V30 58 1 29 53
M  V30 59 1 29 54
M  V30 60 1 30 55
M  V30 61 1 30 56
M  V30 62 1 32 57
M  V30 63 1 32 58
M  V30 64 1 33 59
M  V30 65 1 33 60
M  V30 66 1 34 61
M  V30 67 1 34 62
M  V30 68 1 35 63
M  V30 69 1 35 64
M  V30 70 1 36 65
M  V30 71 1 37 66
M  V30 72 1 39 67
M  V30 END BOND
M  V30 END CTAB
M  END
>  <Dataset>  (482) 
ChEMBL_Kinases

>  <Ligand_Instance>  (482) 
nan

>  <PDB_ID>  (482) 
nan

>  <Standardized_SMILES>  (482) 
N#Cc1ccc2cc(C(=O)NCc3cccc(C(=O)Nc4nc5c(s4)C[C@@H](N4CCOCC4)CC5)c3)[nH]c2c1

>  <Name>  (482) 
nan

>  <Pocket>  (482) 
nan

>  <ATP_Site>  (482) 
nan

>  <Peripheral>  (482) 
nan

>  <Num_H_Atoms_ProtBoundConf>  (482) 
nan

>  <Num_Resolved_Atoms>  (482) 
nan

>  <Num_Not_Resolved_Atoms>  (482) 
nan

$$$$
CHEMBL3680791
     RDKit          3D

  0  0  0  0  0  0  0  0  0  0999 V3000
M  V30 BEGIN CTAB
M  V30 COUNTS 61 65 0 0 0
M  V30 BEGIN ATOM
M  V30 1 C 5.285841 -0.415256 6.744635 0
M  V30 2 N 4.894394 -0.572314 5.373789 0
M  V30 3 C 5.828295 -1.399154 4.678873 0
M  V30 4 C 6.012688 -1.070322 3.224407 0
M  V30 5 C 4.755347 -0.584743 2.593172 0
M  V30 6 C 4.248966 -0.977788 1.367736 0
M  V30 7 C 3.043727 -0.396644 0.960062 0
M  V30 8 C 2.391616 0.540456 1.769461 0
M  V30 9 N 1.179165 1.037352 1.230600 0
M  V30 10 C 0.722565 2.087713 0.398444 0
M  V30 11 O 1.551631 2.905086 -0.077165 0
M  V30 12 C -0.694540 2.219348 0.096109 0
M  V30 13 C -1.006177 3.275075 -0.731937 0
M  V30 14 C -2.346328 3.477171 -1.076826 0
M  V30 15 C -3.326677 2.617435 -0.582065 0
M  V30 16 C -2.988798 1.553596 0.255962 0
M  V30 17 C -4.074237 0.666321 0.757672 0
M  V30 18 N -4.297141 -0.454766 -0.130193 0
M  V30 19 C -3.544076 -0.988687 -1.189806 0
M  V30 20 O -2.460146 -0.368711 -1.409554 0
M  V30 21 C -3.968773 -2.137627 -1.955597 0
M  V30 22 C -5.129263 -2.860709 -1.777845 0
M  V30 23 C -5.450917 -3.946843 -2.561197 0
M  V30 24 C -4.631320 -4.384402 -3.578231 0
M  V30 25 N -4.978038 -5.445258 -4.318748 0
M  V30 26 C -4.162679 -5.875110 -5.324301 0
M  V30 27 O -4.529817 -6.888795 -6.005299 0
M  V30 28 C -2.981802 -5.198645 -5.560615 0
M  V30 29 C -2.646945 -4.111654 -4.786970 0
M  V30 30 C -3.454268 -3.648237 -3.755738 0
M  V30 31 C -3.136491 -2.564938 -2.972296 0
M  V30 32 C -1.662426 1.370548 0.584456 0
M  V30 33 C 2.913147 0.918740 2.987085 0
M  V30 34 C 4.102030 0.327329 3.359508 0
M  V30 35 C 4.744197 0.674878 4.676823 0
M  V30 36 H 5.440357 -1.395093 7.244710 0
M  V30 37 H 6.168361 0.233926 6.905844 0
M  V30 38 H 4.441233 0.081378 7.305341 0
M  V30 39 H 6.807817 -1.377589 5.199653 0
M  V30 40 H 5.429481 -2.448084 4.704491 0
M  V30 41 H 6.409669 -1.976847 2.688653 0
M  V30 42 H 6.746760 -0.239913 3.143119 0
M  V30 43 H 4.823467 -1.703336 0.820465 0
M  V30 44 H 2.653330 -0.716946 -0.016305 0
M  V30 45 H 0.556252 0.327467 1.660424 0
M  V30 46 H -0.295133 3.967719 -1.141547 0
M  V30 47 H -2.623041 4.299002 -1.726489 0
M  V30 48 H -4.330588 2.831803 -0.887347 0
M  V30 49 H -3.790647 0.231376 1.755558 0
M  V30 50 H -5.011895 1.229678 0.941382 0
M  V30 51 H -5.214571 -0.935217 0.098629 0
M  V30 52 H -5.790233 -2.544559 -0.993316 0
M  V30 53 H -6.380776 -4.483730 -2.379402 0
M  V30 54 H -5.879543 -5.908164 -4.088282 0
M  V30 55 H -2.353063 -5.570255 -6.373872 0
M  V30 56 H -1.704896 -3.594372 -4.996037 0
M  V30 57 H -2.193615 -2.026917 -3.164113 0
M  V30 58 H -1.400720 0.548978 1.231118 0
M  V30 59 H 2.396221 1.636860 3.587496 0
M  V30 60 H 4.118168 1.413427 5.219122 0
M  V30 61 H 5.747039 1.078347 4.431723 0
M  V30 END ATOM
M  V30 BEGIN BOND
M  V30 1 1 1 2
M  V30 2 1 2 3
M  V30 3 1 3 4
M  V30 4 1 4 5
M  V30 5 2 5 6
M  V30 6 1 6 7
M  V30 7 2 7 8
M  V30 8 1 8 9
M  V30 9 1 9 10
M  V30 10 2 10 11
M  V30 11 1 10 12
M  V30 12 2 12 13
M  V30 13 1 13 14
M  V30 14 2 14 15
M  V30 15 1 15 16
M  V30 16 1 16 17
M  V30 17 1 17 18
M  V30 18 1 18 19
M  V30 19 2 19 20
M  V30 20 1 19 21
M  V30 21 2 21 22
M  V30 22 1 22 23
M  V30 23 2 23 24
M  V30 24 1 24 25
M  V30 25 1 25 26
M  V30 26 2 26 27
M  V30 27 1 26 28
M  V30 28 2 28 29
M  V30 29 1 29 30
M  V30 30 2 30 31
M  V30 31 2 16 32
M  V30 32 1 8 33
M  V30 33 2 33 34
M  V30 34 1 34 35
M  V30 35 1 35 2
M  V30 36 1 34 5
M  V30 37 1 32 12
M  V30 38 1 31 21
M  V30 39 1 30 24
M  V30 40 1 1 36
M  V30 41 1 1 37
M  V30 42 1 1 38
M  V30 43 1 3 39
M  V30 44 1 3 40
M  V30 45 1 4 41
M  V30 46 1 4 42
M  V30 47 1 6 43
M  V30 48 1 7 44
M  V30 49 1 9 45
M  V30 50 1 13 46
M  V30 51 1 14 47
M  V30 52 1 15 48
M  V30 53 1 17 49
M  V30 54 1 17 50
M  V30 55 1 18 51
M  V30 56 1 22 52
M  V30 57 1 23 53
M  V30 58 1 25 54
M  V30 59 1 28 55
M  V30 60 1 29 56
M  V30 61 1 31 57
M  V30 62 1 32 58
M  V30 63 1 33 59
M  V30 64 1 35 60
M  V30 65 1 35 61
M  V30 END BOND
M  V30 END CTAB
M  END
>  <Dataset>  (483) 
ChEMBL_Kinases

>  <Ligand_Instance>  (483) 
nan

>  <PDB_ID>  (483) 
nan

>  <Standardized_SMILES>  (483) 
CN1CCc2ccc(NC(=O)c3cccc(CNC(=O)c4ccc5[nH]c(=O)ccc5c4)c3)cc2C1

>  <Name>  (483) 
nan

>  <Pocket>  (483) 
nan

>  <ATP_Site>  (483) 
nan

>  <Peripheral>  (483) 
nan

>  <Num_H_Atoms_ProtBoundConf>  (483) 
nan

>  <Num_Resolved_Atoms>  (483) 
nan

>  <Num_Not_Resolved_Atoms>  (483) 
nan

$$$$
CHEMBL3680790
     RDKit          3D

  0  0  0  0  0  0  0  0  0  0999 V3000
M  V30 BEGIN CTAB
M  V30 COUNTS 70 75 0 0 0
M  V30 BEGIN ATOM
M  V30 1 C 6.172995 1.785369 4.195712 0
M  V30 2 C 6.597294 3.203209 4.411197 0
M  V30 3 N 7.880510 3.361177 4.817686 0
M  V30 4 N 8.066974 4.677660 4.953346 0
M  V30 5 N 6.933159 5.292994 4.638946 0
M  V30 6 N 6.010890 4.428866 4.302324 0
M  V30 7 C 4.671474 4.431310 3.887139 0
M  V30 8 C 3.626344 5.008226 4.578419 0
M  V30 9 C 2.305908 4.986749 4.126067 0
M  V30 10 C 2.001235 4.365414 2.932908 0
M  V30 11 C 0.607659 4.372465 2.508521 0
M  V30 12 O -0.224613 4.938484 3.263094 0
M  V30 13 N 0.129163 3.785543 1.304940 0
M  V30 14 C -1.229994 3.762668 0.837233 0
M  V30 15 C -2.094474 2.776045 1.532024 0
M  V30 16 C -2.850858 3.024442 2.680121 0
M  V30 17 C -3.602807 1.996703 3.197738 0
M  V30 18 C -3.670257 0.733691 2.670984 0
M  V30 19 C -2.926513 0.442258 1.518868 0
M  V30 20 C -2.901078 -0.850429 0.841563 0
M  V30 21 O -2.224794 -1.148495 -0.181711 0
M  V30 22 N -3.683002 -1.936677 1.309730 0
M  V30 23 C -3.448938 -3.104656 0.422073 0
M  V30 24 N -2.662698 -3.968675 0.493744 0
M  V30 25 C -2.503637 -4.978752 -0.331054 0
M  V30 26 C -3.395675 -5.036295 -1.455836 0
M  V30 27 S -4.387100 -3.572205 -1.169289 0
M  V30 28 C -3.148094 -6.223376 -2.358939 0
M  V30 29 C -1.676514 -6.224316 -2.802646 0 CFG=1
M  V30 30 N -1.571183 -5.329906 -3.854897 0
M  V30 31 C -2.299403 -5.563919 -5.026857 0
M  V30 32 C -1.701049 -4.798437 -6.214478 0
M  V30 33 O -1.549128 -3.462287 -5.969577 0
M  V30 34 C -1.755092 -3.151394 -4.631696 0
M  V30 35 C -0.917777 -4.130180 -3.826094 0
M  V30 36 C -0.803895 -6.042485 -1.631409 0
M  V30 37 C -1.529090 -6.107428 -0.290721 0
M  V30 38 C -2.170364 1.484005 1.002660 0
M  V30 39 C 3.035125 3.800945 2.260138 0
M  V30 40 C 4.344827 3.812900 2.692158 0
M  V30 41 H 6.330264 1.205442 5.130933 0
M  V30 42 H 6.799604 1.345515 3.398201 0
M  V30 43 H 5.123031 1.704570 3.905799 0
M  V30 44 H 3.895255 5.487599 5.508963 0
M  V30 45 H 1.593424 5.479026 4.772196 0
M  V30 46 H 0.893061 3.328850 0.725366 0
M  V30 47 H -1.222767 3.551571 -0.244603 0
M  V30 48 H -1.674508 4.795558 0.918847 0
M  V30 49 H -2.797215 4.005692 3.086093 0
M  V30 50 H -4.198412 2.176198 4.093831 0
M  V30 51 H -4.261763 -0.071321 3.080098 0
M  V30 52 H -4.297660 -1.873780 2.137421 0
M  V30 53 H -3.837986 -6.094167 -3.191700 0
M  V30 54 H -3.404607 -7.109436 -1.751835 0
M  V30 55 H -1.524000 -7.252929 -3.202751 0
M  V30 56 H -2.296056 -6.629293 -5.366184 0
M  V30 57 H -3.335083 -5.181762 -4.934379 0
M  V30 58 H -2.443624 -4.891510 -7.061135 0
M  V30 59 H -0.772815 -5.270299 -6.589618 0
M  V30 60 H -1.526783 -2.107921 -4.385512 0
M  V30 61 H -2.840967 -3.273059 -4.438625 0
M  V30 62 H -0.674529 -3.605040 -2.898262 0
M  V30 63 H 0.061858 -4.220050 -4.381927 0
M  V30 64 H -0.270162 -5.065854 -1.550460 0
M  V30 65 H 0.048157 -6.789552 -1.634027 0
M  V30 66 H -2.121770 -7.035872 -0.170152 0
M  V30 67 H -0.779022 -5.997097 0.504094 0
M  V30 68 H -1.589807 1.273466 0.112209 0
M  V30 69 H 2.834307 3.305718 1.322692 0
M  V30 70 H 5.116818 3.334203 2.088801 0
M  V30 END ATOM
M  V30 BEGIN BOND
M  V30 1 1 1 2
M  V30 2 2 2 3
M  V30 3 1 3 4
M  V30 4 2 4 5
M  V30 5 1 5 6
M  V30 6 1 6 7
M  V30 7 2 7 8
M  V30 8 1 8 9
M  V30 9 2 9 10
M  V30 10 1 10 11
M  V30 11 2 11 12
M  V30 12 1 11 13
M  V30 13 1 13 14
M  V30 14 1 14 15
M  V30 15 2 15 16
M  V30 16 1 16 17
M  V30 17 2 17 18
M  V30 18 1 18 19
M  V30 19 1 19 20
M  V30 20 2 20 21
M  V30 21 1 20 22
M  V30 22 1 22 23
M  V30 23 2 23 24
M  V30 24 1 24 25
M  V30 25 2 25 26
M  V30 26 1 26 27
M  V30 27 1 26 28
M  V30 28 1 28 29
M  V30 29 1 29 30
M  V30 30 1 30 31
M  V30 31 1 31 32
M  V30 32 1 32 33
M  V30 33 1 33 34
M  V30 34 1 34 35
M  V30 35 1 29 36
M  V30 36 1 36 37
M  V30 37 2 19 38
M  V30 38 1 10 39
M  V30 39 2 39 40
M  V30 40 1 6 2
M  V30 41 1 40 7
M  V30 42 1 38 15
M  V30 43 1 27 23
M  V30 44 1 35 30
M  V30 45 1 37 25
M  V30 46 1 1 41
M  V30 47 1 1 42
M  V30 48 1 1 43
M  V30 49 1 8 44
M  V30 50 1 9 45
M  V30 51 1 13 46
M  V30 52 1 14 47
M  V30 53 1 14 48
M  V30 54 1 16 49
M  V30 55 1 17 50
M  V30 56 1 18 51
M  V30 57 1 22 52
M  V30 58 1 28 53
M  V30 59 1 28 54
M  V30 60 1 29 55 CFG=3
M  V30 61 1 31 56
M  V30 62 1 31 57
M  V30 63 1 32 58
M  V30 64 1 32 59
M  V30 65 1 34 60
M  V30 66 1 34 61
M  V30 67 1 35 62
M  V30 68 1 35 63
M  V30 69 1 36 64
M  V30 70 1 36 65
M  V30 71 1 37 66
M  V30 72 1 37 67
M  V30 73 1 38 68
M  V30 74 1 39 69
M  V30 75 1 40 70
M  V30 END BOND
M  V30 END CTAB
M  END
>  <Dataset>  (484) 
ChEMBL_Kinases

>  <Ligand_Instance>  (484) 
nan

>  <PDB_ID>  (484) 
nan

>  <Standardized_SMILES>  (484) 
Cc1nnnn1-c1ccc(C(=O)NCc2cccc(C(=O)Nc3nc4c(s3)C[C@@H](N3CCOCC3)CC4)c2)cc1

>  <Name>  (484) 
nan

>  <Pocket>  (484) 
nan

>  <ATP_Site>  (484) 
nan

>  <Peripheral>  (484) 
nan

>  <Num_H_Atoms_ProtBoundConf>  (484) 
nan

>  <Num_Resolved_Atoms>  (484) 
nan

>  <Num_Not_Resolved_Atoms>  (484) 
nan

$$$$
CHEMBL3680789
     RDKit          3D

  0  0  0  0  0  0  0  0  0  0999 V3000
M  V30 BEGIN CTAB
M  V30 COUNTS 69 74 0 0 0
M  V30 BEGIN ATOM
M  V30 1 O 4.980338 -0.530320 3.909021 0
M  V30 2 C 4.686781 -0.572419 2.695872 0
M  V30 3 N 3.788333 0.449988 2.331518 0
M  V30 4 C 3.109190 1.550909 2.987395 0
M  V30 5 C 1.936989 1.103416 3.807605 0
M  V30 6 C 2.197926 0.770686 5.104889 0
M  V30 7 C 1.068782 0.368333 5.809560 0
M  V30 8 C -0.205004 0.298638 5.287917 0
M  V30 9 C -0.407436 0.648453 3.967910 0
M  V30 10 C -1.649817 0.646976 3.194150 0
M  V30 11 O -1.831405 0.975818 1.987706 0
M  V30 12 N -2.933924 0.243123 3.730709 0
M  V30 13 C -3.896805 0.359465 2.692269 0
M  V30 14 N -3.964845 -0.805335 2.000997 0
M  V30 15 C -4.824053 -0.818891 1.000938 0
M  V30 16 C -5.630808 0.386298 0.703727 0
M  V30 17 S -5.031815 1.470852 1.968631 0
M  V30 18 C -6.505463 0.183228 -0.440793 0
M  V30 19 C -5.719544 -0.205012 -1.679125 0 CFG=1
M  V30 20 N -4.787790 0.765212 -2.098790 0
M  V30 21 C -5.291959 2.052900 -2.411176 0
M  V30 22 C -5.934930 2.093867 -3.783619 0
M  V30 23 O -4.921356 1.974221 -4.722088 0
M  V30 24 C -3.797044 1.319468 -4.282759 0
M  V30 25 C -4.062342 0.254491 -3.241854 0
M  V30 26 C -4.958144 -1.497058 -1.388620 0
M  V30 27 C -5.154552 -1.937841 0.042403 0
M  V30 28 C 0.699980 1.061534 3.214552 0
M  V30 29 C 5.189957 -1.540184 1.741222 0
M  V30 30 C 6.135744 -2.430629 2.185696 0
M  V30 31 C 6.639009 -3.357797 1.268065 0
M  V30 32 C 6.253921 -3.444207 -0.053889 0
M  V30 33 N 6.815180 -4.405407 -0.940392 0
M  V30 34 C 7.146677 -3.952632 -2.185542 0
M  V30 35 C 7.675096 -4.999098 -2.922888 0
M  V30 36 N 7.648684 -6.055339 -2.108612 0
M  V30 37 C 7.140960 -5.731365 -0.918950 0
M  V30 38 C 5.293024 -2.535066 -0.489903 0
M  V30 39 C 4.800318 -1.618068 0.431248 0
M  V30 40 H 3.516974 0.426012 1.296851 0
M  V30 41 H 3.833081 2.072531 3.649666 0
M  V30 42 H 2.707446 2.268464 2.258635 0
M  V30 43 H 3.169251 0.813709 5.565039 0
M  V30 44 H 1.114903 0.067365 6.859602 0
M  V30 45 H -1.098078 0.000149 5.798034 0
M  V30 46 H -2.994829 -0.061772 4.738564 0
M  V30 47 H -7.196099 -0.658067 -0.224629 0
M  V30 48 H -7.081475 1.077802 -0.609776 0
M  V30 49 H -6.444934 -0.419411 -2.479617 0
M  V30 50 H -4.404611 2.728889 -2.482838 0
M  V30 51 H -5.924184 2.508716 -1.624951 0
M  V30 52 H -6.739155 1.343501 -3.888723 0
M  V30 53 H -6.334423 3.137721 -3.921778 0
M  V30 54 H -3.402624 0.748026 -5.175559 0
M  V30 55 H -2.974821 1.951888 -3.945517 0
M  V30 56 H -4.583266 -0.553915 -3.772648 0
M  V30 57 H -3.066445 -0.146074 -2.947257 0
M  V30 58 H -3.864570 -1.395875 -1.544622 0
M  V30 59 H -5.295805 -2.341655 -2.031430 0
M  V30 60 H -6.183614 -2.330956 0.230893 0
M  V30 61 H -4.416761 -2.760574 0.217280 0
M  V30 62 H 0.630995 1.358766 2.165957 0
M  V30 63 H 6.504182 -2.445330 3.208508 0
M  V30 64 H 7.387224 -4.062038 1.638973 0
M  V30 65 H 7.078927 -2.985144 -2.671595 0
M  V30 66 H 8.050447 -5.033855 -3.950882 0
M  V30 67 H 6.906141 -6.151572 0.050256 0
M  V30 68 H 4.950935 -2.550273 -1.512873 0
M  V30 69 H 4.066175 -0.954014 0.015760 0
M  V30 END ATOM
M  V30 BEGIN BOND
M  V30 1 2 1 2
M  V30 2 1 2 3
M  V30 3 1 3 4
M  V30 4 1 4 5
M  V30 5 2 5 6
M  V30 6 1 6 7
M  V30 7 2 7 8
M  V30 8 1 8 9
M  V30 9 1 9 10
M  V30 10 2 10 11
M  V30 11 1 10 12
M  V30 12 1 12 13
M  V30 13 2 13 14
M  V30 14 1 14 15
M  V30 15 2 15 16
M  V30 16 1 16 17
M  V30 17 1 16 18
M  V30 18 1 18 19
M  V30 19 1 19 20
M  V30 20 1 20 21
M  V30 21 1 21 22
M  V30 22 1 22 23
M  V30 23 1 23 24
M  V30 24 1 24 25
M  V30 25 1 19 26
M  V30 26 1 26 27
M  V30 27 2 9 28
M  V30 28 1 2 29
M  V30 29 2 29 30
M  V30 30 1 30 31
M  V30 31 2 31 32
M  V30 32 1 32 33
M  V30 33 1 33 34
M  V30 34 2 34 35
M  V30 35 1 35 36
M  V30 36 2 36 37
M  V30 37 1 32 38
M  V30 38 2 38 39
M  V30 39 1 28 5
M  V30 40 1 39 29
M  V30 41 1 17 13
M  V30 42 1 25 20
M  V30 43 1 37 33
M  V30 44 1 27 15
M  V30 45 1 3 40
M  V30 46 1 4 41
M  V30 47 1 4 42
M  V30 48 1 6 43
M  V30 49 1 7 44
M  V30 50 1 8 45
M  V30 51 1 12 46
M  V30 52 1 18 47
M  V30 53 1 18 48
M  V30 54 1 19 49 CFG=3
M  V30 55 1 21 50
M  V30 56 1 21 51
M  V30 57 1 22 52
M  V30 58 1 22 53
M  V30 59 1 24 54
M  V30 60 1 24 55
M  V30 61 1 25 56
M  V30 62 1 25 57
M  V30 63 1 26 58
M  V30 64 1 26 59
M  V30 65 1 27 60
M  V30 66 1 27 61
M  V30 67 1 28 62
M  V30 68 1 30 63
M  V30 69 1 31 64
M  V30 70 1 34 65
M  V30 71 1 35 66
M  V30 72 1 37 67
M  V30 73 1 38 68
M  V30 74 1 39 69
M  V30 END BOND
M  V30 END CTAB
M  END
>  <Dataset>  (485) 
ChEMBL_Kinases

>  <Ligand_Instance>  (485) 
nan

>  <PDB_ID>  (485) 
nan

>  <Standardized_SMILES>  (485) 
O=C(NCc1cccc(C(=O)Nc2nc3c(s2)C[C@@H](N2CCOCC2)CC3)c1)c1ccc(-n2ccnc2)cc1

>  <Name>  (485) 
nan

>  <Pocket>  (485) 
nan

>  <ATP_Site>  (485) 
nan

>  <Peripheral>  (485) 
nan

>  <Num_H_Atoms_ProtBoundConf>  (485) 
nan

>  <Num_Resolved_Atoms>  (485) 
nan

>  <Num_Not_Resolved_Atoms>  (485) 
nan

$$$$
CHEMBL3680788
     RDKit          3D

  0  0  0  0  0  0  0  0  0  0999 V3000
M  V30 BEGIN CTAB
M  V30 COUNTS 69 74 0 0 0
M  V30 BEGIN ATOM
M  V30 1 O 6.404013 -1.167813 2.696178 0
M  V30 2 C 5.332133 -1.809218 2.711834 0
M  V30 3 N 4.117651 -1.135911 2.972554 0
M  V30 4 C 3.930273 0.270439 3.238878 0
M  V30 5 C 4.028729 1.101012 2.011634 0
M  V30 6 C 5.198422 1.655028 1.563917 0
M  V30 7 C 5.213906 2.413188 0.412472 0
M  V30 8 C 4.045383 2.600447 -0.270302 0
M  V30 9 C 2.835554 2.064234 0.136524 0
M  V30 10 C 1.631735 2.311293 -0.652911 0
M  V30 11 O 1.771382 3.026109 -1.678093 0
M  V30 12 N 0.386153 1.780967 -0.289474 0
M  V30 13 C -0.832351 1.996653 -1.037903 0
M  V30 14 N -1.716977 2.928375 -0.923470 0
M  V30 15 C -2.754117 2.903084 -1.740785 0
M  V30 16 C -2.979885 1.917076 -2.753264 0
M  V30 17 S -1.435503 0.861739 -2.466668 0
M  V30 18 C -3.909000 1.577802 -3.753634 0
M  V30 19 C -5.178109 2.376802 -3.573788 0 CFG=1
M  V30 20 N -6.278333 1.475766 -3.756671 0
M  V30 21 C -7.572074 2.080110 -3.608196 0
M  V30 22 C -8.600230 0.988948 -3.845349 0
M  V30 23 O -8.560579 0.536846 -5.135714 0
M  V30 24 C -7.384304 0.701703 -5.808586 0
M  V30 25 C -6.160878 0.654920 -4.932418 0
M  V30 26 C -5.174706 3.007948 -2.233194 0
M  V30 27 C -3.933928 3.772625 -1.904786 0
M  V30 28 C 2.864828 1.312337 1.293790 0
M  V30 29 C 5.421521 -3.239484 2.452904 0
M  V30 30 C 6.661998 -3.801773 2.203766 0
M  V30 31 C 6.813873 -5.147247 1.951836 0
M  V30 32 C 5.756939 -6.008803 1.931471 0
M  V30 33 C 4.491408 -5.467702 2.179929 0
M  V30 34 C 3.282897 -6.303873 2.182855 0
M  V30 35 C 2.154584 -6.074224 2.961561 0
M  V30 36 N 1.255567 -7.039975 2.700619 0
M  V30 37 N 1.748369 -7.886894 1.787688 0
M  V30 38 C 2.982464 -7.459211 1.456860 0
M  V30 39 C 4.360467 -4.118862 2.430039 0
M  V30 40 H 3.275292 -1.742269 2.966704 0
M  V30 41 H 4.695069 0.608974 3.967866 0
M  V30 42 H 2.956718 0.449846 3.694034 0
M  V30 43 H 6.114424 1.499832 2.112146 0
M  V30 44 H 6.157672 2.855795 0.058278 0
M  V30 45 H 4.121059 3.210574 -1.175899 0
M  V30 46 H 0.248755 1.194297 0.544339 0
M  V30 47 H -3.534922 1.784771 -4.789189 0
M  V30 48 H -4.115263 0.485374 -3.735793 0
M  V30 49 H -5.187016 3.207294 -4.326751 0
M  V30 50 H -7.760494 2.896432 -4.332948 0
M  V30 51 H -7.699182 2.400419 -2.551395 0
M  V30 52 H -8.353039 0.151984 -3.166594 0
M  V30 53 H -9.585923 1.442546 -3.642345 0
M  V30 54 H -7.329605 1.654043 -6.379669 0
M  V30 55 H -7.283236 -0.115062 -6.553657 0
M  V30 56 H -5.945260 -0.384220 -4.611508 0
M  V30 57 H -5.294924 0.981077 -5.551594 0
M  V30 58 H -6.082997 3.633271 -2.117809 0
M  V30 59 H -5.282051 2.201213 -1.477962 0
M  V30 60 H -4.061341 4.359808 -0.973951 0
M  V30 61 H -3.796831 4.518032 -2.727897 0
M  V30 62 H 1.934533 0.874783 1.645210 0
M  V30 63 H 7.575625 -3.208105 2.194613 0
M  V30 64 H 7.782005 -5.599549 1.755467 0
M  V30 65 H 5.787397 -7.068670 1.743589 0
M  V30 66 H 2.079759 -5.229639 3.649750 0
M  V30 67 H 1.354654 -8.731767 1.350064 0
M  V30 68 H 3.703864 -7.867056 0.758026 0
M  V30 69 H 3.383595 -3.734494 2.616885 0
M  V30 END ATOM
M  V30 BEGIN BOND
M  V30 1 2 1 2
M  V30 2 1 2 3
M  V30 3 1 3 4
M  V30 4 1 4 5
M  V30 5 2 5 6
M  V30 6 1 6 7
M  V30 7 2 7 8
M  V30 8 1 8 9
M  V30 9 1 9 10
M  V30 10 2 10 11
M  V30 11 1 10 12
M  V30 12 1 12 13
M  V30 13 2 13 14
M  V30 14 1 14 15
M  V30 15 2 15 16
M  V30 16 1 16 17
M  V30 17 1 16 18
M  V30 18 1 18 19
M  V30 19 1 19 20
M  V30 20 1 20 21
M  V30 21 1 21 22
M  V30 22 1 22 23
M  V30 23 1 23 24
M  V30 24 1 24 25
M  V30 25 1 19 26
M  V30 26 1 26 27
M  V30 27 2 9 28
M  V30 28 1 2 29
M  V30 29 2 29 30
M  V30 30 1 30 31
M  V30 31 2 31 32
M  V30 32 1 32 33
M  V30 33 1 33 34
M  V30 34 1 34 35
M  V30 35 2 35 36
M  V30 36 1 36 37
M  V30 37 1 37 38
M  V30 38 2 33 39
M  V30 39 1 28 5
M  V30 40 1 39 29
M  V30 41 1 17 13
M  V30 42 1 25 20
M  V30 43 2 38 34
M  V30 44 1 27 15
M  V30 45 1 3 40
M  V30 46 1 4 41
M  V30 47 1 4 42
M  V30 48 1 6 43
M  V30 49 1 7 44
M  V30 50 1 8 45
M  V30 51 1 12 46
M  V30 52 1 18 47
M  V30 53 1 18 48
M  V30 54 1 19 49 CFG=3
M  V30 55 1 21 50
M  V30 56 1 21 51
M  V30 57 1 22 52
M  V30 58 1 22 53
M  V30 59 1 24 54
M  V30 60 1 24 55
M  V30 61 1 25 56
M  V30 62 1 25 57
M  V30 63 1 26 58
M  V30 64 1 26 59
M  V30 65 1 27 60
M  V30 66 1 27 61
M  V30 67 1 28 62
M  V30 68 1 30 63
M  V30 69 1 31 64
M  V30 70 1 32 65
M  V30 71 1 35 66
M  V30 72 1 37 67
M  V30 73 1 38 68
M  V30 74 1 39 69
M  V30 END BOND
M  V30 END CTAB
M  END
>  <Dataset>  (486) 
ChEMBL_Kinases

>  <Ligand_Instance>  (486) 
nan

>  <PDB_ID>  (486) 
nan

>  <Standardized_SMILES>  (486) 
O=C(NCc1cccc(C(=O)Nc2nc3c(s2)C[C@@H](N2CCOCC2)CC3)c1)c1cccc(-c2cn[nH]c2)c1

>  <Name>  (486) 
nan

>  <Pocket>  (486) 
nan

>  <ATP_Site>  (486) 
nan

>  <Peripheral>  (486) 
nan

>  <Num_H_Atoms_ProtBoundConf>  (486) 
nan

>  <Num_Resolved_Atoms>  (486) 
nan

>  <Num_Not_Resolved_Atoms>  (486) 
nan

$$$$
CHEMBL3680787
     RDKit          3D

  0  0  0  0  0  0  0  0  0  0999 V3000
M  V30 BEGIN CTAB
M  V30 COUNTS 70 75 0 0 0
M  V30 BEGIN ATOM
M  V30 1 C 4.507480 -0.041475 0.321490 0
M  V30 2 C 5.064833 -0.345749 -1.037418 0
M  V30 3 N 6.300784 -0.780358 -0.944596 0
M  V30 4 C 6.903527 -1.083263 -2.074704 0
M  V30 5 C 8.246026 -1.590764 -2.448851 0
M  V30 6 C 8.539175 -1.792945 -3.775929 0
M  V30 7 C 9.822169 -2.263732 -3.965401 0
M  V30 8 N 10.702542 -2.502563 -2.955310 0
M  V30 9 C 10.324956 -2.275465 -1.696417 0
M  V30 10 C 9.053339 -1.798419 -1.363859 0
M  V30 11 S 5.653289 -0.739577 -3.411481 0
M  V30 12 C 4.400292 -0.199705 -2.221540 0
M  V30 13 C 3.069086 0.257859 -2.494097 0
M  V30 14 O 2.209271 0.630294 -1.657323 0
M  V30 15 N 2.684166 0.291455 -3.877289 0
M  V30 16 C 1.395494 0.722312 -4.346388 0
M  V30 17 C 0.304422 -0.238821 -4.170582 0
M  V30 18 C 0.128176 -1.154464 -5.215573 0
M  V30 19 C -0.876891 -2.081702 -5.144230 0
M  V30 20 C -1.764993 -2.202698 -4.099506 0
M  V30 21 C -1.583303 -1.298489 -3.077867 0
M  V30 22 C -2.423501 -1.241215 -1.886156 0
M  V30 23 O -2.262375 -0.462731 -0.884483 0
M  V30 24 N -3.550736 -2.082454 -1.722503 0
M  V30 25 C -4.154430 -1.740153 -0.403758 0
M  V30 26 N -3.955933 -2.198589 0.632450 0
M  V30 27 C -4.511768 -1.879697 1.803304 0
M  V30 28 C -5.450067 -0.859953 1.751240 0
M  V30 29 S -5.469041 -0.419619 -0.021973 0
M  V30 30 C -6.012343 -0.586555 3.152399 0
M  V30 31 C -4.822556 -0.124159 3.961585 0 CFG=1
M  V30 32 N -5.094216 0.603385 5.103268 0
M  V30 33 C -5.823405 0.105669 6.184682 0
M  V30 34 C -5.583650 1.064945 7.366016 0
M  V30 35 O -5.777528 2.377455 7.046622 0
M  V30 36 C -5.069123 2.863753 5.981041 0
M  V30 37 C -4.258070 1.738365 5.371566 0
M  V30 38 C -3.969161 -1.356549 4.131911 0
M  V30 39 C -4.288279 -2.448368 3.170836 0
M  V30 40 C -0.587608 -0.342963 -3.097475 0
M  V30 41 H 5.110672 0.746752 0.850792 0
M  V30 42 H 4.516356 -0.934492 0.992453 0
M  V30 43 H 3.468946 0.297455 0.263424 0
M  V30 44 H 7.853524 -1.606519 -4.573385 0
M  V30 45 H 10.193652 -2.470387 -4.970619 0
M  V30 46 H 11.064850 -2.481691 -0.934779 0
M  V30 47 H 8.772372 -1.623871 -0.348975 0
M  V30 48 H 3.385122 -0.021562 -4.612577 0
M  V30 49 H 1.483260 0.980380 -5.426016 0
M  V30 50 H 1.132072 1.674990 -3.825914 0
M  V30 51 H 0.776906 -1.142967 -6.082571 0
M  V30 52 H -0.994437 -2.783856 -5.970924 0
M  V30 53 H -2.559023 -2.904837 -3.997492 0
M  V30 54 H -3.833669 -2.768195 -2.421254 0
M  V30 55 H -6.434932 -1.532937 3.483532 0
M  V30 56 H -6.803537 0.180481 3.073507 0
M  V30 57 H -4.221098 0.523235 3.251528 0
M  V30 58 H -6.925784 0.090009 6.066658 0
M  V30 59 H -5.442290 -0.889499 6.545507 0
M  V30 60 H -6.284301 0.789785 8.164244 0
M  V30 61 H -4.530614 0.948653 7.689835 0
M  V30 62 H -4.381188 3.663518 6.257204 0
M  V30 63 H -5.742450 3.218620 5.170211 0
M  V30 64 H -3.890906 2.136390 4.381511 0
M  V30 65 H -3.372141 1.460869 5.962302 0
M  V30 66 H -2.898395 -1.082647 4.120336 0
M  V30 67 H -4.216496 -1.755526 5.159512 0
M  V30 68 H -5.137163 -3.099745 3.486953 0
M  V30 69 H -3.401203 -3.141404 3.196888 0
M  V30 70 H -0.426380 0.372375 -2.317083 0
M  V30 END ATOM
M  V30 BEGIN BOND
M  V30 1 1 1 2
M  V30 2 1 2 3
M  V30 3 2 3 4
M  V30 4 1 4 5
M  V30 5 2 5 6
M  V30 6 1 6 7
M  V30 7 2 7 8
M  V30 8 1 8 9
M  V30 9 2 9 10
M  V30 10 1 4 11
M  V30 11 1 11 12
M  V30 12 1 12 13
M  V30 13 2 13 14
M  V30 14 1 13 15
M  V30 15 1 15 16
M  V30 16 1 16 17
M  V30 17 2 17 18
M  V30 18 1 18 19
M  V30 19 2 19 20
M  V30 20 1 20 21
M  V30 21 1 21 22
M  V30 22 2 22 23
M  V30 23 1 22 24
M  V30 24 1 24 25
M  V30 25 2 25 26
M  V30 26 1 26 27
M  V30 27 2 27 28
M  V30 28 1 28 29
M  V30 29 1 28 30
M  V30 30 1 30 31
M  V30 31 1 31 32
M  V30 32 1 32 33
M  V30 33 1 33 34
M  V30 34 1 34 35
M  V30 35 1 35 36
M  V30 36 1 36 37
M  V30 37 1 31 38
M  V30 38 1 38 39
M  V30 39 2 21 40
M  V30 40 2 12 2
M  V30 41 1 40 17
M  V30 42 1 10 5
M  V30 43 1 29 25
M  V30 44 1 37 32
M  V30 45 1 39 27
M  V30 46 1 1 41
M  V30 47 1 1 42
M  V30 48 1 1 43
M  V30 49 1 6 44
M  V30 50 1 7 45
M  V30 51 1 9 46
M  V30 52 1 10 47
M  V30 53 1 15 48
M  V30 54 1 16 49
M  V30 55 1 16 50
M  V30 56 1 18 51
M  V30 57 1 19 52
M  V30 58 1 20 53
M  V30 59 1 24 54
M  V30 60 1 30 55
M  V30 61 1 30 56
M  V30 62 1 31 57 CFG=3
M  V30 63 1 33 58
M  V30 64 1 33 59
M  V30 65 1 34 60
M  V30 66 1 34 61
M  V30 67 1 36 62
M  V30 68 1 36 63
M  V30 69 1 37 64
M  V30 70 1 37 65
M  V30 71 1 38 66
M  V30 72 1 38 67
M  V30 73 1 39 68
M  V30 74 1 39 69
M  V30 75 1 40 70
M  V30 END BOND
M  V30 END CTAB
M  END
>  <Dataset>  (487) 
ChEMBL_Kinases

>  <Ligand_Instance>  (487) 
nan

>  <PDB_ID>  (487) 
nan

>  <Standardized_SMILES>  (487) 
Cc1nc(-c2ccncc2)sc1C(=O)NCc1cccc(C(=O)Nc2nc3c(s2)C[C@@H](N2CCOCC2)CC3)c1

>  <Name>  (487) 
nan

>  <Pocket>  (487) 
nan

>  <ATP_Site>  (487) 
nan

>  <Peripheral>  (487) 
nan

>  <Num_H_Atoms_ProtBoundConf>  (487) 
nan

>  <Num_Resolved_Atoms>  (487) 
nan

>  <Num_Not_Resolved_Atoms>  (487) 
nan

$$$$
CHEMBL3680786
     RDKit          3D

  0  0  0  0  0  0  0  0  0  0999 V3000
M  V30 BEGIN CTAB
M  V30 COUNTS 68 73 0 0 0
M  V30 BEGIN ATOM
M  V30 1 O -0.145947 -3.219452 -1.566627 0
M  V30 2 C 0.217667 -3.304481 -0.351757 0
M  V30 3 N 1.517715 -2.882619 -0.051212 0
M  V30 4 C 2.305457 -2.378055 -1.207615 0
M  V30 5 N 3.016051 -2.374699 -2.114605 0
M  V30 6 C 3.385313 -1.361860 -2.862556 0
M  V30 7 C 2.845468 -0.099864 -2.519043 0
M  V30 8 S 1.850171 -0.528530 -1.132367 0
M  V30 9 C 3.356238 1.033944 -3.488482 0
M  V30 10 C 2.880413 0.590503 -4.857866 0 CFG=1
M  V30 11 N 2.898999 1.669362 -5.807404 0
M  V30 12 C 2.032341 2.709466 -5.290567 0
M  V30 13 C 1.290063 3.472681 -6.341660 0
M  V30 14 O 0.610089 2.705183 -7.250527 0
M  V30 15 C 1.006705 1.397973 -7.361562 0
M  V30 16 C 2.478864 1.263530 -7.106011 0
M  V30 17 C 3.588245 -0.652451 -5.251508 0
M  V30 18 C 4.283931 -1.285275 -4.040107 0
M  V30 19 C -0.768736 -3.830057 0.581492 0
M  V30 20 C -2.011393 -4.201427 0.089006 0
M  V30 21 C -2.969073 -4.686279 0.969153 0
M  V30 22 C -2.724529 -4.814461 2.339715 0
M  V30 23 C -1.473869 -4.443075 2.847108 0
M  V30 24 C -1.230183 -4.583116 4.300974 0
M  V30 25 N -1.611706 -3.368155 4.958533 0
M  V30 26 C -0.942618 -2.129707 5.022067 0
M  V30 27 O 0.174432 -2.023556 4.419511 0
M  V30 28 C -1.459879 -0.956897 5.742520 0
M  V30 29 C -2.617512 -0.839348 6.458145 0
M  V30 30 C -2.698332 0.433555 6.965216 0
M  V30 31 C -3.732967 1.040970 7.787259 0
M  V30 32 C -4.823264 0.287661 8.146273 0
M  V30 33 C -5.752374 0.935298 8.924089 0
M  V30 34 N -5.652328 2.218037 9.334814 0
M  V30 35 C -4.581968 2.971083 8.987509 0
M  V30 36 C -3.620584 2.348428 8.200477 0
M  V30 37 N -1.576508 1.059049 6.538816 0
M  V30 38 N -0.865183 0.233284 5.826605 0
M  V30 39 C -0.564487 -3.970709 1.934127 0
M  V30 40 H 1.835587 -2.944375 0.918578 0
M  V30 41 H 2.841261 1.959269 -3.157153 0
M  V30 42 H 4.432696 1.050243 -3.354825 0
M  V30 43 H 1.800347 0.332836 -4.699164 0
M  V30 44 H 1.277965 2.238780 -4.617363 0
M  V30 45 H 2.583544 3.443894 -4.667394 0
M  V30 46 H 0.515380 4.072703 -5.790889 0
M  V30 47 H 1.977215 4.229559 -6.777417 0
M  V30 48 H 0.415485 0.682351 -6.767792 0
M  V30 49 H 0.848015 1.115142 -8.443756 0
M  V30 50 H 2.758125 0.235536 -7.404747 0
M  V30 51 H 2.979118 1.926550 -7.864597 0
M  V30 52 H 4.346858 -0.462971 -6.037132 0
M  V30 53 H 2.865523 -1.432883 -5.575509 0
M  V30 54 H 4.645427 -2.299910 -4.361764 0
M  V30 55 H 5.244575 -0.740411 -3.814368 0
M  V30 56 H -2.306538 -4.142744 -0.951886 0
M  V30 57 H -3.963703 -5.005712 0.704488 0
M  V30 58 H -3.468903 -5.194044 3.039989 0
M  V30 59 H -1.860553 -5.404518 4.710316 0
M  V30 60 H -0.184501 -4.902082 4.506879 0
M  V30 61 H -2.527685 -3.327922 5.497690 0
M  V30 62 H -3.366216 -1.580271 6.625048 0
M  V30 63 H -4.993875 -0.738177 7.869641 0
M  V30 64 H -6.670123 0.494111 9.296122 0
M  V30 65 H -4.482901 4.008360 9.308827 0
M  V30 66 H -2.745906 2.951162 7.913034 0
M  V30 67 H 0.054233 0.493807 5.384549 0
M  V30 68 H 0.417603 -3.675080 2.273430 0
M  V30 END ATOM
M  V30 BEGIN BOND
M  V30 1 2 1 2
M  V30 2 1 2 3
M  V30 3 1 3 4
M  V30 4 2 4 5
M  V30 5 1 5 6
M  V30 6 2 6 7
M  V30 7 1 7 8
M  V30 8 1 7 9
M  V30 9 1 9 10
M  V30 10 1 10 11
M  V30 11 1 11 12
M  V30 12 1 12 13
M  V30 13 1 13 14
M  V30 14 1 14 15
M  V30 15 1 15 16
M  V30 16 1 10 17
M  V30 17 1 17 18
M  V30 18 1 2 19
M  V30 19 2 19 20
M  V30 20 1 20 21
M  V30 21 2 21 22
M  V30 22 1 22 23
M  V30 23 1 23 24
M  V30 24 1 24 25
M  V30 25 1 25 26
M  V30 26 2 26 27
M  V30 27 1 26 28
M  V30 28 2 28 29
M  V30 29 1 29 30
M  V30 30 1 30 31
M  V30 31 2 31 32
M  V30 32 1 32 33
M  V30 33 2 33 34
M  V30 34 1 34 35
M  V30 35 2 35 36
M  V30 36 2 30 37
M  V30 37 1 37 38
M  V30 38 2 23 39
M  V30 39 1 8 4
M  V30 40 1 16 11
M  V30 41 1 39 19
M  V30 42 1 18 6
M  V30 43 1 38 28
M  V30 44 1 36 31
M  V30 45 1 3 40
M  V30 46 1 9 41
M  V30 47 1 9 42
M  V30 48 1 10 43 CFG=1
M  V30 49 1 12 44
M  V30 50 1 12 45
M  V30 51 1 13 46
M  V30 52 1 13 47
M  V30 53 1 15 48
M  V30 54 1 15 49
M  V30 55 1 16 50
M  V30 56 1 16 51
M  V30 57 1 17 52
M  V30 58 1 17 53
M  V30 59 1 18 54
M  V30 60 1 18 55
M  V30 61 1 20 56
M  V30 62 1 21 57
M  V30 63 1 22 58
M  V30 64 1 24 59
M  V30 65 1 24 60
M  V30 66 1 25 61
M  V30 67 1 29 62
M  V30 68 1 32 63
M  V30 69 1 33 64
M  V30 70 1 35 65
M  V30 71 1 36 66
M  V30 72 1 38 67
M  V30 73 1 39 68
M  V30 END BOND
M  V30 END CTAB
M  END
>  <Dataset>  (488) 
ChEMBL_Kinases

>  <Ligand_Instance>  (488) 
nan

>  <PDB_ID>  (488) 
nan

>  <Standardized_SMILES>  (488) 
O=C(Nc1nc2c(s1)C[C@@H](N1CCOCC1)CC2)c1cccc(CNC(=O)c2cc(-c3ccncc3)n[nH]2)c1

>  <Name>  (488) 
nan

>  <Pocket>  (488) 
nan

>  <ATP_Site>  (488) 
nan

>  <Peripheral>  (488) 
nan

>  <Num_H_Atoms_ProtBoundConf>  (488) 
nan

>  <Num_Resolved_Atoms>  (488) 
nan

>  <Num_Not_Resolved_Atoms>  (488) 
nan

$$$$
CHEMBL3680785
     RDKit          3D

  0  0  0  0  0  0  0  0  0  0999 V3000
M  V30 BEGIN CTAB
M  V30 COUNTS 67 72 0 0 0
M  V30 BEGIN ATOM
M  V30 1 O 0.185276 -3.490482 0.545816 0
M  V30 2 C 0.892178 -3.872183 1.524172 0
M  V30 3 N 2.254101 -4.027965 1.190160 0
M  V30 4 C 2.523062 -3.702447 -0.250386 0
M  V30 5 N 2.763661 -2.988609 -1.012401 0
M  V30 6 C 2.984532 -2.983692 -2.302534 0
M  V30 7 C 3.130217 -1.639893 -1.932811 0
M  V30 8 S 2.806340 -1.799010 -0.171764 0
M  V30 9 C 3.472520 -0.521871 -2.980330 0
M  V30 10 C 2.460567 -0.761115 -4.074640 0 CFG=1
M  V30 11 N 2.609708 0.061390 -5.223746 0
M  V30 12 C 1.548680 -0.306032 -6.163378 0
M  V30 13 C 0.940182 0.917103 -6.805957 0
M  V30 14 O 0.412115 1.823105 -5.922600 0
M  V30 15 C 1.147636 1.931911 -4.745720 0
M  V30 16 C 2.547215 1.469577 -5.023808 0
M  V30 17 C 2.305631 -2.188693 -4.476095 0
M  V30 18 C 3.204946 -3.160866 -3.759831 0
M  V30 19 C 0.406347 -4.138651 2.878942 0
M  V30 20 C 1.176608 -4.624291 3.934049 0
M  V30 21 C 0.568569 -4.818331 5.160130 0
M  V30 22 C -0.782791 -4.537731 5.347811 0
M  V30 23 C -1.523881 -4.051959 4.268037 0
M  V30 24 C -2.949722 -3.811338 4.673397 0
M  V30 25 N -3.083113 -2.474035 5.212071 0
M  V30 26 C -3.128527 -1.229274 4.533449 0
M  V30 27 O -3.037154 -1.375400 3.279162 0
M  V30 28 C -3.267642 0.028869 5.305000 0
M  V30 29 C -3.368986 0.092691 6.660744 0
M  V30 30 S -3.500192 1.905603 6.930442 0
M  V30 31 C -3.387713 2.247074 5.069457 0
M  V30 32 C -3.443667 3.642854 4.670749 0
M  V30 33 C -3.569910 4.706968 5.535231 0
M  V30 34 C -3.601248 5.948539 4.944615 0
M  V30 35 N -3.516316 6.144746 3.611119 0
M  V30 36 C -3.392352 5.091120 2.768281 0
M  V30 37 C -3.356101 3.819732 3.315854 0
M  V30 38 N -3.294070 1.185496 4.677161 0
M  V30 39 C -0.931384 -3.860257 3.062236 0
M  V30 40 H 2.966259 -4.330791 1.869373 0
M  V30 41 H 4.507548 -0.674278 -3.257153 0
M  V30 42 H 3.266268 0.396224 -2.436696 0
M  V30 43 H 1.472448 -0.462314 -3.609754 0
M  V30 44 H 0.752196 -0.870084 -5.649425 0
M  V30 45 H 1.913611 -0.957234 -6.979442 0
M  V30 46 H 0.102480 0.543042 -7.438877 0
M  V30 47 H 1.662840 1.351039 -7.541283 0
M  V30 48 H 1.127259 3.004087 -4.428912 0
M  V30 49 H 0.616128 1.347619 -3.963799 0
M  V30 50 H 2.853080 1.939246 -5.993603 0
M  V30 51 H 3.282025 1.858881 -4.292471 0
M  V30 52 H 2.479083 -2.339560 -5.566819 0
M  V30 53 H 1.262608 -2.592238 -4.316537 0
M  V30 54 H 2.959374 -4.170259 -4.134629 0
M  V30 55 H 4.277753 -2.995015 -3.990581 0
M  V30 56 H 2.217598 -4.817451 3.708474 0
M  V30 57 H 1.217479 -5.199000 5.946774 0
M  V30 58 H -1.147072 -4.728163 6.347105 0
M  V30 59 H -3.347413 -4.569719 5.347859 0
M  V30 60 H -3.592564 -3.881276 3.748239 0
M  V30 61 H -3.155648 -2.443386 6.274044 0
M  V30 62 H -3.368783 -0.760262 7.394054 0
M  V30 63 H -3.634065 4.508680 6.585998 0
M  V30 64 H -3.699983 6.809950 5.595284 0
M  V30 65 H -3.332270 5.345636 1.731883 0
M  V30 66 H -3.256458 3.018119 2.605609 0
M  V30 67 H -1.596343 -3.484364 2.297976 0
M  V30 END ATOM
M  V30 BEGIN BOND
M  V30 1 2 1 2
M  V30 2 1 2 3
M  V30 3 1 3 4
M  V30 4 2 4 5
M  V30 5 1 5 6
M  V30 6 2 6 7
M  V30 7 1 7 8
M  V30 8 1 7 9
M  V30 9 1 9 10
M  V30 10 1 10 11
M  V30 11 1 11 12
M  V30 12 1 12 13
M  V30 13 1 13 14
M  V30 14 1 14 15
M  V30 15 1 15 16
M  V30 16 1 10 17
M  V30 17 1 17 18
M  V30 18 1 2 19
M  V30 19 2 19 20
M  V30 20 1 20 21
M  V30 21 2 21 22
M  V30 22 1 22 23
M  V30 23 1 23 24
M  V30 24 1 24 25
M  V30 25 1 25 26
M  V30 26 2 26 27
M  V30 27 1 26 28
M  V30 28 2 28 29
M  V30 29 1 29 30
M  V30 30 1 30 31
M  V30 31 1 31 32
M  V30 32 2 32 33
M  V30 33 1 33 34
M  V30 34 2 34 35
M  V30 35 1 35 36
M  V30 36 2 36 37
M  V30 37 2 31 38
M  V30 38 2 23 39
M  V30 39 1 8 4
M  V30 40 1 16 11
M  V30 41 1 39 19
M  V30 42 1 18 6
M  V30 43 1 38 28
M  V30 44 1 37 32
M  V30 45 1 3 40
M  V30 46 1 9 41
M  V30 47 1 9 42
M  V30 48 1 10 43 CFG=1
M  V30 49 1 12 44
M  V30 50 1 12 45
M  V30 51 1 13 46
M  V30 52 1 13 47
M  V30 53 1 15 48
M  V30 54 1 15 49
M  V30 55 1 16 50
M  V30 56 1 16 51
M  V30 57 1 17 52
M  V30 58 1 17 53
M  V30 59 1 18 54
M  V30 60 1 18 55
M  V30 61 1 20 56
M  V30 62 1 21 57
M  V30 63 1 22 58
M  V30 64 1 24 59
M  V30 65 1 24 60
M  V30 66 1 25 61
M  V30 67 1 29 62
M  V30 68 1 33 63
M  V30 69 1 34 64
M  V30 70 1 36 65
M  V30 71 1 37 66
M  V30 72 1 39 67
M  V30 END BOND
M  V30 END CTAB
M  END
>  <Dataset>  (489) 
ChEMBL_Kinases

>  <Ligand_Instance>  (489) 
nan

>  <PDB_ID>  (489) 
nan

>  <Standardized_SMILES>  (489) 
O=C(Nc1nc2c(s1)C[C@@H](N1CCOCC1)CC2)c1cccc(CNC(=O)c2csc(-c3ccncc3)n2)c1

>  <Name>  (489) 
nan

>  <Pocket>  (489) 
nan

>  <ATP_Site>  (489) 
nan

>  <Peripheral>  (489) 
nan

>  <Num_H_Atoms_ProtBoundConf>  (489) 
nan

>  <Num_Resolved_Atoms>  (489) 
nan

>  <Num_Not_Resolved_Atoms>  (489) 
nan

$$$$
CHEMBL3680784
     RDKit          3D

  0  0  0  0  0  0  0  0  0  0999 V3000
M  V30 BEGIN CTAB
M  V30 COUNTS 68 73 0 0 0
M  V30 BEGIN ATOM
M  V30 1 O 3.347353 -1.115159 1.303968 0
M  V30 2 C 4.324420 -0.392585 1.688899 0
M  V30 3 N 4.474841 -0.323985 3.091543 0
M  V30 4 C 3.666752 -0.966316 4.084512 0
M  V30 5 C 2.364352 -0.335062 4.337647 0
M  V30 6 C 2.310301 0.654049 5.324398 0
M  V30 7 C 1.199960 1.367994 5.719444 0
M  V30 8 C 0.010220 1.067747 5.062642 0
M  V30 9 C 0.009458 0.099373 4.080515 0
M  V30 10 C -1.195094 -0.273937 3.340786 0
M  V30 11 O -1.227302 -1.132849 2.420479 0
M  V30 12 N -2.466940 0.309092 3.596492 0
M  V30 13 C -3.460655 -0.231052 2.734891 0
M  V30 14 N -4.321740 -1.354816 2.871827 0
M  V30 15 C -5.090722 -1.486725 1.811063 0
M  V30 16 C -5.044043 -0.579674 0.655256 0
M  V30 17 S -3.755240 0.522454 1.237275 0
M  V30 18 C -5.945274 -0.834398 -0.453928 0
M  V30 19 C -5.890102 -2.252354 -0.963802 0 CFG=1
M  V30 20 N -4.810755 -2.541674 -1.826712 0
M  V30 21 C -4.675281 -1.808826 -3.027588 0
M  V30 22 C -5.500994 -2.418680 -4.109630 0
M  V30 23 O -4.811197 -3.565506 -4.555355 0
M  V30 24 C -4.200709 -4.231193 -3.497842 0
M  V30 25 C -4.948530 -3.958103 -2.205994 0
M  V30 26 C -5.808118 -3.226502 0.213531 0
M  V30 27 C -6.132723 -2.508155 1.511218 0
M  V30 28 C 1.159371 -0.589335 3.722981 0
M  V30 29 C 5.177599 0.279794 0.716334 0
M  V30 30 C 6.287941 1.030518 1.042830 0
M  V30 31 C 7.099949 1.671772 0.129032 0
M  V30 32 C 6.749515 1.533268 -1.203550 0
M  V30 33 C 7.560796 2.176820 -2.230293 0
M  V30 34 C 7.315654 2.130846 -3.598852 0
M  V30 35 N 8.279173 2.844551 -4.247301 0
M  V30 36 C 9.092187 3.311684 -3.266762 0
M  V30 37 O 8.644005 2.902266 -2.086457 0
M  V30 38 C 5.645763 0.790174 -1.566216 0
M  V30 39 C 4.843198 0.154023 -0.634791 0
M  V30 40 H 5.289592 0.282204 3.410995 0
M  V30 41 H 3.513582 -2.049774 3.847533 0
M  V30 42 H 4.222829 -0.985218 5.052740 0
M  V30 43 H 3.230346 0.913498 5.858806 0
M  V30 44 H 1.258054 2.116589 6.496246 0
M  V30 45 H -0.895051 1.590356 5.324237 0
M  V30 46 H -2.580205 1.034563 4.337827 0
M  V30 47 H -6.984420 -0.652178 -0.112189 0
M  V30 48 H -5.725155 -0.129259 -1.244335 0
M  V30 49 H -6.847687 -2.460336 -1.477237 0
M  V30 50 H -3.598692 -1.938839 -3.348664 0
M  V30 51 H -4.770542 -0.709587 -2.953084 0
M  V30 52 H -6.508738 -2.757373 -3.793420 0
M  V30 53 H -5.610680 -1.766104 -5.001362 0
M  V30 54 H -4.330453 -5.317613 -3.704467 0
M  V30 55 H -3.121782 -4.051812 -3.403895 0
M  V30 56 H -6.027252 -4.196753 -2.423018 0
M  V30 57 H -4.637956 -4.646792 -1.421202 0
M  V30 58 H -4.788957 -3.645555 0.346903 0
M  V30 59 H -6.502264 -4.074564 0.120935 0
M  V30 60 H -7.115987 -2.006773 1.457112 0
M  V30 61 H -6.109864 -3.280504 2.301368 0
M  V30 62 H 1.179352 -1.352290 2.957528 0
M  V30 63 H 6.560742 1.138137 2.078093 0
M  V30 64 H 7.961272 2.249540 0.443257 0
M  V30 65 H 6.514362 1.632463 -4.132728 0
M  V30 66 H 9.999382 3.922984 -3.192998 0
M  V30 67 H 5.356910 0.672122 -2.610377 0
M  V30 68 H 3.974648 -0.431535 -0.902326 0
M  V30 END ATOM
M  V30 BEGIN BOND
M  V30 1 2 1 2
M  V30 2 1 2 3
M  V30 3 1 3 4
M  V30 4 1 4 5
M  V30 5 2 5 6
M  V30 6 1 6 7
M  V30 7 2 7 8
M  V30 8 1 8 9
M  V30 9 1 9 10
M  V30 10 2 10 11
M  V30 11 1 10 12
M  V30 12 1 12 13
M  V30 13 2 13 14
M  V30 14 1 14 15
M  V30 15 2 15 16
M  V30 16 1 16 17
M  V30 17 1 16 18
M  V30 18 1 18 19
M  V30 19 1 19 20
M  V30 20 1 20 21
M  V30 21 1 21 22
M  V30 22 1 22 23
M  V30 23 1 23 24
M  V30 24 1 24 25
M  V30 25 1 19 26
M  V30 26 1 26 27
M  V30 27 2 9 28
M  V30 28 1 2 29
M  V30 29 2 29 30
M  V30 30 1 30 31
M  V30 31 2 31 32
M  V30 32 1 32 33
M  V30 33 2 33 34
M  V30 34 1 34 35
M  V30 35 2 35 36
M  V30 36 1 36 37
M  V30 37 1 32 38
M  V30 38 2 38 39
M  V30 39 1 28 5
M  V30 40 1 39 29
M  V30 41 1 17 13
M  V30 42 1 25 20
M  V30 43 1 37 33
M  V30 44 1 27 15
M  V30 45 1 3 40
M  V30 46 1 4 41
M  V30 47 1 4 42
M  V30 48 1 6 43
M  V30 49 1 7 44
M  V30 50 1 8 45
M  V30 51 1 12 46
M  V30 52 1 18 47
M  V30 53 1 18 48
M  V30 54 1 19 49 CFG=3
M  V30 55 1 21 50
M  V30 56 1 21 51
M  V30 57 1 22 52
M  V30 58 1 22 53
M  V30 59 1 24 54
M  V30 60 1 24 55
M  V30 61 1 25 56
M  V30 62 1 25 57
M  V30 63 1 26 58
M  V30 64 1 26 59
M  V30 65 1 27 60
M  V30 66 1 27 61
M  V30 67 1 28 62
M  V30 68 1 30 63
M  V30 69 1 31 64
M  V30 70 1 34 65
M  V30 71 1 36 66
M  V30 72 1 38 67
M  V30 73 1 39 68
M  V30 END BOND
M  V30 END CTAB
M  END
>  <Dataset>  (490) 
ChEMBL_Kinases

>  <Ligand_Instance>  (490) 
nan

>  <PDB_ID>  (490) 
nan

>  <Standardized_SMILES>  (490) 
O=C(NCc1cccc(C(=O)Nc2nc3c(s2)C[C@@H](N2CCOCC2)CC3)c1)c1ccc(-c2cnco2)cc1

>  <Name>  (490) 
nan

>  <Pocket>  (490) 
nan

>  <ATP_Site>  (490) 
nan

>  <Peripheral>  (490) 
nan

>  <Num_H_Atoms_ProtBoundConf>  (490) 
nan

>  <Num_Resolved_Atoms>  (490) 
nan

>  <Num_Not_Resolved_Atoms>  (490) 
nan

$$$$
CHEMBL3680783
     RDKit          3D

  0  0  0  0  0  0  0  0  0  0999 V3000
M  V30 BEGIN CTAB
M  V30 COUNTS 62 66 0 0 0
M  V30 BEGIN ATOM
M  V30 1 C 3.414885 1.613419 6.316741 0
M  V30 2 N 4.616866 2.271133 5.779510 0
M  V30 3 C 5.372135 1.223288 5.137167 0
M  V30 4 C 6.003416 1.790455 3.888522 0
M  V30 5 C 4.877464 1.982526 2.919140 0
M  V30 6 C 4.730447 1.488111 1.651960 0
M  V30 7 C 3.586749 1.805536 0.944883 0
M  V30 8 C 2.635991 2.603499 1.530838 0
M  V30 9 N 1.448213 2.919325 0.770330 0
M  V30 10 C 0.496891 1.916999 1.049415 0
M  V30 11 O 0.934188 1.038174 1.868783 0
M  V30 12 C -0.866598 1.852112 0.479231 0
M  V30 13 C -1.352037 2.793933 -0.405190 0
M  V30 14 C -2.641226 2.626208 -0.869722 0
M  V30 15 C -3.407180 1.556862 -0.461208 0
M  V30 16 C -2.930092 0.601190 0.429077 0
M  V30 17 C -3.703706 -0.577203 0.906494 0
M  V30 18 N -3.538938 -1.754488 0.111039 0
M  V30 19 C -4.117161 -2.036451 -1.152308 0
M  V30 20 O -4.864181 -1.143955 -1.627229 0
M  V30 21 C -3.889144 -3.270319 -1.893637 0
M  V30 22 C -3.085113 -4.312128 -1.478167 0
M  V30 23 C -2.900662 -5.462150 -2.216695 0
M  V30 24 C -3.532437 -5.616447 -3.433423 0
M  V30 25 C -3.316733 -6.843266 -4.191371 0
M  V30 26 C -3.845353 -7.197359 -5.414310 0
M  V30 27 C -3.339878 -8.466506 -5.718375 0
M  V30 28 N -2.534426 -8.824749 -4.677412 0
M  V30 29 N -2.530047 -7.841969 -3.769352 0
M  V30 30 C -4.342495 -4.590077 -3.873063 0
M  V30 31 C -4.508696 -3.450270 -3.112999 0
M  V30 32 C -1.646949 0.789478 0.876468 0
M  V30 33 C 2.740908 3.124310 2.804200 0
M  V30 34 C 3.901181 2.789759 3.493938 0
M  V30 35 C 4.160134 3.277036 4.878234 0
M  V30 36 H 3.658047 0.586684 6.607646 0
M  V30 37 H 2.941415 2.231096 7.095476 0
M  V30 38 H 2.726845 1.532937 5.430215 0
M  V30 39 H 6.158180 0.839612 5.814064 0
M  V30 40 H 4.711306 0.375940 4.831768 0
M  V30 41 H 6.748593 1.055319 3.549614 0
M  V30 42 H 6.499906 2.728187 4.144770 0
M  V30 43 H 5.574501 0.867713 1.325376 0
M  V30 44 H 3.519660 1.392718 -0.043208 0
M  V30 45 H 1.156108 3.687244 0.094433 0
M  V30 46 H -0.723084 3.614372 -0.699503 0
M  V30 47 H -3.041589 3.356107 -1.565933 0
M  V30 48 H -4.415527 1.438147 -0.831542 0
M  V30 49 H -3.423401 -0.761646 1.962643 0
M  V30 50 H -4.803520 -0.334011 0.957610 0
M  V30 51 H -2.911590 -2.514976 0.501669 0
M  V30 52 H -2.584298 -4.225452 -0.545853 0
M  V30 53 H -2.243566 -6.239644 -1.809459 0
M  V30 54 H -4.519429 -6.586037 -5.999273 0
M  V30 55 H -3.561029 -9.043479 -6.623300 0
M  V30 56 H -2.039671 -9.761572 -4.695492 0
M  V30 57 H -4.846927 -4.694945 -4.826911 0
M  V30 58 H -5.145118 -2.689908 -3.500068 0
M  V30 59 H -1.250023 0.059401 1.571670 0
M  V30 60 H 1.980191 3.758327 3.262092 0
M  V30 61 H 4.831753 4.161318 4.879677 0
M  V30 62 H 3.174671 3.668292 5.254015 0
M  V30 END ATOM
M  V30 BEGIN BOND
M  V30 1 1 1 2
M  V30 2 1 2 3
M  V30 3 1 3 4
M  V30 4 1 4 5
M  V30 5 2 5 6
M  V30 6 1 6 7
M  V30 7 2 7 8
M  V30 8 1 8 9
M  V30 9 1 9 10
M  V30 10 2 10 11
M  V30 11 1 10 12
M  V30 12 2 12 13
M  V30 13 1 13 14
M  V30 14 2 14 15
M  V30 15 1 15 16
M  V30 16 1 16 17
M  V30 17 1 17 18
M  V30 18 1 18 19
M  V30 19 2 19 20
M  V30 20 1 19 21
M  V30 21 2 21 22
M  V30 22 1 22 23
M  V30 23 2 23 24
M  V30 24 1 24 25
M  V30 25 1 25 26
M  V30 26 2 26 27
M  V30 27 1 27 28
M  V30 28 1 28 29
M  V30 29 1 24 30
M  V30 30 2 30 31
M  V30 31 2 16 32
M  V30 32 1 8 33
M  V30 33 2 33 34
M  V30 34 1 34 35
M  V30 35 1 35 2
M  V30 36 1 34 5
M  V30 37 1 32 12
M  V30 38 1 31 21
M  V30 39 2 29 25
M  V30 40 1 1 36
M  V30 41 1 1 37
M  V30 42 1 1 38
M  V30 43 1 3 39
M  V30 44 1 3 40
M  V30 45 1 4 41
M  V30 46 1 4 42
M  V30 47 1 6 43
M  V30 48 1 7 44
M  V30 49 1 9 45
M  V30 50 1 13 46
M  V30 51 1 14 47
M  V30 52 1 15 48
M  V30 53 1 17 49
M  V30 54 1 17 50
M  V30 55 1 18 51
M  V30 56 1 22 52
M  V30 57 1 23 53
M  V30 58 1 26 54
M  V30 59 1 27 55
M  V30 60 1 28 56
M  V30 61 1 30 57
M  V30 62 1 31 58
M  V30 63 1 32 59
M  V30 64 1 33 60
M  V30 65 1 35 61
M  V30 66 1 35 62
M  V30 END BOND
M  V30 END CTAB
M  END
>  <Dataset>  (491) 
ChEMBL_Kinases

>  <Ligand_Instance>  (491) 
nan

>  <PDB_ID>  (491) 
nan

>  <Standardized_SMILES>  (491) 
CN1CCc2ccc(NC(=O)c3cccc(CNC(=O)c4ccc(-c5cc[nH]n5)cc4)c3)cc2C1

>  <Name>  (491) 
nan

>  <Pocket>  (491) 
nan

>  <ATP_Site>  (491) 
nan

>  <Peripheral>  (491) 
nan

>  <Num_H_Atoms_ProtBoundConf>  (491) 
nan

>  <Num_Resolved_Atoms>  (491) 
nan

>  <Num_Not_Resolved_Atoms>  (491) 
nan

$$$$
CHEMBL3680782
     RDKit          3D

  0  0  0  0  0  0  0  0  0  0999 V3000
M  V30 BEGIN CTAB
M  V30 COUNTS 59 63 0 0 0
M  V30 BEGIN ATOM
M  V30 1 C 7.546027 -1.613896 1.207899 0
M  V30 2 C 7.296804 -0.357091 1.960165 0
M  V30 3 C 6.198580 0.398633 1.615603 0
M  V30 4 C 5.977356 1.544629 2.307622 0
M  V30 5 C 4.851606 2.516050 2.101978 0
M  V30 6 N 4.359733 3.482870 2.434369 0
M  V30 7 C 3.278482 4.063254 1.962745 0
M  V30 8 C 2.646702 3.466894 0.959258 0
M  V30 9 C 1.417176 3.831428 0.193436 0
M  V30 10 O 0.803695 4.864828 0.474802 0
M  V30 11 N 0.982501 2.965477 -0.852332 0
M  V30 12 C -0.173476 3.167918 -1.679914 0
M  V30 13 C -1.458488 2.835815 -0.971534 0
M  V30 14 C -2.203323 3.753093 -0.260366 0
M  V30 15 C -3.375046 3.408857 0.378907 0
M  V30 16 C -3.844895 2.108301 0.323490 0
M  V30 17 C -3.109014 1.181832 -0.384401 0
M  V30 18 C -3.462375 -0.228508 -0.538898 0
M  V30 19 O -2.800050 -1.111871 -1.164188 0
M  V30 20 N -4.651103 -0.756484 0.035404 0
M  V30 21 C -4.723777 -2.185270 -0.288475 0
M  V30 22 N -4.197211 -2.967971 0.533001 0
M  V30 23 C -4.213591 -4.279128 0.320684 0
M  V30 24 C -4.841308 -4.792858 -0.861197 0
M  V30 25 S -5.379883 -3.209237 -1.591590 0
M  V30 26 C -4.815345 -6.213775 -1.022931 0
M  V30 27 N -3.496189 -6.806514 -0.886394 0
M  V30 28 C -3.568911 -8.223600 -0.643590 0
M  V30 29 C -2.735414 -6.186017 0.171170 0
M  V30 30 C -3.663620 -5.427541 1.131151 0
M  V30 31 C -1.918837 1.527262 -1.035138 0
M  V30 32 S 3.651860 2.041994 0.708645 0
M  V30 33 C 6.792312 1.982005 3.328149 0
M  V30 34 C 7.898853 1.181980 3.645440 0
M  V30 35 N 8.109266 0.045471 2.951661 0
M  V30 36 H 8.485150 -1.621896 0.635826 0
M  V30 37 H 6.728478 -1.826224 0.490317 0
M  V30 38 H 7.636126 -2.460070 1.930318 0
M  V30 39 H 5.483759 0.168000 0.838712 0
M  V30 40 H 2.910876 5.012936 2.388406 0
M  V30 41 H 1.586794 2.104662 -1.007285 0
M  V30 42 H -0.223215 4.203599 -2.080782 0
M  V30 43 H -0.111786 2.486173 -2.546840 0
M  V30 44 H -1.852456 4.773996 -0.206498 0
M  V30 45 H -3.950072 4.140691 0.934486 0
M  V30 46 H -4.753442 1.770077 0.799785 0
M  V30 47 H -5.310527 -0.178128 0.578581 0
M  V30 48 H -5.472364 -6.711405 -0.284172 0
M  V30 49 H -5.192806 -6.473782 -2.029709 0
M  V30 50 H -2.591269 -8.632477 -0.326204 0
M  V30 51 H -3.857481 -8.770267 -1.564918 0
M  V30 52 H -4.276606 -8.481587 0.171989 0
M  V30 53 H -1.975583 -5.485422 -0.196406 0
M  V30 54 H -2.271386 -6.981507 0.784334 0
M  V30 55 H -3.002819 -5.055837 1.925321 0
M  V30 56 H -4.461163 -6.098282 1.480037 0
M  V30 57 H -1.323629 0.812912 -1.598745 0
M  V30 58 H 6.664799 2.878681 3.908474 0
M  V30 59 H 8.620388 1.401392 4.419888 0
M  V30 END ATOM
M  V30 BEGIN BOND
M  V30 1 1 1 2
M  V30 2 2 2 3
M  V30 3 1 3 4
M  V30 4 1 4 5
M  V30 5 2 5 6
M  V30 6 1 6 7
M  V30 7 2 7 8
M  V30 8 1 8 9
M  V30 9 2 9 10
M  V30 10 1 9 11
M  V30 11 1 11 12
M  V30 12 1 12 13
M  V30 13 2 13 14
M  V30 14 1 14 15
M  V30 15 2 15 16
M  V30 16 1 16 17
M  V30 17 1 17 18
M  V30 18 2 18 19
M  V30 19 1 18 20
M  V30 20 1 20 21
M  V30 21 2 21 22
M  V30 22 1 22 23
M  V30 23 2 23 24
M  V30 24 1 24 25
M  V30 25 1 24 26
M  V30 26 1 26 27
M  V30 27 1 27 28
M  V30 28 1 27 29
M  V30 29 1 29 30
M  V30 30 2 17 31
M  V30 31 1 8 32
M  V30 32 2 4 33
M  V30 33 1 33 34
M  V30 34 2 34 35
M  V30 35 1 35 2
M  V30 36 1 32 5
M  V30 37 1 31 13
M  V30 38 1 25 21
M  V30 39 1 30 23
M  V30 40 1 1 36
M  V30 41 1 1 37
M  V30 42 1 1 38
M  V30 43 1 3 39
M  V30 44 1 7 40
M  V30 45 1 11 41
M  V30 46 1 12 42
M  V30 47 1 12 43
M  V30 48 1 14 44
M  V30 49 1 15 45
M  V30 50 1 16 46
M  V30 51 1 20 47
M  V30 52 1 26 48
M  V30 53 1 26 49
M  V30 54 1 28 50
M  V30 55 1 28 51
M  V30 56 1 28 52
M  V30 57 1 29 53
M  V30 58 1 29 54
M  V30 59 1 30 55
M  V30 60 1 30 56
M  V30 61 1 31 57
M  V30 62 1 33 58
M  V30 63 1 34 59
M  V30 END BOND
M  V30 END CTAB
M  END
>  <Dataset>  (492) 
ChEMBL_Kinases

>  <Ligand_Instance>  (492) 
nan

>  <PDB_ID>  (492) 
nan

>  <Standardized_SMILES>  (492) 
Cc1cc(-c2ncc(C(=O)NCc3cccc(C(=O)Nc4nc5c(s4)CN(C)CC5)c3)s2)ccn1

>  <Name>  (492) 
nan

>  <Pocket>  (492) 
nan

>  <ATP_Site>  (492) 
nan

>  <Peripheral>  (492) 
nan

>  <Num_H_Atoms_ProtBoundConf>  (492) 
nan

>  <Num_Resolved_Atoms>  (492) 
nan

>  <Num_Not_Resolved_Atoms>  (492) 
nan

$$$$
CHEMBL3680781
     RDKit          3D

  0  0  0  0  0  0  0  0  0  0999 V3000
M  V30 BEGIN CTAB
M  V30 COUNTS 68 73 0 0 0
M  V30 BEGIN ATOM
M  V30 1 C 3.779462 -0.438704 3.414153 0
M  V30 2 C 5.015280 0.194067 2.918534 0
M  V30 3 C 5.407003 0.201149 1.597148 0
M  V30 4 C 4.673424 -0.412426 0.492118 0
M  V30 5 O 3.608355 -1.008920 0.684925 0
M  V30 6 N 5.185306 -0.324929 -0.821743 0
M  V30 7 C 4.628245 -0.855395 -2.051965 0
M  V30 8 C 3.498997 0.020179 -2.472329 0
M  V30 9 C 3.834065 1.080019 -3.288971 0
M  V30 10 C 2.939959 2.002016 -3.789870 0
M  V30 11 C 1.586258 1.866178 -3.453880 0
M  V30 12 C 1.250426 0.807912 -2.638488 0
M  V30 13 C -0.132919 0.507900 -2.195763 0
M  V30 14 O -0.501436 -0.442403 -1.449807 0
M  V30 15 N -1.218902 1.311999 -2.600340 0
M  V30 16 C -2.493851 0.825156 -2.052190 0
M  V30 17 N -3.322403 0.674526 -1.425102 0
M  V30 18 C -4.321353 0.461810 -0.715134 0
M  V30 19 C -4.806105 -0.490151 -1.625456 0
M  V30 20 S -3.569269 -0.510355 -2.927068 0
M  V30 21 C -6.091320 -1.270755 -1.432390 0
M  V30 22 C -6.212670 -1.744046 -0.014332 0 CFG=1
M  V30 23 N -5.596543 -3.032370 0.218872 0
M  V30 24 C -6.115545 -4.080923 -0.633956 0
M  V30 25 C -5.740305 -5.451575 -0.162293 0
M  V30 26 O -5.733759 -5.651434 1.189422 0
M  V30 27 C -5.110460 -4.634372 1.907916 0
M  V30 28 C -5.938913 -3.379052 1.611589 0
M  V30 29 C -5.596307 -0.792413 0.976187 0
M  V30 30 C -5.271356 0.570324 0.417009 0
M  V30 31 C 2.159001 -0.109422 -2.143138 0
M  V30 32 N 6.568922 0.873949 1.584804 0
M  V30 33 N 6.890595 1.267729 2.825636 0
M  V30 34 N 5.933602 0.850504 3.657309 0
M  V30 35 C 5.947465 1.090607 5.058290 0
M  V30 36 N 5.106071 0.761911 6.023404 0
M  V30 37 O 5.571646 1.220581 7.162392 0
M  V30 38 N 6.690556 1.843019 7.003008 0
M  V30 39 C 6.968996 1.785213 5.674896 0
M  V30 40 N 8.158874 2.397797 5.188925 0
M  V30 41 H 3.772301 -1.494919 3.144864 0
M  V30 42 H 3.585880 -0.216499 4.479115 0
M  V30 43 H 2.895782 0.015138 2.875805 0
M  V30 44 H 6.102555 0.200794 -0.940525 0
M  V30 45 H 5.364270 -0.930173 -2.852540 0
M  V30 46 H 4.276739 -1.890056 -1.839790 0
M  V30 47 H 4.850157 1.283516 -3.614193 0
M  V30 48 H 3.211997 2.830165 -4.430091 0
M  V30 49 H 0.800564 2.527629 -3.786035 0
M  V30 50 H -1.109654 2.142428 -3.208856 0
M  V30 51 H -6.070552 -2.067542 -2.167405 0
M  V30 52 H -6.932810 -0.594501 -1.675603 0
M  V30 53 H -7.284881 -1.848499 0.222455 0
M  V30 54 H -7.214586 -3.966148 -0.693807 0
M  V30 55 H -5.602432 -3.963977 -1.615438 0
M  V30 56 H -6.436023 -6.179353 -0.626377 0
M  V30 57 H -4.724278 -5.742181 -0.542763 0
M  V30 58 H -4.081120 -4.420281 1.547360 0
M  V30 59 H -5.159153 -4.861605 2.977418 0
M  V30 60 H -7.012714 -3.721632 1.646876 0
M  V30 61 H -5.720920 -2.574995 2.305842 0
M  V30 62 H -6.232964 -0.635437 1.868112 0
M  V30 63 H -4.614859 -1.178516 1.365684 0
M  V30 64 H -4.896317 1.170173 1.258755 0
M  V30 65 H -6.220695 0.982193 -0.009214 0
M  V30 66 H 1.927646 -0.944494 -1.504925 0
M  V30 67 H 9.025143 1.942122 4.824835 0
M  V30 68 H 9.054604 1.970887 4.812886 0
M  V30 END ATOM
M  V30 BEGIN BOND
M  V30 1 1 1 2
M  V30 2 2 2 3
M  V30 3 1 3 4
M  V30 4 2 4 5
M  V30 5 1 4 6
M  V30 6 1 6 7
M  V30 7 1 7 8
M  V30 8 2 8 9
M  V30 9 1 9 10
M  V30 10 2 10 11
M  V30 11 1 11 12
M  V30 12 1 12 13
M  V30 13 2 13 14
M  V30 14 1 13 15
M  V30 15 1 15 16
M  V30 16 2 16 17
M  V30 17 1 17 18
M  V30 18 2 18 19
M  V30 19 1 19 20
M  V30 20 1 19 21
M  V30 21 1 21 22
M  V30 22 1 22 23
M  V30 23 1 23 24
M  V30 24 1 24 25
M  V30 25 1 25 26
M  V30 26 1 26 27
M  V30 27 1 27 28
M  V30 28 1 22 29
M  V30 29 1 29 30
M  V30 30 2 12 31
M  V30 31 1 3 32
M  V30 32 2 32 33
M  V30 33 1 33 34
M  V30 34 1 34 35
M  V30 35 2 35 36
M  V30 36 1 36 37
M  V30 37 1 37 38
M  V30 38 2 38 39
M  V30 39 1 39 40
M  V30 40 1 34 2
M  V30 41 1 39 35
M  V30 42 1 31 8
M  V30 43 1 20 16
M  V30 44 1 28 23
M  V30 45 1 30 18
M  V30 46 1 1 41
M  V30 47 1 1 42
M  V30 48 1 1 43
M  V30 49 1 6 44
M  V30 50 1 7 45
M  V30 51 1 7 46
M  V30 52 1 9 47
M  V30 53 1 10 48
M  V30 54 1 11 49
M  V30 55 1 15 50
M  V30 56 1 21 51
M  V30 57 1 21 52
M  V30 58 1 22 53 CFG=1
M  V30 59 1 24 54
M  V30 60 1 24 55
M  V30 61 1 25 56
M  V30 62 1 25 57
M  V30 63 1 27 58
M  V30 64 1 27 59
M  V30 65 1 28 60
M  V30 66 1 28 61
M  V30 67 1 29 62
M  V30 68 1 29 63
M  V30 69 1 30 64
M  V30 70 1 30 65
M  V30 71 1 31 66
M  V30 72 1 40 67
M  V30 73 1 40 68
M  V30 END BOND
M  V30 END CTAB
M  END
>  <Dataset>  (493) 
ChEMBL_Kinases

>  <Ligand_Instance>  (493) 
nan

>  <PDB_ID>  (493) 
nan

>  <Standardized_SMILES>  (493) 
Cc1c(C(=O)NCc2cccc(C(=O)Nc3nc4c(s3)C[C@@H](N3CCOCC3)CC4)c2)nnn1-c1nonc1N

>  <Name>  (493) 
nan

>  <Pocket>  (493) 
nan

>  <ATP_Site>  (493) 
nan

>  <Peripheral>  (493) 
nan

>  <Num_H_Atoms_ProtBoundConf>  (493) 
nan

>  <Num_Resolved_Atoms>  (493) 
nan

>  <Num_Not_Resolved_Atoms>  (493) 
nan

$$$$
CHEMBL3680780
     RDKit          3D

  0  0  0  0  0  0  0  0  0  0999 V3000
M  V30 BEGIN CTAB
M  V30 COUNTS 75 81 0 0 0
M  V30 BEGIN ATOM
M  V30 1 N 7.643633 5.594542 1.732257 0
M  V30 2 C 7.634240 4.182623 1.616028 0
M  V30 3 N 8.533002 3.365796 2.213428 0
M  V30 4 O 8.263970 2.133664 1.919472 0
M  V30 5 N 7.225752 2.141227 1.156329 0
M  V30 6 C 6.765665 3.370639 0.914442 0
M  V30 7 N 5.676427 3.852315 0.161944 0
M  V30 8 N 5.380485 5.111024 0.053977 0
M  V30 9 N 4.320144 5.347866 -0.689247 0
M  V30 10 C 3.849787 4.159727 -1.126739 0
M  V30 11 C 2.685659 4.103304 -1.964203 0
M  V30 12 O 2.013429 5.177886 -2.051248 0
M  V30 13 N 2.074720 3.122410 -2.742394 0
M  V30 14 C 0.874485 3.177725 -3.545534 0
M  V30 15 C -0.283246 3.034822 -2.602006 0
M  V30 16 C -0.999684 4.000510 -1.929923 0
M  V30 17 C -2.036313 3.638590 -1.096206 0
M  V30 18 C -2.420954 2.331545 -0.881773 0
M  V30 19 C -1.725815 1.326979 -1.541038 0
M  V30 20 C -2.050427 -0.094404 -1.377471 0
M  V30 21 O -1.511540 -0.982567 -2.119046 0
M  V30 22 N -2.946027 -0.554441 -0.419108 0
M  V30 23 C -3.225797 -1.995439 -0.313919 0
M  V30 24 N -3.807011 -2.937983 -0.537573 0
M  V30 25 C -3.623877 -4.188808 -0.141598 0
M  V30 26 C -2.573112 -4.381286 0.660354 0
M  V30 27 S -1.901872 -2.732995 0.801612 0
M  V30 28 C -2.196523 -5.728183 1.216130 0
M  V30 29 C -3.565551 -6.360186 1.529500 0 CFG=1
M  V30 30 N -4.384958 -5.489252 2.306154 0
M  V30 31 C -5.626334 -6.138076 2.602715 0
M  V30 32 C -6.520442 -5.333471 3.532134 0
M  V30 33 O -5.794098 -5.088287 4.693526 0
M  V30 34 C -4.709099 -4.272107 4.373302 0
M  V30 35 C -3.714691 -4.973906 3.484252 0
M  V30 36 C -4.190576 -6.535012 0.166202 0
M  V30 37 C -4.529141 -5.295708 -0.557077 0
M  V30 38 C -0.690828 1.719885 -2.369393 0
M  V30 39 C 4.708294 3.240372 -0.584416 0
M  V30 40 C 4.619424 1.805682 -0.691854 0
M  V30 41 C 5.652633 0.973959 -1.114707 0
M  V30 42 C 5.570413 -0.399361 -1.164423 0
M  V30 43 C 4.428479 -1.041554 -0.788279 0
M  V30 44 C 3.367942 -0.282198 -0.360730 0
M  V30 45 C 3.475330 1.086997 -0.319868 0
M  V30 46 H 6.866023 6.263227 1.901554 0
M  V30 47 H 8.514878 6.191746 1.657718 0
M  V30 48 H 2.603811 2.199132 -2.732871 0
M  V30 49 H 0.769951 4.161202 -4.064719 0
M  V30 50 H 0.865468 2.336105 -4.249043 0
M  V30 51 H -0.676114 5.010799 -2.127280 0
M  V30 52 H -2.538112 4.480447 -0.611236 0
M  V30 53 H -3.232564 2.086989 -0.227474 0
M  V30 54 H -3.432031 0.102884 0.233910 0
M  V30 55 H -1.577600 -5.660430 2.110841 0
M  V30 56 H -1.721148 -6.334711 0.414106 0
M  V30 57 H -3.424861 -7.360017 1.987410 0
M  V30 58 H -5.447393 -7.127329 3.069004 0
M  V30 59 H -6.195622 -6.244176 1.643640 0
M  V30 60 H -6.866910 -4.402467 3.024572 0
M  V30 61 H -7.402660 -5.974581 3.765459 0
M  V30 62 H -5.031567 -3.322479 3.906023 0
M  V30 63 H -4.205692 -4.022011 5.341079 0
M  V30 64 H -2.963075 -4.212436 3.188500 0
M  V30 65 H -3.147573 -5.754689 4.019901 0
M  V30 66 H -5.080315 -7.224147 0.244575 0
M  V30 67 H -3.455479 -7.124200 -0.438472 0
M  V30 68 H -5.612532 -5.080106 -0.360495 0
M  V30 69 H -4.412102 -5.504494 -1.662583 0
M  V30 70 H -0.179260 0.901108 -2.858306 0
M  V30 71 H 6.592576 1.445048 -1.438699 0
M  V30 72 H 6.426000 -0.944291 -1.501557 0
M  V30 73 H 4.322396 -2.104915 -0.810034 0
M  V30 74 H 2.435471 -0.758897 -0.051297 0
M  V30 75 H 2.626157 1.701709 0.022637 0
M  V30 END ATOM
M  V30 BEGIN BOND
M  V30 1 1 1 2
M  V30 2 2 2 3
M  V30 3 1 3 4
M  V30 4 1 4 5
M  V30 5 2 5 6
M  V30 6 1 6 7
M  V30 7 1 7 8
M  V30 8 2 8 9
M  V30 9 1 9 10
M  V30 10 1 10 11
M  V30 11 2 11 12
M  V30 12 1 11 13
M  V30 13 1 13 14
M  V30 14 1 14 15
M  V30 15 2 15 16
M  V30 16 1 16 17
M  V30 17 2 17 18
M  V30 18 1 18 19
M  V30 19 1 19 20
M  V30 20 2 20 21
M  V30 21 1 20 22
M  V30 22 1 22 23
M  V30 23 2 23 24
M  V30 24 1 24 25
M  V30 25 2 25 26
M  V30 26 1 26 27
M  V30 27 1 26 28
M  V30 28 1 28 29
M  V30 29 1 29 30
M  V30 30 1 30 31
M  V30 31 1 31 32
M  V30 32 1 32 33
M  V30 33 1 33 34
M  V30 34 1 34 35
M  V30 35 1 29 36
M  V30 36 1 36 37
M  V30 37 2 19 38
M  V30 38 2 10 39
M  V30 39 1 39 40
M  V30 40 2 40 41
M  V30 41 1 41 42
M  V30 42 2 42 43
M  V30 43 1 43 44
M  V30 44 2 44 45
M  V30 45 1 6 2
M  V30 46 1 39 7
M  V30 47 1 45 40
M  V30 48 1 38 15
M  V30 49 1 27 23
M  V30 50 1 35 30
M  V30 51 1 37 25
M  V30 52 1 1 46
M  V30 53 1 1 47
M  V30 54 1 13 48
M  V30 55 1 14 49
M  V30 56 1 14 50
M  V30 57 1 16 51
M  V30 58 1 17 52
M  V30 59 1 18 53
M  V30 60 1 22 54
M  V30 61 1 28 55
M  V30 62 1 28 56
M  V30 63 1 29 57 CFG=1
M  V30 64 1 31 58
M  V30 65 1 31 59
M  V30 66 1 32 60
M  V30 67 1 32 61
M  V30 68 1 34 62
M  V30 69 1 34 63
M  V30 70 1 35 64
M  V30 71 1 35 65
M  V30 72 1 36 66
M  V30 73 1 36 67
M  V30 74 1 37 68
M  V30 75 1 37 69
M  V30 76 1 38 70
M  V30 77 1 41 71
M  V30 78 1 42 72
M  V30 79 1 43 73
M  V30 80 1 44 74
M  V30 81 1 45 75
M  V30 END BOND
M  V30 END CTAB
M  END
>  <Dataset>  (494) 
ChEMBL_Kinases

>  <Ligand_Instance>  (494) 
nan

>  <PDB_ID>  (494) 
nan

>  <Standardized_SMILES>  (494) 
Nc1nonc1-n1nnc(C(=O)NCc2cccc(C(=O)Nc3nc4c(s3)C[C@@H](N3CCOCC3)CC4)c2)c1-c1ccccc1

>  <Name>  (494) 
nan

>  <Pocket>  (494) 
nan

>  <ATP_Site>  (494) 
nan

>  <Peripheral>  (494) 
nan

>  <Num_H_Atoms_ProtBoundConf>  (494) 
nan

>  <Num_Resolved_Atoms>  (494) 
nan

>  <Num_Not_Resolved_Atoms>  (494) 
nan

$$$$
CHEMBL3681048
     RDKit          3D

  0  0  0  0  0  0  0  0  0  0999 V3000
M  V30 BEGIN CTAB
M  V30 COUNTS 49 52 0 0 0
M  V30 BEGIN ATOM
M  V30 1 C 1.401368 -4.139542 2.915283 0
M  V30 2 N 0.814791 -5.349583 2.365762 0
M  V30 3 C -0.021305 -5.309362 1.239720 0
M  V30 4 N -0.307982 -4.162153 0.633515 0
M  V30 5 C -1.091612 -4.013524 -0.443385 0
M  V30 6 N -1.386706 -2.776355 -1.078216 0
M  V30 7 C -0.949178 -1.468746 -0.746956 0
M  V30 8 C -0.115938 -1.169797 0.308937 0
M  V30 9 C 0.329740 0.087018 0.661022 0
M  V30 10 F 1.148417 0.319288 1.710392 0
M  V30 11 C -0.089771 1.155106 -0.106863 0
M  V30 12 C 0.346559 2.510993 0.213627 0
M  V30 13 C 0.812006 3.491952 -0.666856 0
M  V30 14 N 1.112058 4.611166 0.044072 0
M  V30 15 N 0.860762 4.388960 1.326793 0
M  V30 16 C 1.042775 5.320933 2.422433 0
M  V30 17 C 2.497604 5.697772 2.657163 0
M  V30 18 O 2.613035 4.514092 3.383366 0
M  V30 19 C 1.280037 4.679187 3.768894 0
M  V30 20 C 0.391460 3.118239 1.474937 0
M  V30 21 C -0.925802 0.914926 -1.177895 0
M  V30 22 C -1.336331 -0.363715 -1.478765 0
M  V30 23 O -2.178784 -0.537770 -2.571213 0
M  V30 24 C -2.632150 0.510961 -3.380607 0
M  V30 25 N -1.630972 -5.133788 -0.947178 0
M  V30 26 C -1.371233 -6.300412 -0.373233 0
M  V30 27 C -0.572905 -6.446379 0.722816 0
M  V30 28 C -0.296789 -7.758146 1.346845 0
M  V30 29 F -0.719979 -7.789179 2.667905 0
M  V30 30 F 1.084140 -7.954033 1.294787 0
M  V30 31 F -0.895198 -8.760283 0.637691 0
M  V30 32 H 2.277729 -3.817768 2.340699 0
M  V30 33 H 0.626895 -3.325004 2.982038 0
M  V30 34 H 1.720317 -4.302797 3.984592 0
M  V30 35 H 1.039137 -6.251146 2.840899 0
M  V30 36 H -2.023281 -2.806869 -1.923611 0
M  V30 37 H 0.254890 -1.938260 0.953601 0
M  V30 38 H 0.922263 3.400301 -1.726465 0
M  V30 39 H 0.357392 6.167171 2.391518 0
M  V30 40 H 3.063510 5.707023 1.701599 0
M  V30 41 H 2.605047 6.628624 3.243659 0
M  V30 42 H 0.821673 3.709560 3.953773 0
M  V30 43 H 1.099252 5.352227 4.606460 0
M  V30 44 H 0.091973 2.619307 2.388899 0
M  V30 45 H -1.269855 1.731227 -1.796092 0
M  V30 46 H -3.271287 1.172591 -2.728098 0
M  V30 47 H -1.807145 1.062514 -3.840021 0
M  V30 48 H -3.304981 0.087689 -4.148653 0
M  V30 49 H -1.822745 -7.191663 -0.803988 0
M  V30 END ATOM
M  V30 BEGIN BOND
M  V30 1 1 1 2
M  V30 2 1 2 3
M  V30 3 2 3 4
M  V30 4 1 4 5
M  V30 5 1 5 6
M  V30 6 1 6 7
M  V30 7 2 7 8
M  V30 8 1 8 9
M  V30 9 1 9 10
M  V30 10 2 9 11
M  V30 11 1 11 12
M  V30 12 1 12 13
M  V30 13 2 13 14
M  V30 14 1 14 15
M  V30 15 1 15 16
M  V30 16 1 16 17
M  V30 17 1 17 18
M  V30 18 1 18 19
M  V30 19 1 15 20
M  V30 20 1 11 21
M  V30 21 2 21 22
M  V30 22 1 22 23
M  V30 23 1 23 24
M  V30 24 2 5 25
M  V30 25 1 25 26
M  V30 26 2 26 27
M  V30 27 1 27 28
M  V30 28 1 28 29
M  V30 29 1 28 30
M  V30 30 1 28 31
M  V30 31 1 27 3
M  V30 32 1 22 7
M  V30 33 2 20 12
M  V30 34 1 19 16
M  V30 35 1 1 32
M  V30 36 1 1 33
M  V30 37 1 1 34
M  V30 38 1 2 35
M  V30 39 1 6 36
M  V30 40 1 8 37
M  V30 41 1 13 38
M  V30 42 1 16 39
M  V30 43 1 17 40
M  V30 44 1 17 41
M  V30 45 1 19 42
M  V30 46 1 19 43
M  V30 47 1 20 44
M  V30 48 1 21 45
M  V30 49 1 24 46
M  V30 50 1 24 47
M  V30 51 1 24 48
M  V30 52 1 26 49
M  V30 END BOND
M  V30 END CTAB
M  END
>  <Dataset>  (495) 
ChEMBL_Kinases

>  <Ligand_Instance>  (495) 
nan

>  <PDB_ID>  (495) 
nan

>  <Standardized_SMILES>  (495) 
CNc1nc(Nc2cc(F)c(-c3cnn(C4COC4)c3)cc2OC)ncc1C(F)(F)F

>  <Name>  (495) 
nan

>  <Pocket>  (495) 
nan

>  <ATP_Site>  (495) 
nan

>  <Peripheral>  (495) 
nan

>  <Num_H_Atoms_ProtBoundConf>  (495) 
nan

>  <Num_Resolved_Atoms>  (495) 
nan

>  <Num_Not_Resolved_Atoms>  (495) 
nan

$$$$
CHEMBL3680763
     RDKit          3D

  0  0  0  0  0  0  0  0  0  0999 V3000
M  V30 BEGIN CTAB
M  V30 COUNTS 59 63 0 0 0
M  V30 BEGIN ATOM
M  V30 1 C 6.869630 -1.791236 1.458815 0
M  V30 2 N 7.476424 -0.475064 1.520212 0
M  V30 3 C 7.445753 0.194889 0.239858 0
M  V30 4 C 7.096769 1.674685 0.397934 0
M  V30 5 C 5.685695 1.703510 0.913112 0
M  V30 6 N 4.547556 2.244013 0.522803 0
M  V30 7 C 3.527336 2.172025 1.039672 0
M  V30 8 N 2.187153 2.684297 0.773824 0
M  V30 9 C 1.413821 1.814759 -0.012230 0
M  V30 10 O 1.975220 0.742613 -0.367014 0
M  V30 11 C 0.041747 2.120330 -0.402502 0
M  V30 12 C -0.624050 3.272984 -0.037198 0
M  V30 13 C -1.923427 3.545673 -0.416957 0
M  V30 14 C -2.527006 2.583656 -1.195011 0
M  V30 15 C -1.933343 1.396925 -1.608594 0
M  V30 16 C -2.715552 0.462000 -2.447486 0
M  V30 17 N -3.470187 -0.492160 -1.664601 0
M  V30 18 C -2.906206 -1.622916 -1.024877 0
M  V30 19 O -1.703276 -1.901783 -1.076937 0
M  V30 20 C -3.782792 -2.527241 -0.251979 0
M  V30 21 C -5.162706 -2.395900 -0.065099 0
M  V30 22 C -5.630187 -3.436362 0.713902 0
M  V30 23 C -6.897117 -3.747769 1.169812 0
M  V30 24 C -7.040500 -4.879868 1.944311 0
M  V30 25 C -8.333719 -5.285172 2.466943 0
M  V30 26 N -9.366836 -5.606451 2.889911 0
M  V30 27 C -5.930805 -5.674943 2.248837 0
M  V30 28 C -4.678378 -5.333476 1.776058 0
M  V30 29 C -4.517338 -4.199663 0.996852 0
M  V30 30 N -3.438942 -3.641793 0.415186 0
M  V30 31 C -2.083625 -4.165364 0.493248 0
M  V30 32 C -0.653536 1.220021 -1.183984 0
M  V30 33 S 3.856472 1.099628 2.579504 0
M  V30 34 C 5.597158 0.916045 2.174726 0
M  V30 35 C 6.892674 0.327675 2.574152 0
M  V30 36 H 6.237672 -1.833275 0.550690 0
M  V30 37 H 7.604361 -2.607596 1.544839 0
M  V30 38 H 6.155420 -1.864978 2.330292 0
M  V30 39 H 8.459119 0.060869 -0.197862 0
M  V30 40 H 6.732047 -0.275555 -0.467028 0
M  V30 41 H 7.799975 2.080869 1.148668 0
M  V30 42 H 7.175019 2.141222 -0.577544 0
M  V30 43 H 1.811860 3.593561 1.115298 0
M  V30 44 H -0.112267 4.002319 0.575186 0
M  V30 45 H -2.441485 4.449822 -0.128021 0
M  V30 46 H -3.559409 2.782278 -1.506460 0
M  V30 47 H -3.429560 1.070310 -3.034122 0
M  V30 48 H -2.057158 -0.046299 -3.186326 0
M  V30 49 H -4.517391 -0.361666 -1.544310 0
M  V30 50 H -5.794293 -1.602292 -0.463117 0
M  V30 51 H -7.737692 -3.136306 0.933189 0
M  V30 52 H -6.037431 -6.572084 2.861122 0
M  V30 53 H -3.853810 -5.982537 2.040624 0
M  V30 54 H -2.104779 -5.188804 0.941699 0
M  V30 55 H -1.421223 -3.516221 1.132256 0
M  V30 56 H -1.605181 -4.289986 -0.494805 0
M  V30 57 H -0.141735 0.313523 -1.478217 0
M  V30 58 H 6.665710 -0.353659 3.419374 0
M  V30 59 H 7.547218 1.122980 2.938921 0
M  V30 END ATOM
M  V30 BEGIN BOND
M  V30 1 1 1 2
M  V30 2 1 2 3
M  V30 3 1 3 4
M  V30 4 1 4 5
M  V30 5 1 5 6
M  V30 6 2 6 7
M  V30 7 1 7 8
M  V30 8 1 8 9
M  V30 9 2 9 10
M  V30 10 1 9 11
M  V30 11 2 11 12
M  V30 12 1 12 13
M  V30 13 2 13 14
M  V30 14 1 14 15
M  V30 15 1 15 16
M  V30 16 1 16 17
M  V30 17 1 17 18
M  V30 18 2 18 19
M  V30 19 1 18 20
M  V30 20 2 20 21
M  V30 21 1 21 22
M  V30 22 2 22 23
M  V30 23 1 23 24
M  V30 24 1 24 25
M  V30 25 3 25 26
M  V30 26 2 24 27
M  V30 27 1 27 28
M  V30 28 2 28 29
M  V30 29 1 29 30
M  V30 30 1 30 31
M  V30 31 2 15 32
M  V30 32 1 7 33
M  V30 33 1 33 34
M  V30 34 1 34 35
M  V30 35 1 35 2
M  V30 36 2 34 5
M  V30 37 1 32 11
M  V30 38 1 30 20
M  V30 39 1 29 22
M  V30 40 1 1 36
M  V30 41 1 1 37
M  V30 42 1 1 38
M  V30 43 1 3 39
M  V30 44 1 3 40
M  V30 45 1 4 41
M  V30 46 1 4 42
M  V30 47 1 8 43
M  V30 48 1 12 44
M  V30 49 1 13 45
M  V30 50 1 14 46
M  V30 51 1 16 47
M  V30 52 1 16 48
M  V30 53 1 17 49
M  V30 54 1 21 50
M  V30 55 1 23 51
M  V30 56 1 27 52
M  V30 57 1 28 53
M  V30 58 1 31 54
M  V30 59 1 31 55
M  V30 60 1 31 56
M  V30 61 1 32 57
M  V30 62 1 35 58
M  V30 63 1 35 59
M  V30 END BOND
M  V30 END CTAB
M  END
>  <Dataset>  (496) 
ChEMBL_Kinases

>  <Ligand_Instance>  (496) 
nan

>  <PDB_ID>  (496) 
nan

>  <Standardized_SMILES>  (496) 
CN1CCc2nc(NC(=O)c3cccc(CNC(=O)c4cc5cc(C#N)ccc5n4C)c3)sc2C1

>  <Name>  (496) 
nan

>  <Pocket>  (496) 
nan

>  <ATP_Site>  (496) 
nan

>  <Peripheral>  (496) 
nan

>  <Num_H_Atoms_ProtBoundConf>  (496) 
nan

>  <Num_Resolved_Atoms>  (496) 
nan

>  <Num_Not_Resolved_Atoms>  (496) 
nan

$$$$
CHEMBL3680764
     RDKit          3D

  0  0  0  0  0  0  0  0  0  0999 V3000
M  V30 BEGIN CTAB
M  V30 COUNTS 61 65 0 0 0
M  V30 BEGIN ATOM
M  V30 1 C 2.247606 -3.822205 2.092812 0
M  V30 2 C 3.629491 -3.360630 1.966708 0
M  V30 3 C 4.163133 -2.093428 2.076628 0
M  V30 4 C 3.409184 -0.874323 2.360650 0
M  V30 5 O 2.167471 -0.949638 2.527335 0
M  V30 6 N 4.072912 0.380654 2.447005 0
M  V30 7 C 3.457458 1.674837 2.721367 0
M  V30 8 C 2.749624 2.193295 1.516574 0
M  V30 9 C 3.521292 2.965325 0.654759 0
M  V30 10 C 2.978773 3.510272 -0.505959 0
M  V30 11 C 1.640929 3.249308 -0.761719 0
M  V30 12 C 0.845555 2.488348 0.070113 0
M  V30 13 C -0.536576 2.265789 -0.272318 0
M  V30 14 O -0.945067 2.785908 -1.343398 0
M  V30 15 N -1.429631 1.510666 0.518938 0
M  V30 16 C -2.799139 1.246486 0.252290 0
M  V30 17 C -3.819938 2.079404 0.694002 0
M  V30 18 C -5.149998 1.783968 0.411370 0
M  V30 19 C -5.520175 0.684171 -0.299812 0
M  V30 20 C -4.500205 -0.145193 -0.739452 0
M  V30 21 C -3.177649 0.131268 -0.469089 0
M  V30 22 C -4.861829 -1.355044 -1.516520 0
M  V30 23 N -6.105890 -1.207384 -2.220453 0
M  V30 24 C -6.402916 -2.272006 -3.112562 0
M  V30 25 C -7.201040 -0.788542 -1.400431 0
M  V30 26 C -6.948717 0.415204 -0.574047 0
M  V30 27 C 1.424826 1.970704 1.205102 0
M  V30 28 N 5.493701 -2.184268 1.876412 0
M  V30 29 N 5.780152 -3.476875 1.647549 0
M  V30 30 N 4.660915 -4.182432 1.701902 0
M  V30 31 C 4.643230 -5.591186 1.498730 0
M  V30 32 N 3.626328 -6.462081 1.515426 0
M  V30 33 O 4.075993 -7.671113 1.275833 0
M  V30 34 N 5.368555 -7.651763 1.096290 0
M  V30 35 C 5.761531 -6.353390 1.229850 0
M  V30 36 N 7.118781 -5.941523 1.098377 0
M  V30 37 H 1.972337 -3.962987 3.164351 0
M  V30 38 H 2.015477 -4.716761 1.483516 0
M  V30 39 H 1.550902 -3.035218 1.696307 0
M  V30 40 H 5.125577 0.340440 2.290804 0
M  V30 41 H 4.242461 2.365309 3.048174 0
M  V30 42 H 2.686931 1.512280 3.531539 0
M  V30 43 H 4.568056 3.180701 0.836538 0
M  V30 44 H 3.578281 4.112936 -1.180641 0
M  V30 45 H 1.262997 3.693781 -1.675327 0
M  V30 46 H -1.102299 1.070760 1.416124 0
M  V30 47 H -3.499206 2.945704 1.256373 0
M  V30 48 H -5.883349 2.478982 0.789037 0
M  V30 49 H -2.425515 -0.549557 -0.836143 0
M  V30 50 H -4.923421 -2.185551 -0.769787 0
M  V30 51 H -4.053059 -1.519891 -2.256984 0
M  V30 52 H -7.497154 -2.254261 -3.338325 0
M  V30 53 H -6.256237 -3.231616 -2.546510 0
M  V30 54 H -5.873212 -2.264726 -4.077415 0
M  V30 55 H -7.603918 -1.633562 -0.806428 0
M  V30 56 H -8.035846 -0.530621 -2.114911 0
M  V30 57 H -7.348071 1.359519 -1.020686 0
M  V30 58 H -7.439850 0.251312 0.423465 0
M  V30 59 H 0.854589 1.371108 1.891987 0
M  V30 60 H 7.596565 -5.309875 0.393155 0
M  V30 61 H 8.020477 -6.101408 1.596952 0
M  V30 END ATOM
M  V30 BEGIN BOND
M  V30 1 1 1 2
M  V30 2 2 2 3
M  V30 3 1 3 4
M  V30 4 2 4 5
M  V30 5 1 4 6
M  V30 6 1 6 7
M  V30 7 1 7 8
M  V30 8 2 8 9
M  V30 9 1 9 10
M  V30 10 2 10 11
M  V30 11 1 11 12
M  V30 12 1 12 13
M  V30 13 2 13 14
M  V30 14 1 13 15
M  V30 15 1 15 16
M  V30 16 2 16 17
M  V30 17 1 17 18
M  V30 18 2 18 19
M  V30 19 1 19 20
M  V30 20 2 20 21
M  V30 21 1 20 22
M  V30 22 1 22 23
M  V30 23 1 23 24
M  V30 24 1 23 25
M  V30 25 1 25 26
M  V30 26 2 12 27
M  V30 27 1 3 28
M  V30 28 2 28 29
M  V30 29 1 29 30
M  V30 30 1 30 31
M  V30 31 2 31 32
M  V30 32 1 32 33
M  V30 33 1 33 34
M  V30 34 2 34 35
M  V30 35 1 35 36
M  V30 36 1 30 2
M  V30 37 1 35 31
M  V30 38 1 27 8
M  V30 39 1 21 16
M  V30 40 1 26 19
M  V30 41 1 1 37
M  V30 42 1 1 38
M  V30 43 1 1 39
M  V30 44 1 6 40
M  V30 45 1 7 41
M  V30 46 1 7 42
M  V30 47 1 9 43
M  V30 48 1 10 44
M  V30 49 1 11 45
M  V30 50 1 15 46
M  V30 51 1 17 47
M  V30 52 1 18 48
M  V30 53 1 21 49
M  V30 54 1 22 50
M  V30 55 1 22 51
M  V30 56 1 24 52
M  V30 57 1 24 53
M  V30 58 1 24 54
M  V30 59 1 25 55
M  V30 60 1 25 56
M  V30 61 1 26 57
M  V30 62 1 26 58
M  V30 63 1 27 59
M  V30 64 1 36 60
M  V30 65 1 36 61
M  V30 END BOND
M  V30 END CTAB
M  END
>  <Dataset>  (497) 
ChEMBL_Kinases

>  <Ligand_Instance>  (497) 
nan

>  <PDB_ID>  (497) 
nan

>  <Standardized_SMILES>  (497) 
Cc1c(C(=O)NCc2cccc(C(=O)Nc3ccc4c(c3)CN(C)CC4)c2)nnn1-c1nonc1N

>  <Name>  (497) 
nan

>  <Pocket>  (497) 
nan

>  <ATP_Site>  (497) 
nan

>  <Peripheral>  (497) 
nan

>  <Num_H_Atoms_ProtBoundConf>  (497) 
nan

>  <Num_Resolved_Atoms>  (497) 
nan

>  <Num_Not_Resolved_Atoms>  (497) 
nan

$$$$
CHEMBL3680765
     RDKit          3D

  0  0  0  0  0  0  0  0  0  0999 V3000
M  V30 BEGIN CTAB
M  V30 COUNTS 63 67 0 0 0
M  V30 BEGIN ATOM
M  V30 1 C 5.246977 2.506185 6.982971 0
M  V30 2 N 5.275205 2.996522 5.631427 0
M  V30 3 C 6.521338 3.741694 5.463190 0
M  V30 4 C 5.218690 1.921040 4.656647 0 CFG=1
M  V30 5 C 3.969110 1.132347 4.817974 0
M  V30 6 C 3.750453 0.193505 3.649220 0
M  V30 7 C 3.299680 1.034868 2.503743 0
M  V30 8 N 2.328256 1.058308 1.588103 0
M  V30 9 C 2.182684 1.874404 0.745975 0
M  V30 10 N 0.980431 1.637913 -0.156545 0
M  V30 11 C -0.253992 2.189027 0.186261 0
M  V30 12 O -0.436408 2.884647 1.217704 0
M  V30 13 C -1.407133 1.963061 -0.676683 0
M  V30 14 C -2.610623 2.542607 -0.296411 0
M  V30 15 C -3.786647 2.395471 -1.042554 0
M  V30 16 C -3.709463 1.638706 -2.194314 0
M  V30 17 C -2.536638 1.044876 -2.610145 0
M  V30 18 C -2.367881 0.219637 -3.820519 0
M  V30 19 N -2.582061 -1.192719 -3.605261 0
M  V30 20 C -3.877174 -1.694580 -3.479881 0
M  V30 21 O -4.961120 -1.114737 -3.522685 0
M  V30 22 C -3.947150 -3.144707 -3.262942 0
M  V30 23 C -2.902104 -4.145855 -3.154877 0
M  V30 24 C -3.379919 -5.409686 -2.948337 0
M  V30 25 C -4.682142 -5.670679 -2.859111 0
M  V30 26 C -5.329352 -6.947604 -2.644198 0
M  V30 27 C -4.677546 -8.144820 -2.492130 0
M  V30 28 C -5.335851 -9.337759 -2.286863 0
M  V30 29 N -6.698576 -9.344265 -2.230040 0
M  V30 30 C -7.345630 -8.167056 -2.379273 0
M  V30 31 C -6.706547 -6.963828 -2.585221 0
M  V30 32 S -5.496282 -4.105721 -3.060137 0
M  V30 33 C -1.395003 1.218342 -1.838069 0
M  V30 34 S 3.566942 3.030367 1.019122 0
M  V30 35 C 4.216997 2.050277 2.468392 0
M  V30 36 C 5.393440 2.388211 3.259985 0
M  V30 37 H 5.915999 1.606951 7.105431 0
M  V30 38 H 4.227124 2.269389 7.342238 0
M  V30 39 H 5.648417 3.296074 7.650801 0
M  V30 40 H 6.329341 4.697944 4.944134 0
M  V30 41 H 6.998584 3.939002 6.448313 0
M  V30 42 H 7.215684 3.094549 4.853369 0
M  V30 43 H 6.080778 1.238987 4.878376 0
M  V30 44 H 3.056574 1.752808 4.907797 0
M  V30 45 H 4.011107 0.465323 5.725340 0
M  V30 46 H 4.616953 -0.427590 3.405898 0
M  V30 47 H 2.934034 -0.511098 3.979265 0
M  V30 48 H 1.194380 1.067900 -0.974578 0
M  V30 49 H -2.769416 3.156655 0.595097 0
M  V30 50 H -4.727626 2.834691 -0.766842 0
M  V30 51 H -4.588970 1.497717 -2.804638 0
M  V30 52 H -1.385724 0.428845 -4.270171 0
M  V30 53 H -3.120712 0.532456 -4.573471 0
M  V30 54 H -1.710568 -1.780484 -3.554511 0
M  V30 55 H -1.890133 -3.787160 -3.247311 0
M  V30 56 H -2.631350 -6.208390 -2.857924 0
M  V30 57 H -3.580903 -8.085516 -2.545452 0
M  V30 58 H -4.676943 -10.202994 -2.184442 0
M  V30 59 H -8.428310 -8.231580 -2.325076 0
M  V30 60 H -7.331216 -6.074101 -2.691843 0
M  V30 61 H -0.456805 0.774358 -2.121169 0
M  V30 62 H 5.596561 3.480981 3.308167 0
M  V30 63 H 6.292710 1.963713 2.748981 0
M  V30 END ATOM
M  V30 BEGIN BOND
M  V30 1 1 1 2
M  V30 2 1 2 3
M  V30 3 1 2 4
M  V30 4 1 4 5
M  V30 5 1 5 6
M  V30 6 1 6 7
M  V30 7 1 7 8
M  V30 8 2 8 9
M  V30 9 1 9 10
M  V30 10 1 10 11
M  V30 11 2 11 12
M  V30 12 1 11 13
M  V30 13 2 13 14
M  V30 14 1 14 15
M  V30 15 2 15 16
M  V30 16 1 16 17
M  V30 17 1 17 18
M  V30 18 1 18 19
M  V30 19 1 19 20
M  V30 20 2 20 21
M  V30 21 1 20 22
M  V30 22 2 22 23
M  V30 23 1 23 24
M  V30 24 2 24 25
M  V30 25 1 25 26
M  V30 26 2 26 27
M  V30 27 1 27 28
M  V30 28 2 28 29
M  V30 29 1 29 30
M  V30 30 2 30 31
M  V30 31 1 25 32
M  V30 32 2 17 33
M  V30 33 1 9 34
M  V30 34 1 34 35
M  V30 35 1 35 36
M  V30 36 1 36 4
M  V30 37 2 35 7
M  V30 38 1 33 13
M  V30 39 1 32 22
M  V30 40 1 31 26
M  V30 41 1 1 37
M  V30 42 1 1 38
M  V30 43 1 1 39
M  V30 44 1 3 40
M  V30 45 1 3 41
M  V30 46 1 3 42
M  V30 47 1 4 43 CFG=1
M  V30 48 1 5 44
M  V30 49 1 5 45
M  V30 50 1 6 46
M  V30 51 1 6 47
M  V30 52 1 10 48
M  V30 53 1 14 49
M  V30 54 1 15 50
M  V30 55 1 16 51
M  V30 56 1 18 52
M  V30 57 1 18 53
M  V30 58 1 19 54
M  V30 59 1 23 55
M  V30 60 1 24 56
M  V30 61 1 27 57
M  V30 62 1 28 58
M  V30 63 1 30 59
M  V30 64 1 31 60
M  V30 65 1 33 61
M  V30 66 1 36 62
M  V30 67 1 36 63
M  V30 END BOND
M  V30 END CTAB
M  END
>  <Dataset>  (498) 
ChEMBL_Kinases

>  <Ligand_Instance>  (498) 
nan

>  <PDB_ID>  (498) 
nan

>  <Standardized_SMILES>  (498) 
CN(C)[C@H]1CCc2nc(NC(=O)c3cccc(CNC(=O)c4ccc(-c5ccncc5)s4)c3)sc2C1

>  <Name>  (498) 
nan

>  <Pocket>  (498) 
nan

>  <ATP_Site>  (498) 
nan

>  <Peripheral>  (498) 
nan

>  <Num_H_Atoms_ProtBoundConf>  (498) 
nan

>  <Num_Resolved_Atoms>  (498) 
nan

>  <Num_Not_Resolved_Atoms>  (498) 
nan

$$$$
CHEMBL3680766
     RDKit          3D

  0  0  0  0  0  0  0  0  0  0999 V3000
M  V30 BEGIN CTAB
M  V30 COUNTS 60 64 0 0 0
M  V30 BEGIN ATOM
M  V30 1 C 4.929229 -0.687239 6.291514 0
M  V30 2 N 6.045208 -0.414657 5.438782 0
M  V30 3 C 6.866761 -1.606067 5.356800 0
M  V30 4 C 5.680458 -0.048993 4.081545 0 CFG=1
M  V30 5 C 4.912097 -1.226060 3.526052 0
M  V30 6 C 4.411439 -0.966221 2.132507 0
M  V30 7 C 3.429523 0.171226 2.261958 0
M  V30 8 N 2.275996 0.326507 1.604060 0
M  V30 9 C 1.544709 1.285817 1.779695 0
M  V30 10 N 0.255128 1.377618 0.990975 0
M  V30 11 C 0.313571 2.031591 -0.241407 0
M  V30 12 O 1.417828 2.498623 -0.618457 0
M  V30 13 C -0.833349 2.208303 -1.124872 0
M  V30 14 C -0.621767 2.868386 -2.324031 0
M  V30 15 C -1.687751 3.058404 -3.195299 0
M  V30 16 C -2.949031 2.597825 -2.878776 0
M  V30 17 C -3.189586 1.937092 -1.692186 0
M  V30 18 C -4.473790 1.379062 -1.199243 0
M  V30 19 N -4.654203 -0.004423 -1.594401 0
M  V30 20 C -5.030899 -0.384105 -2.909804 0
M  V30 21 O -5.241657 0.402888 -3.838199 0
M  V30 22 C -5.163631 -1.863552 -3.113419 0
M  V30 23 C -5.505461 -2.448864 -4.258656 0
M  V30 24 C -5.597289 -3.811803 -4.333449 0
M  V30 25 C -5.307909 -4.502689 -3.135065 0
M  V30 26 C -5.279118 -5.879601 -2.765411 0
M  V30 27 C -5.575769 -6.876475 -3.662352 0
M  V30 28 N -5.451416 -8.051400 -2.980253 0
M  V30 29 C -5.087856 -7.736354 -1.706946 0
M  V30 30 O -4.992915 -6.414952 -1.612344 0
M  V30 31 S -4.903941 -3.154933 -1.908317 0
M  V30 32 C -2.102239 1.755658 -0.827665 0
M  V30 33 S 2.367511 2.290552 3.016971 0
M  V30 34 C 3.815525 1.111634 3.165474 0
M  V30 35 C 4.962728 1.248033 4.021753 0
M  V30 36 H 5.215204 -0.423352 7.349965 0
M  V30 37 H 4.701672 -1.792816 6.309315 0
M  V30 38 H 4.000053 -0.168392 6.054017 0
M  V30 39 H 6.223396 -2.503685 5.463214 0
M  V30 40 H 7.398371 -1.601142 4.381184 0
M  V30 41 H 7.661346 -1.644270 6.127688 0
M  V30 42 H 6.667476 -0.024906 3.529694 0
M  V30 43 H 5.636043 -2.058667 3.449942 0
M  V30 44 H 4.083405 -1.537614 4.164622 0
M  V30 45 H 3.916208 -1.890669 1.783948 0
M  V30 46 H 5.215232 -0.709928 1.441032 0
M  V30 47 H -0.617162 0.980696 1.342744 0
M  V30 48 H 0.325992 3.269301 -2.669391 0
M  V30 49 H -1.610566 3.569290 -4.162625 0
M  V30 50 H -3.815213 2.717674 -3.514909 0
M  V30 51 H -5.327438 1.990673 -1.621194 0
M  V30 52 H -4.526828 1.468052 -0.095091 0
M  V30 53 H -4.488661 -0.739340 -0.842222 0
M  V30 54 H -5.727667 -1.892620 -5.185117 0
M  V30 55 H -5.854360 -4.465709 -5.152551 0
M  V30 56 H -5.854185 -6.779488 -4.702592 0
M  V30 57 H -4.893806 -8.388118 -0.870391 0
M  V30 58 H -2.218571 1.246473 0.119798 0
M  V30 59 H 4.605070 1.502820 5.056536 0
M  V30 60 H 5.663530 2.059941 3.759721 0
M  V30 END ATOM
M  V30 BEGIN BOND
M  V30 1 1 1 2
M  V30 2 1 2 3
M  V30 3 1 2 4
M  V30 4 1 4 5
M  V30 5 1 5 6
M  V30 6 1 6 7
M  V30 7 1 7 8
M  V30 8 2 8 9
M  V30 9 1 9 10
M  V30 10 1 10 11
M  V30 11 2 11 12
M  V30 12 1 11 13
M  V30 13 2 13 14
M  V30 14 1 14 15
M  V30 15 2 15 16
M  V30 16 1 16 17
M  V30 17 1 17 18
M  V30 18 1 18 19
M  V30 19 1 19 20
M  V30 20 2 20 21
M  V30 21 1 20 22
M  V30 22 2 22 23
M  V30 23 1 23 24
M  V30 24 2 24 25
M  V30 25 1 25 26
M  V30 26 2 26 27
M  V30 27 1 27 28
M  V30 28 2 28 29
M  V30 29 1 29 30
M  V30 30 1 25 31
M  V30 31 2 17 32
M  V30 32 1 9 33
M  V30 33 1 33 34
M  V30 34 1 34 35
M  V30 35 1 35 4
M  V30 36 2 34 7
M  V30 37 1 32 13
M  V30 38 1 31 22
M  V30 39 1 30 26
M  V30 40 1 1 36
M  V30 41 1 1 37
M  V30 42 1 1 38
M  V30 43 1 3 39
M  V30 44 1 3 40
M  V30 45 1 3 41
M  V30 46 1 4 42 CFG=3
M  V30 47 1 5 43
M  V30 48 1 5 44
M  V30 49 1 6 45
M  V30 50 1 6 46
M  V30 51 1 10 47
M  V30 52 1 14 48
M  V30 53 1 15 49
M  V30 54 1 16 50
M  V30 55 1 18 51
M  V30 56 1 18 52
M  V30 57 1 19 53
M  V30 58 1 23 54
M  V30 59 1 24 55
M  V30 60 1 27 56
M  V30 61 1 29 57
M  V30 62 1 32 58
M  V30 63 1 35 59
M  V30 64 1 35 60
M  V30 END BOND
M  V30 END CTAB
M  END
>  <Dataset>  (499) 
ChEMBL_Kinases

>  <Ligand_Instance>  (499) 
nan

>  <PDB_ID>  (499) 
nan

>  <Standardized_SMILES>  (499) 
CN(C)[C@H]1CCc2nc(NC(=O)c3cccc(CNC(=O)c4ccc(-c5cnco5)s4)c3)sc2C1

>  <Name>  (499) 
nan

>  <Pocket>  (499) 
nan

>  <ATP_Site>  (499) 
nan

>  <Peripheral>  (499) 
nan

>  <Num_H_Atoms_ProtBoundConf>  (499) 
nan

>  <Num_Resolved_Atoms>  (499) 
nan

>  <Num_Not_Resolved_Atoms>  (499) 
nan

$$$$
CHEMBL3680767
     RDKit          3D

  0  0  0  0  0  0  0  0  0  0999 V3000
M  V30 BEGIN CTAB
M  V30 COUNTS 64 68 0 0 0
M  V30 BEGIN ATOM
M  V30 1 C 5.475038 5.093050 4.007660 0
M  V30 2 N 6.448589 4.905983 2.953892 0
M  V30 3 C 7.371759 3.873140 3.296515 0
M  V30 4 C 7.047602 2.524647 2.705353 0
M  V30 5 C 5.617847 2.296536 2.477082 0
M  V30 6 C 4.873083 1.152372 2.731046 0
M  V30 7 C 3.524146 1.116919 2.450165 0
M  V30 8 C 2.921877 2.247939 1.907853 0
M  V30 9 N 1.529853 2.096406 1.662053 0
M  V30 10 C 0.855612 1.629393 0.516592 0
M  V30 11 O 1.551282 1.273119 -0.484249 0
M  V30 12 C -0.603585 1.560825 0.491517 0
M  V30 13 C -1.431760 1.938611 1.528277 0
M  V30 14 C -2.805336 1.841558 1.421816 0
M  V30 15 C -3.352901 1.356223 0.252264 0
M  V30 16 C -2.596857 0.957529 -0.829691 0
M  V30 17 C -3.096796 0.425270 -2.119393 0
M  V30 18 N -3.227657 -1.006138 -2.154348 0
M  V30 19 C -4.255257 -1.795852 -1.569370 0
M  V30 20 O -5.140509 -1.120279 -0.954927 0
M  V30 21 C -4.315124 -3.249260 -1.650594 0
M  V30 22 C -3.413346 -4.095340 -2.266720 0
M  V30 23 C -3.601925 -5.460958 -2.267489 0
M  V30 24 C -4.686924 -6.063348 -1.662628 0
M  V30 25 C -4.839825 -7.513318 -1.693197 0
M  V30 26 C -4.396170 -8.296164 -2.747789 0
M  V30 27 C -4.585227 -9.667898 -2.689124 0
M  V30 28 N -5.187779 -10.283505 -1.641462 0
M  V30 29 C -5.617559 -9.511175 -0.616450 0
M  V30 30 C -5.452678 -8.139676 -0.627530 0
M  V30 31 C -5.595315 -5.229260 -1.043248 0
M  V30 32 C -5.395679 -3.864369 -1.049219 0
M  V30 33 C -1.213329 1.083483 -0.651346 0
M  V30 34 C 3.624097 3.405792 1.639639 0
M  V30 35 C 4.977009 3.393502 1.938485 0
M  V30 36 C 5.800737 4.626175 1.671570 0
M  V30 37 H 5.073720 4.122043 4.349605 0
M  V30 38 H 4.601020 5.689705 3.679720 0
M  V30 39 H 5.948454 5.625489 4.849632 0
M  V30 40 H 8.388140 4.212613 2.951547 0
M  V30 41 H 7.454995 3.821790 4.398186 0
M  V30 42 H 7.540679 2.482982 1.696529 0
M  V30 43 H 7.524497 1.741425 3.314492 0
M  V30 44 H 5.444546 0.338338 3.150846 0
M  V30 45 H 2.976466 0.197545 2.664241 0
M  V30 46 H 1.050153 2.410690 2.533010 0
M  V30 47 H -0.979896 2.312007 2.423356 0
M  V30 48 H -3.445321 2.140093 2.240470 0
M  V30 49 H -4.425440 1.274160 0.145222 0
M  V30 50 H -4.034392 0.939655 -2.440803 0
M  V30 51 H -2.352008 0.720861 -2.898356 0
M  V30 52 H -2.497958 -1.590165 -2.664081 0
M  V30 53 H -2.567396 -3.613455 -2.736549 0
M  V30 54 H -2.838539 -6.009735 -2.774766 0
M  V30 55 H -3.913840 -7.814173 -3.587871 0
M  V30 56 H -4.247634 -10.303280 -3.500418 0
M  V30 57 H -6.091460 -10.022539 0.199318 0
M  V30 58 H -5.813335 -7.542044 0.221911 0
M  V30 59 H -6.434937 -5.717223 -0.576899 0
M  V30 60 H -6.192706 -3.331075 -0.522741 0
M  V30 61 H -0.580796 0.779269 -1.481957 0
M  V30 62 H 3.116797 4.238910 1.226266 0
M  V30 63 H 6.566611 4.353994 0.946898 0
M  V30 64 H 5.133051 5.454807 1.393901 0
M  V30 END ATOM
M  V30 BEGIN BOND
M  V30 1 1 1 2
M  V30 2 1 2 3
M  V30 3 1 3 4
M  V30 4 1 4 5
M  V30 5 2 5 6
M  V30 6 1 6 7
M  V30 7 2 7 8
M  V30 8 1 8 9
M  V30 9 1 9 10
M  V30 10 2 10 11
M  V30 11 1 10 12
M  V30 12 2 12 13
M  V30 13 1 13 14
M  V30 14 2 14 15
M  V30 15 1 15 16
M  V30 16 1 16 17
M  V30 17 1 17 18
M  V30 18 1 18 19
M  V30 19 2 19 20
M  V30 20 1 19 21
M  V30 21 2 21 22
M  V30 22 1 22 23
M  V30 23 2 23 24
M  V30 24 1 24 25
M  V30 25 2 25 26
M  V30 26 1 26 27
M  V30 27 2 27 28
M  V30 28 1 28 29
M  V30 29 2 29 30
M  V30 30 1 24 31
M  V30 31 2 31 32
M  V30 32 2 16 33
M  V30 33 1 8 34
M  V30 34 2 34 35
M  V30 35 1 35 36
M  V30 36 1 36 2
M  V30 37 1 35 5
M  V30 38 1 33 12
M  V30 39 1 32 21
M  V30 40 1 30 25
M  V30 41 1 1 37
M  V30 42 1 1 38
M  V30 43 1 1 39
M  V30 44 1 3 40
M  V30 45 1 3 41
M  V30 46 1 4 42
M  V30 47 1 4 43
M  V30 48 1 6 44
M  V30 49 1 7 45
M  V30 50 1 9 46
M  V30 51 1 13 47
M  V30 52 1 14 48
M  V30 53 1 15 49
M  V30 54 1 17 50
M  V30 55 1 17 51
M  V30 56 1 18 52
M  V30 57 1 22 53
M  V30 58 1 23 54
M  V30 59 1 26 55
M  V30 60 1 27 56
M  V30 61 1 29 57
M  V30 62 1 30 58
M  V30 63 1 31 59
M  V30 64 1 32 60
M  V30 65 1 33 61
M  V30 66 1 34 62
M  V30 67 1 36 63
M  V30 68 1 36 64
M  V30 END BOND
M  V30 END CTAB
M  END
>  <Dataset>  (500) 
ChEMBL_Kinases

>  <Ligand_Instance>  (500) 
nan

>  <PDB_ID>  (500) 
nan

>  <Standardized_SMILES>  (500) 
CN1CCc2ccc(NC(=O)c3cccc(CNC(=O)c4ccc(-c5ccncc5)cc4)c3)cc2C1

>  <Name>  (500) 
nan

>  <Pocket>  (500) 
nan

>  <ATP_Site>  (500) 
nan

>  <Peripheral>  (500) 
nan

>  <Num_H_Atoms_ProtBoundConf>  (500) 
nan

>  <Num_Resolved_Atoms>  (500) 
nan

>  <Num_Not_Resolved_Atoms>  (500) 
nan

$$$$
CHEMBL3680768
     RDKit          3D

  0  0  0  0  0  0  0  0  0  0999 V3000
M  V30 BEGIN CTAB
M  V30 COUNTS 61 65 0 0 0
M  V30 BEGIN ATOM
M  V30 1 C 3.663989 -0.999108 7.322943 0
M  V30 2 N 2.530641 -0.152674 7.487162 0
M  V30 3 C 1.534208 -0.658188 8.396100 0
M  V30 4 C 1.944560 0.357814 6.285394 0 CFG=1
M  V30 5 C 0.766438 1.229575 6.589959 0
M  V30 6 C 0.663470 2.432592 5.699533 0
M  V30 7 C 1.038087 2.147308 4.288054 0
M  V30 8 N 0.372871 2.500465 3.205692 0
M  V30 9 C 0.754515 2.241335 2.078012 0
M  V30 10 N -0.025595 2.681418 0.875052 0
M  V30 11 C -0.823106 1.528800 0.627321 0
M  V30 12 O -0.696790 0.500795 1.393318 0
M  V30 13 C -1.806658 1.395180 -0.451992 0
M  V30 14 C -2.208960 2.449723 -1.245149 0
M  V30 15 C -3.138904 2.312899 -2.272671 0
M  V30 16 C -3.681840 1.067246 -2.508060 0
M  V30 17 C -3.318207 -0.045415 -1.742904 0
M  V30 18 C -3.838333 -1.426410 -1.925460 0
M  V30 19 N -3.008223 -2.148966 -2.851657 0
M  V30 20 C -3.008530 -2.030617 -4.267189 0
M  V30 21 O -3.786582 -1.241125 -4.821431 0
M  V30 22 C -2.110748 -2.821220 -5.080782 0
M  V30 23 C -1.979190 -2.840037 -6.410855 0
M  V30 24 C -1.048556 -3.683343 -6.966887 0
M  V30 25 C -0.298010 -4.468465 -6.108279 0
M  V30 26 C 0.746193 -5.438887 -6.441656 0
M  V30 27 C 1.165922 -5.741481 -7.712199 0
M  V30 28 N 2.118376 -6.667343 -7.496025 0
M  V30 29 N 2.263876 -6.906230 -6.206876 0
M  V30 30 C 1.410734 -6.147434 -5.495105 0
M  V30 31 S -0.930513 -3.998771 -4.448110 0
M  V30 32 C -2.394820 0.195440 -0.754478 0
M  V30 33 S 2.284884 1.351933 2.254357 0
M  V30 34 C 2.239999 1.438899 4.132540 0
M  V30 35 C 2.946090 1.065670 5.401961 0
M  V30 36 H 3.697305 -1.591429 6.405067 0
M  V30 37 H 3.615080 -1.752086 8.157265 0
M  V30 38 H 4.567947 -0.385301 7.514682 0
M  V30 39 H 1.891977 -1.539907 8.970694 0
M  V30 40 H 0.613386 -1.017681 7.855360 0
M  V30 41 H 1.179672 0.137862 9.076173 0
M  V30 42 H 1.582339 -0.520015 5.711671 0
M  V30 43 H 0.780878 1.542999 7.664362 0
M  V30 44 H -0.171336 0.646750 6.481497 0
M  V30 45 H 1.400795 3.232262 6.019846 0
M  V30 46 H -0.337140 2.895023 5.804206 0
M  V30 47 H -0.243693 3.359868 0.204301 0
M  V30 48 H -1.799083 3.436998 -1.085301 0
M  V30 49 H -3.438091 3.157697 -2.879548 0
M  V30 50 H -4.409701 0.911207 -3.289398 0
M  V30 51 H -4.908568 -1.440085 -2.215273 0
M  V30 52 H -3.786009 -1.929065 -0.935603 0
M  V30 53 H -2.309085 -2.855070 -2.469975 0
M  V30 54 H -2.603031 -2.195130 -7.040735 0
M  V30 55 H -0.862178 -3.772273 -8.050209 0
M  V30 56 H 0.764246 -5.288258 -8.610077 0
M  V30 57 H 3.001097 -7.621040 -6.044858 0
M  V30 58 H 1.404310 -6.221262 -4.438242 0
M  V30 59 H -2.090570 -0.661442 -0.140188 0
M  V30 60 H 3.736306 0.340766 5.133787 0
M  V30 61 H 3.354045 1.986620 5.806294 0
M  V30 END ATOM
M  V30 BEGIN BOND
M  V30 1 1 1 2
M  V30 2 1 2 3
M  V30 3 1 2 4
M  V30 4 1 4 5
M  V30 5 1 5 6
M  V30 6 1 6 7
M  V30 7 1 7 8
M  V30 8 2 8 9
M  V30 9 1 9 10
M  V30 10 1 10 11
M  V30 11 2 11 12
M  V30 12 1 11 13
M  V30 13 2 13 14
M  V30 14 1 14 15
M  V30 15 2 15 16
M  V30 16 1 16 17
M  V30 17 1 17 18
M  V30 18 1 18 19
M  V30 19 1 19 20
M  V30 20 2 20 21
M  V30 21 1 20 22
M  V30 22 2 22 23
M  V30 23 1 23 24
M  V30 24 2 24 25
M  V30 25 1 25 26
M  V30 26 1 26 27
M  V30 27 2 27 28
M  V30 28 1 28 29
M  V30 29 1 29 30
M  V30 30 1 25 31
M  V30 31 2 17 32
M  V30 32 1 9 33
M  V30 33 1 33 34
M  V30 34 1 34 35
M  V30 35 1 35 4
M  V30 36 2 34 7
M  V30 37 1 32 13
M  V30 38 1 31 22
M  V30 39 2 30 26
M  V30 40 1 1 36
M  V30 41 1 1 37
M  V30 42 1 1 38
M  V30 43 1 3 39
M  V30 44 1 3 40
M  V30 45 1 3 41
M  V30 46 1 4 42 CFG=3
M  V30 47 1 5 43
M  V30 48 1 5 44
M  V30 49 1 6 45
M  V30 50 1 6 46
M  V30 51 1 10 47
M  V30 52 1 14 48
M  V30 53 1 15 49
M  V30 54 1 16 50
M  V30 55 1 18 51
M  V30 56 1 18 52
M  V30 57 1 19 53
M  V30 58 1 23 54
M  V30 59 1 24 55
M  V30 60 1 27 56
M  V30 61 1 29 57
M  V30 62 1 30 58
M  V30 63 1 32 59
M  V30 64 1 35 60
M  V30 65 1 35 61
M  V30 END BOND
M  V30 END CTAB
M  END
>  <Dataset>  (501) 
ChEMBL_Kinases

>  <Ligand_Instance>  (501) 
nan

>  <PDB_ID>  (501) 
nan

>  <Standardized_SMILES>  (501) 
CN(C)[C@H]1CCc2nc(NC(=O)c3cccc(CNC(=O)c4ccc(-c5cn[nH]c5)s4)c3)sc2C1

>  <Name>  (501) 
nan

>  <Pocket>  (501) 
nan

>  <ATP_Site>  (501) 
nan

>  <Peripheral>  (501) 
nan

>  <Num_H_Atoms_ProtBoundConf>  (501) 
nan

>  <Num_Resolved_Atoms>  (501) 
nan

>  <Num_Not_Resolved_Atoms>  (501) 
nan

$$$$
CHEMBL3680769
     RDKit          3D

  0  0  0  0  0  0  0  0  0  0999 V3000
M  V30 BEGIN CTAB
M  V30 COUNTS 64 68 0 0 0
M  V30 BEGIN ATOM
M  V30 1 C 8.536155 -0.234106 3.727698 0
M  V30 2 N 8.225244 0.852807 2.819524 0
M  V30 3 C 8.909767 0.516064 1.560176 0
M  V30 4 C 6.813341 0.895209 2.515856 0 CFG=1
M  V30 5 C 5.922081 1.077634 3.700586 0
M  V30 6 C 4.562777 0.549192 3.370178 0
M  V30 7 C 4.154301 1.175824 2.059809 0
M  V30 8 N 2.910614 1.116463 1.568396 0
M  V30 9 C 2.517441 1.563314 0.584898 0
M  V30 10 N 1.172362 1.528671 -0.014149 0
M  V30 11 C 0.118221 2.428885 0.171926 0
M  V30 12 O 0.168220 3.441699 0.912278 0
M  V30 13 C -1.134873 2.198722 -0.530314 0
M  V30 14 C -2.175334 3.079569 -0.315586 0
M  V30 15 C -3.402374 2.911033 -0.969381 0
M  V30 16 C -3.588588 1.856196 -1.841580 0
M  V30 17 C -2.566787 0.938067 -2.092304 0
M  V30 18 C -2.660246 -0.222687 -3.012985 0
M  V30 19 N -3.133127 -1.431076 -2.373020 0
M  V30 20 C -4.437144 -1.770179 -2.003446 0
M  V30 21 O -5.351126 -0.913920 -2.254634 0
M  V30 22 C -4.816275 -3.020102 -1.359643 0
M  V30 23 C -3.961131 -4.039504 -0.995897 0
M  V30 24 C -4.408109 -5.197064 -0.391189 0
M  V30 25 C -5.725012 -5.389994 -0.122482 0
M  V30 26 C -6.625176 -4.412386 -0.460457 0
M  V30 27 C -8.057028 -4.588325 -0.187228 0
M  V30 28 C -9.059730 -3.691677 0.114178 0
M  V30 29 N -10.200210 -4.407154 0.267954 0
M  V30 30 N -9.967289 -5.697080 0.080170 0
M  V30 31 C -8.642049 -5.858349 -0.206648 0
M  V30 32 C -6.143445 -3.273998 -1.060825 0
M  V30 33 C -1.392935 1.171926 -1.412423 0
M  V30 34 S 4.077946 2.389081 -0.134209 0
M  V30 35 C 5.054078 1.876108 1.246040 0
M  V30 36 C 6.491517 2.069924 1.583242 0
M  V30 37 H 7.759408 -1.047905 3.659125 0
M  V30 38 H 9.493444 -0.706001 3.446524 0
M  V30 39 H 8.652988 0.125548 4.775369 0
M  V30 40 H 9.723559 -0.215230 1.721714 0
M  V30 41 H 8.184258 0.129061 0.800296 0
M  V30 42 H 9.350425 1.428023 1.107592 0
M  V30 43 H 6.543511 -0.036694 2.003269 0
M  V30 44 H 6.299775 0.577277 4.615825 0
M  V30 45 H 5.792953 2.151267 4.005536 0
M  V30 46 H 4.672883 -0.562859 3.210096 0
M  V30 47 H 3.850307 0.722139 4.175860 0
M  V30 48 H 1.171751 0.678322 -0.615110 0
M  V30 49 H -2.115089 3.936896 0.353872 0
M  V30 50 H -4.208818 3.603347 -0.795805 0
M  V30 51 H -4.521581 1.696911 -2.363961 0
M  V30 52 H -1.624903 -0.414269 -3.388926 0
M  V30 53 H -3.332071 0.043236 -3.861452 0
M  V30 54 H -2.434212 -2.188102 -2.132422 0
M  V30 55 H -2.911706 -3.910148 -1.198420 0
M  V30 56 H -3.667659 -5.952271 -0.135721 0
M  V30 57 H -6.115606 -6.280079 0.348761 0
M  V30 58 H -8.813542 -2.644871 0.178363 0
M  V30 59 H -10.739935 -6.392648 0.160961 0
M  V30 60 H -8.261985 -6.859999 -0.392624 0
M  V30 61 H -6.909248 -2.523431 -1.310027 0
M  V30 62 H -0.587609 0.474654 -1.590448 0
M  V30 63 H 7.137892 2.058293 0.704196 0
M  V30 64 H 6.635199 3.035368 2.106761 0
M  V30 END ATOM
M  V30 BEGIN BOND
M  V30 1 1 1 2
M  V30 2 1 2 3
M  V30 3 1 2 4
M  V30 4 1 4 5
M  V30 5 1 5 6
M  V30 6 1 6 7
M  V30 7 1 7 8
M  V30 8 2 8 9
M  V30 9 1 9 10
M  V30 10 1 10 11
M  V30 11 2 11 12
M  V30 12 1 11 13
M  V30 13 2 13 14
M  V30 14 1 14 15
M  V30 15 2 15 16
M  V30 16 1 16 17
M  V30 17 1 17 18
M  V30 18 1 18 19
M  V30 19 1 19 20
M  V30 20 2 20 21
M  V30 21 1 20 22
M  V30 22 2 22 23
M  V30 23 1 23 24
M  V30 24 2 24 25
M  V30 25 1 25 26
M  V30 26 1 26 27
M  V30 27 1 27 28
M  V30 28 2 28 29
M  V30 29 1 29 30
M  V30 30 1 30 31
M  V30 31 2 26 32
M  V30 32 2 17 33
M  V30 33 1 9 34
M  V30 34 1 34 35
M  V30 35 1 35 36
M  V30 36 1 36 4
M  V30 37 2 35 7
M  V30 38 1 33 13
M  V30 39 1 32 22
M  V30 40 2 31 27
M  V30 41 1 1 37
M  V30 42 1 1 38
M  V30 43 1 1 39
M  V30 44 1 3 40
M  V30 45 1 3 41
M  V30 46 1 3 42
M  V30 47 1 4 43 CFG=3
M  V30 48 1 5 44
M  V30 49 1 5 45
M  V30 50 1 6 46
M  V30 51 1 6 47
M  V30 52 1 10 48
M  V30 53 1 14 49
M  V30 54 1 15 50
M  V30 55 1 16 51
M  V30 56 1 18 52
M  V30 57 1 18 53
M  V30 58 1 19 54
M  V30 59 1 23 55
M  V30 60 1 24 56
M  V30 61 1 25 57
M  V30 62 1 28 58
M  V30 63 1 30 59
M  V30 64 1 31 60
M  V30 65 1 32 61
M  V30 66 1 33 62
M  V30 67 1 36 63
M  V30 68 1 36 64
M  V30 END BOND
M  V30 END CTAB
M  END
>  <Dataset>  (502) 
ChEMBL_Kinases

>  <Ligand_Instance>  (502) 
nan

>  <PDB_ID>  (502) 
nan

>  <Standardized_SMILES>  (502) 
CN(C)[C@H]1CCc2nc(NC(=O)c3cccc(CNC(=O)c4cccc(-c5cn[nH]c5)c4)c3)sc2C1

>  <Name>  (502) 
nan

>  <Pocket>  (502) 
nan

>  <ATP_Site>  (502) 
nan

>  <Peripheral>  (502) 
nan

>  <Num_H_Atoms_ProtBoundConf>  (502) 
nan

>  <Num_Resolved_Atoms>  (502) 
nan

>  <Num_Not_Resolved_Atoms>  (502) 
nan

$$$$
CHEMBL3680779
     RDKit          3D

  0  0  0  0  0  0  0  0  0  0999 V3000
M  V30 BEGIN CTAB
M  V30 COUNTS 66 71 0 0 0
M  V30 BEGIN ATOM
M  V30 1 N 8.122435 3.391735 7.239520 0
M  V30 2 C 7.375745 3.127178 6.378467 0
M  V30 3 C 6.439141 2.808257 5.311725 0
M  V30 4 C 6.766956 1.739461 4.494999 0
M  V30 5 C 5.917550 1.382357 3.460226 0
M  V30 6 N 4.784111 2.087058 3.269906 0
M  V30 7 C 3.760609 2.001824 2.371104 0
M  V30 8 C 2.815138 2.977666 2.603391 0
M  V30 9 C 1.586230 3.161595 1.813895 0
M  V30 10 O 1.440290 2.342589 0.886395 0
M  V30 11 N 0.687369 4.212538 2.144579 0
M  V30 12 C -0.537302 4.463214 1.424693 0
M  V30 13 C -1.610816 3.494222 1.765632 0
M  V30 14 C -2.411585 3.899327 2.838747 0
M  V30 15 C -3.453421 3.104661 3.274312 0
M  V30 16 C -3.740163 1.896191 2.674915 0
M  V30 17 C -2.935802 1.504917 1.608433 0
M  V30 18 C -3.069497 0.259446 0.834670 0
M  V30 19 O -2.353875 -0.127407 -0.132101 0
M  V30 20 N -4.089668 -0.647538 1.156660 0
M  V30 21 C -3.976235 -1.801512 0.213948 0
M  V30 22 N -3.235427 -2.724667 0.624485 0
M  V30 23 C -3.028914 -3.813735 -0.085825 0
M  V30 24 C -3.695150 -3.912576 -1.376926 0
M  V30 25 S -4.574870 -2.313164 -1.365163 0
M  V30 26 C -3.466078 -5.117094 -2.171762 0
M  V30 27 C -1.992389 -5.463931 -2.287213 0 CFG=1
M  V30 28 N -1.476824 -4.912949 -3.485075 0
M  V30 29 C -1.566931 -3.513878 -3.641909 0
M  V30 30 C -0.365650 -2.924947 -4.315311 0
M  V30 31 O 0.812294 -3.570322 -3.871123 0
M  V30 32 C 0.801334 -4.810539 -4.456868 0
M  V30 33 C -0.403741 -5.599489 -4.086592 0
M  V30 34 C -1.235904 -5.125636 -1.027386 0
M  V30 35 C -2.202050 -5.053322 0.165556 0
M  V30 36 C -1.890689 2.286938 1.160372 0
M  V30 37 N 3.289799 3.655827 3.663785 0
M  V30 38 C 4.461825 3.133799 4.068768 0
M  V30 39 C 5.282290 3.533648 5.123685 0
M  V30 40 H 7.661090 1.123708 4.584500 0
M  V30 41 H 6.124174 0.567507 2.802981 0
M  V30 42 H 3.779692 1.223821 1.602505 0
M  V30 43 H 0.888787 4.857895 2.943424 0
M  V30 44 H -0.280535 4.260200 0.342534 0
M  V30 45 H -0.856803 5.505859 1.448763 0
M  V30 46 H -2.332873 4.814979 3.427571 0
M  V30 47 H -4.123581 3.336339 4.094341 0
M  V30 48 H -4.524842 1.211220 2.940248 0
M  V30 49 H -4.780160 -0.527723 1.904232 0
M  V30 50 H -4.060824 -5.943911 -1.734610 0
M  V30 51 H -3.890937 -4.917627 -3.176582 0
M  V30 52 H -1.963620 -6.576688 -2.374252 0
M  V30 53 H -1.837843 -2.991686 -2.701723 0
M  V30 54 H -2.450644 -3.317957 -4.318988 0
M  V30 55 H -0.241970 -1.851836 -4.116898 0
M  V30 56 H -0.423821 -3.078192 -5.432693 0
M  V30 57 H 0.936546 -4.744253 -5.576264 0
M  V30 58 H 1.710790 -5.395122 -4.130853 0
M  V30 59 H -0.140875 -6.472657 -3.426984 0
M  V30 60 H -0.789176 -6.090897 -5.024393 0
M  V30 61 H -0.681421 -4.191388 -1.048767 0
M  V30 62 H -0.518800 -5.932671 -0.763623 0
M  V30 63 H -2.869720 -5.947953 0.186233 0
M  V30 64 H -1.623685 -4.928555 1.080724 0
M  V30 65 H -1.234633 2.043872 0.344773 0
M  V30 66 H 5.052328 4.357674 5.771422 0
M  V30 END ATOM
M  V30 BEGIN BOND
M  V30 1 3 1 2
M  V30 2 1 2 3
M  V30 3 1 3 4
M  V30 4 2 4 5
M  V30 5 1 5 6
M  V30 6 1 6 7
M  V30 7 2 7 8
M  V30 8 1 8 9
M  V30 9 2 9 10
M  V30 10 1 9 11
M  V30 11 1 11 12
M  V30 12 1 12 13
M  V30 13 2 13 14
M  V30 14 1 14 15
M  V30 15 2 15 16
M  V30 16 1 16 17
M  V30 17 1 17 18
M  V30 18 2 18 19
M  V30 19 1 18 20
M  V30 20 1 20 21
M  V30 21 2 21 22
M  V30 22 1 22 23
M  V30 23 2 23 24
M  V30 24 1 24 25
M  V30 25 1 24 26
M  V30 26 1 26 27
M  V30 27 1 27 28
M  V30 28 1 28 29
M  V30 29 1 29 30
M  V30 30 1 30 31
M  V30 31 1 31 32
M  V30 32 1 32 33
M  V30 33 1 27 34
M  V30 34 1 34 35
M  V30 35 2 17 36
M  V30 36 1 8 37
M  V30 37 2 37 38
M  V30 38 1 38 39
M  V30 39 2 39 3
M  V30 40 1 38 6
M  V30 41 1 36 13
M  V30 42 1 25 21
M  V30 43 1 33 28
M  V30 44 1 35 23
M  V30 45 1 4 40
M  V30 46 1 5 41
M  V30 47 1 7 42
M  V30 48 1 11 43
M  V30 49 1 12 44
M  V30 50 1 12 45
M  V30 51 1 14 46
M  V30 52 1 15 47
M  V30 53 1 16 48
M  V30 54 1 20 49
M  V30 55 1 26 50
M  V30 56 1 26 51
M  V30 57 1 27 52 CFG=3
M  V30 58 1 29 53
M  V30 59 1 29 54
M  V30 60 1 30 55
M  V30 61 1 30 56
M  V30 62 1 32 57
M  V30 63 1 32 58
M  V30 64 1 33 59
M  V30 65 1 33 60
M  V30 66 1 34 61
M  V30 67 1 34 62
M  V30 68 1 35 63
M  V30 69 1 35 64
M  V30 70 1 36 65
M  V30 71 1 39 66
M  V30 END BOND
M  V30 END CTAB
M  END
>  <Dataset>  (503) 
ChEMBL_Kinases

>  <Ligand_Instance>  (503) 
nan

>  <PDB_ID>  (503) 
nan

>  <Standardized_SMILES>  (503) 
N#Cc1ccn2cc(C(=O)NCc3cccc(C(=O)Nc4nc5c(s4)C[C@@H](N4CCOCC4)CC5)c3)nc2c1

>  <Name>  (503) 
nan

>  <Pocket>  (503) 
nan

>  <ATP_Site>  (503) 
nan

>  <Peripheral>  (503) 
nan

>  <Num_H_Atoms_ProtBoundConf>  (503) 
nan

>  <Num_Resolved_Atoms>  (503) 
nan

>  <Num_Not_Resolved_Atoms>  (503) 
nan

$$$$
CHEMBL3680771
     RDKit          3D

  0  0  0  0  0  0  0  0  0  0999 V3000
M  V30 BEGIN CTAB
M  V30 COUNTS 64 68 0 0 0
M  V30 BEGIN ATOM
M  V30 1 C 7.018736 2.635855 4.428226 0
M  V30 2 N 7.412633 1.471776 3.704899 0
M  V30 3 C 7.689598 0.427779 4.686403 0
M  V30 4 C 6.427855 0.981760 2.791327 0 CFG=1
M  V30 5 C 5.131091 0.630638 3.508385 0
M  V30 6 C 4.332687 -0.209819 2.513509 0
M  V30 7 C 3.736822 0.801445 1.565249 0
M  V30 8 N 2.548728 0.985717 1.013296 0
M  V30 9 C 2.259604 1.877135 0.262996 0
M  V30 10 N 0.819313 1.838300 -0.217289 0
M  V30 11 C -0.201834 2.487582 0.477543 0
M  V30 12 O -0.032270 3.146168 1.533829 0
M  V30 13 C -1.551969 2.391021 -0.063592 0
M  V30 14 C -2.565626 3.027225 0.652029 0
M  V30 15 C -3.859164 2.954852 0.166139 0
M  V30 16 C -4.175214 2.285409 -0.983717 0
M  V30 17 C -3.189454 1.645203 -1.713717 0
M  V30 18 C -3.405766 0.875702 -2.987374 0
M  V30 19 N -3.650311 -0.530192 -2.733015 0
M  V30 20 C -4.848608 -1.120197 -2.263369 0
M  V30 21 O -5.829893 -0.348872 -2.033430 0
M  V30 22 C -5.010483 -2.545315 -2.034570 0
M  V30 23 C -4.012249 -3.455162 -2.263433 0
M  V30 24 C -4.240010 -4.800289 -2.021979 0
M  V30 25 C -5.442963 -5.304080 -1.551202 0
M  V30 26 N -5.571848 -6.703997 -1.336685 0
M  V30 27 C -4.521128 -7.538034 -1.098416 0
M  V30 28 C -5.006129 -8.838064 -0.935215 0
M  V30 29 N -6.333630 -8.764929 -1.077304 0
M  V30 30 C -6.666101 -7.473023 -1.319351 0
M  V30 31 C -6.429603 -4.394305 -1.326050 0
M  V30 32 C -6.202573 -3.044541 -1.567830 0
M  V30 33 C -1.895875 1.722854 -1.219560 0
M  V30 34 S 3.798903 2.845134 0.100103 0
M  V30 35 C 4.735531 1.701800 1.261286 0
M  V30 36 C 6.129556 1.862634 1.634347 0
M  V30 37 H 6.228840 2.445871 5.188686 0
M  V30 38 H 6.713903 3.468905 3.799589 0
M  V30 39 H 7.895887 2.995192 5.038943 0
M  V30 40 H 7.455607 -0.586891 4.322496 0
M  V30 41 H 7.101336 0.630682 5.613771 0
M  V30 42 H 8.763603 0.495740 4.930987 0
M  V30 43 H 6.780726 -0.001058 2.352961 0
M  V30 44 H 5.279086 0.030082 4.414311 0
M  V30 45 H 4.528450 1.546937 3.712373 0
M  V30 46 H 5.040709 -0.807586 1.942800 0
M  V30 47 H 3.546958 -0.768223 3.052990 0
M  V30 48 H 0.780953 1.286003 -1.072804 0
M  V30 49 H -2.404752 3.574411 1.563924 0
M  V30 50 H -4.677596 3.436911 0.693877 0
M  V30 51 H -5.182030 2.225909 -1.370966 0
M  V30 52 H -2.537238 1.017395 -3.640921 0
M  V30 53 H -4.262612 1.354544 -3.506236 0
M  V30 54 H -2.849100 -1.176554 -2.918194 0
M  V30 55 H -3.056219 -3.167651 -2.624110 0
M  V30 56 H -3.429131 -5.518206 -2.210666 0
M  V30 57 H -3.449967 -7.315035 -1.029663 0
M  V30 58 H -4.440339 -9.733457 -0.734500 0
M  V30 59 H -7.665058 -7.137503 -1.471576 0
M  V30 60 H -7.388373 -4.730747 -0.958340 0
M  V30 61 H -7.039396 -2.388437 -1.362401 0
M  V30 62 H -1.120264 1.234626 -1.769113 0
M  V30 63 H 6.770471 1.582321 0.745275 0
M  V30 64 H 6.427658 2.895268 1.877753 0
M  V30 END ATOM
M  V30 BEGIN BOND
M  V30 1 1 1 2
M  V30 2 1 2 3
M  V30 3 1 2 4
M  V30 4 1 4 5
M  V30 5 1 5 6
M  V30 6 1 6 7
M  V30 7 1 7 8
M  V30 8 2 8 9
M  V30 9 1 9 10
M  V30 10 1 10 11
M  V30 11 2 11 12
M  V30 12 1 11 13
M  V30 13 2 13 14
M  V30 14 1 14 15
M  V30 15 2 15 16
M  V30 16 1 16 17
M  V30 17 1 17 18
M  V30 18 1 18 19
M  V30 19 1 19 20
M  V30 20 2 20 21
M  V30 21 1 20 22
M  V30 22 2 22 23
M  V30 23 1 23 24
M  V30 24 2 24 25
M  V30 25 1 25 26
M  V30 26 1 26 27
M  V30 27 2 27 28
M  V30 28 1 28 29
M  V30 29 2 29 30
M  V30 30 1 25 31
M  V30 31 2 31 32
M  V30 32 2 17 33
M  V30 33 1 9 34
M  V30 34 1 34 35
M  V30 35 1 35 36
M  V30 36 1 36 4
M  V30 37 2 35 7
M  V30 38 1 33 13
M  V30 39 1 32 22
M  V30 40 1 30 26
M  V30 41 1 1 37
M  V30 42 1 1 38
M  V30 43 1 1 39
M  V30 44 1 3 40
M  V30 45 1 3 41
M  V30 46 1 3 42
M  V30 47 1 4 43 CFG=3
M  V30 48 1 5 44
M  V30 49 1 5 45
M  V30 50 1 6 46
M  V30 51 1 6 47
M  V30 52 1 10 48
M  V30 53 1 14 49
M  V30 54 1 15 50
M  V30 55 1 16 51
M  V30 56 1 18 52
M  V30 57 1 18 53
M  V30 58 1 19 54
M  V30 59 1 23 55
M  V30 60 1 24 56
M  V30 61 1 27 57
M  V30 62 1 28 58
M  V30 63 1 30 59
M  V30 64 1 31 60
M  V30 65 1 32 61
M  V30 66 1 33 62
M  V30 67 1 36 63
M  V30 68 1 36 64
M  V30 END BOND
M  V30 END CTAB
M  END
>  <Dataset>  (504) 
ChEMBL_Kinases

>  <Ligand_Instance>  (504) 
nan

>  <PDB_ID>  (504) 
nan

>  <Standardized_SMILES>  (504) 
CN(C)[C@H]1CCc2nc(NC(=O)c3cccc(CNC(=O)c4ccc(-n5ccnc5)cc4)c3)sc2C1

>  <Name>  (504) 
nan

>  <Pocket>  (504) 
nan

>  <ATP_Site>  (504) 
nan

>  <Peripheral>  (504) 
nan

>  <Num_H_Atoms_ProtBoundConf>  (504) 
nan

>  <Num_Resolved_Atoms>  (504) 
nan

>  <Num_Not_Resolved_Atoms>  (504) 
nan

$$$$
CHEMBL3680772
     RDKit          3D

  0  0  0  0  0  0  0  0  0  0999 V3000
M  V30 BEGIN CTAB
M  V30 COUNTS 63 67 0 0 0
M  V30 BEGIN ATOM
M  V30 1 C 5.976294 0.755039 6.405272 0
M  V30 2 N 5.919006 1.847647 5.459085 0
M  V30 3 C 7.250579 2.040335 4.954964 0
M  V30 4 C 4.954219 1.590869 4.405803 0 CFG=1
M  V30 5 C 3.583245 1.402332 5.018210 0
M  V30 6 C 2.707934 0.631485 4.057296 0
M  V30 7 C 2.620382 1.455995 2.793093 0
M  V30 8 N 1.663860 1.392765 1.863712 0
M  V30 9 C 1.652571 2.090823 0.864175 0
M  V30 10 N 0.486119 1.897443 -0.100991 0
M  V30 11 C -0.721468 2.595153 -0.045287 0
M  V30 12 O -0.991442 3.472628 0.812387 0
M  V30 13 C -1.715566 2.265821 -1.057253 0
M  V30 14 C -2.911714 2.980346 -0.965750 0
M  V30 15 C -3.913781 2.710071 -1.907613 0
M  V30 16 C -3.725040 1.766379 -2.895984 0
M  V30 17 C -2.547992 1.053367 -2.997414 0
M  V30 18 C -2.227126 0.008474 -4.011200 0
M  V30 19 N -2.562273 -1.326100 -3.582979 0
M  V30 20 C -3.848423 -1.921294 -3.535113 0
M  V30 21 O -4.772493 -1.152601 -3.923396 0
M  V30 22 C -4.130055 -3.264218 -3.096102 0
M  V30 23 C -3.101553 -4.052462 -2.688979 0
M  V30 24 C -3.371362 -5.354514 -2.262683 0
M  V30 25 C -4.660935 -5.858552 -2.245782 0
M  V30 26 C -4.943177 -7.218143 -1.800620 0
M  V30 27 C -3.985024 -8.104860 -1.368310 0
M  V30 28 N -4.563821 -9.290006 -1.021661 0
M  V30 29 C -5.864727 -9.092949 -1.252907 0
M  V30 30 O -6.083908 -7.867439 -1.713079 0
M  V30 31 C -5.649329 -5.001227 -2.672252 0
M  V30 32 C -5.434188 -3.708693 -3.102051 0
M  V30 33 C -1.550618 1.328680 -2.052835 0
M  V30 34 S 3.110973 3.096686 0.994344 0
M  V30 35 C 3.645053 2.371345 2.589148 0
M  V30 36 C 4.832128 2.686543 3.406618 0
M  V30 37 H 5.897789 -0.235013 5.909802 0
M  V30 38 H 5.244785 0.848763 7.240548 0
M  V30 39 H 6.976142 0.781519 6.882157 0
M  V30 40 H 7.791234 2.808901 5.565202 0
M  V30 41 H 7.867715 1.115048 5.082562 0
M  V30 42 H 7.252354 2.339487 3.905756 0
M  V30 43 H 5.224537 0.648847 3.893596 0
M  V30 44 H 3.105700 2.336873 5.320600 0
M  V30 45 H 3.698327 0.759748 5.914772 0
M  V30 46 H 3.093720 -0.369680 3.859368 0
M  V30 47 H 1.719632 0.523798 4.550819 0
M  V30 48 H 0.818615 1.174501 -0.739483 0
M  V30 49 H -3.146092 3.739581 -0.221970 0
M  V30 50 H -4.870138 3.222785 -1.903320 0
M  V30 51 H -4.485730 1.547023 -3.631471 0
M  V30 52 H -1.157316 0.120930 -4.262931 0
M  V30 53 H -2.786635 0.256490 -4.940010 0
M  V30 54 H -1.741723 -1.909921 -3.273797 0
M  V30 55 H -2.070511 -3.809522 -2.645831 0
M  V30 56 H -2.599933 -6.042232 -1.923152 0
M  V30 57 H -2.910130 -7.955355 -1.287670 0
M  V30 58 H -6.583856 -9.877488 -1.065056 0
M  V30 59 H -6.683535 -5.348630 -2.678855 0
M  V30 60 H -6.223894 -3.048215 -3.434047 0
M  V30 61 H -0.615897 0.788259 -2.103576 0
M  V30 62 H 5.681448 2.790030 2.702573 0
M  V30 63 H 4.721580 3.633734 3.979844 0
M  V30 END ATOM
M  V30 BEGIN BOND
M  V30 1 1 1 2
M  V30 2 1 2 3
M  V30 3 1 2 4
M  V30 4 1 4 5
M  V30 5 1 5 6
M  V30 6 1 6 7
M  V30 7 1 7 8
M  V30 8 2 8 9
M  V30 9 1 9 10
M  V30 10 1 10 11
M  V30 11 2 11 12
M  V30 12 1 11 13
M  V30 13 2 13 14
M  V30 14 1 14 15
M  V30 15 2 15 16
M  V30 16 1 16 17
M  V30 17 1 17 18
M  V30 18 1 18 19
M  V30 19 1 19 20
M  V30 20 2 20 21
M  V30 21 1 20 22
M  V30 22 2 22 23
M  V30 23 1 23 24
M  V30 24 2 24 25
M  V30 25 1 25 26
M  V30 26 2 26 27
M  V30 27 1 27 28
M  V30 28 2 28 29
M  V30 29 1 29 30
M  V30 30 1 25 31
M  V30 31 2 31 32
M  V30 32 2 17 33
M  V30 33 1 9 34
M  V30 34 1 34 35
M  V30 35 1 35 36
M  V30 36 1 36 4
M  V30 37 2 35 7
M  V30 38 1 33 13
M  V30 39 1 32 22
M  V30 40 1 30 26
M  V30 41 1 1 37
M  V30 42 1 1 38
M  V30 43 1 1 39
M  V30 44 1 3 40
M  V30 45 1 3 41
M  V30 46 1 3 42
M  V30 47 1 4 43 CFG=3
M  V30 48 1 5 44
M  V30 49 1 5 45
M  V30 50 1 6 46
M  V30 51 1 6 47
M  V30 52 1 10 48
M  V30 53 1 14 49
M  V30 54 1 15 50
M  V30 55 1 16 51
M  V30 56 1 18 52
M  V30 57 1 18 53
M  V30 58 1 19 54
M  V30 59 1 23 55
M  V30 60 1 24 56
M  V30 61 1 27 57
M  V30 62 1 29 58
M  V30 63 1 31 59
M  V30 64 1 32 60
M  V30 65 1 33 61
M  V30 66 1 36 62
M  V30 67 1 36 63
M  V30 END BOND
M  V30 END CTAB
M  END
>  <Dataset>  (505) 
ChEMBL_Kinases

>  <Ligand_Instance>  (505) 
nan

>  <PDB_ID>  (505) 
nan

>  <Standardized_SMILES>  (505) 
CN(C)[C@H]1CCc2nc(NC(=O)c3cccc(CNC(=O)c4ccc(-c5cnco5)cc4)c3)sc2C1

>  <Name>  (505) 
nan

>  <Pocket>  (505) 
nan

>  <ATP_Site>  (505) 
nan

>  <Peripheral>  (505) 
nan

>  <Num_H_Atoms_ProtBoundConf>  (505) 
nan

>  <Num_Resolved_Atoms>  (505) 
nan

>  <Num_Not_Resolved_Atoms>  (505) 
nan

$$$$
CHEMBL3680773
     RDKit          3D

  0  0  0  0  0  0  0  0  0  0999 V3000
M  V30 BEGIN CTAB
M  V30 COUNTS 70 75 0 0 0
M  V30 BEGIN ATOM
M  V30 1 C 4.139106 -8.984632 -3.506557 0
M  V30 2 N 2.925051 -8.736925 -2.828511 0
M  V30 3 C 2.431976 -9.736340 -1.955289 0
M  V30 4 C 2.519055 -7.405500 -2.622785 0 CFG=1
M  V30 5 C 3.561719 -6.671798 -1.817620 0
M  V30 6 C 4.080096 -5.431897 -2.543761 0
M  V30 7 C 2.853815 -4.577934 -2.740772 0
M  V30 8 N 2.637163 -3.348364 -2.337998 0
M  V30 9 C 1.637347 -2.737281 -2.532825 0
M  V30 10 N 1.082093 -1.406642 -2.242141 0
M  V30 11 C 2.006213 -0.627695 -1.538261 0
M  V30 12 O 3.146083 -1.060968 -1.223501 0
M  V30 13 C 1.689916 0.736966 -1.131896 0
M  V30 14 C 2.640765 1.471343 -0.454957 0
M  V30 15 C 2.465309 2.769197 -0.018031 0
M  V30 16 C 1.244372 3.328917 -0.298000 0
M  V30 17 C 0.238506 2.675588 -0.965211 0
M  V30 18 C -1.107168 3.190143 -1.308150 0
M  V30 19 N -2.072857 2.887850 -0.277071 0
M  V30 20 C -2.253856 3.528443 0.969171 0
M  V30 21 O -1.434900 4.475936 1.133050 0
M  V30 22 C -3.285122 3.076731 1.882073 0
M  V30 23 N -4.149358 2.080042 1.644234 0
M  V30 24 N -4.936958 1.949937 2.671218 0
M  V30 25 N -4.646022 2.828833 3.620945 0
M  V30 26 C -5.362517 2.876228 4.849152 0
M  V30 27 N -5.246089 3.649262 5.938352 0
M  V30 28 O -6.127685 3.316018 6.828614 0
M  V30 29 N -6.851210 2.340501 6.397173 0
M  V30 30 C -6.408976 2.033203 5.165402 0
M  V30 31 N -7.016547 0.975803 4.410899 0
M  V30 32 C -3.612078 3.541853 3.138809 0
M  V30 33 C -2.953748 4.591026 3.848889 0
M  V30 34 C -1.580515 4.664031 4.072292 0
M  V30 35 C -1.017256 5.747840 4.753557 0
M  V30 36 C -1.786810 6.766133 5.221597 0
M  V30 37 C -3.149528 6.708414 5.008262 0
M  V30 38 C -3.709447 5.638687 4.334817 0
M  V30 39 C 0.475951 1.361923 -1.383371 0
M  V30 40 S 0.578569 -3.936353 -3.488058 0
M  V30 41 C 1.821774 -5.218737 -3.457731 0
M  V30 42 C 2.164117 -6.626718 -3.876534 0
M  V30 43 H 4.487755 -8.048470 -3.968988 0
M  V30 44 H 4.917825 -9.260649 -2.755939 0
M  V30 45 H 4.114833 -9.834263 -4.214709 0
M  V30 46 H 1.725698 -9.244489 -1.222890 0
M  V30 47 H 3.261940 -10.118345 -1.326779 0
M  V30 48 H 1.927429 -10.589536 -2.451193 0
M  V30 49 H 1.542787 -7.455405 -2.054959 0
M  V30 50 H 3.078651 -6.280418 -0.899927 0
M  V30 51 H 4.381050 -7.327391 -1.463319 0
M  V30 52 H 4.809496 -4.975280 -1.857222 0
M  V30 53 H 4.475721 -5.637105 -3.540659 0
M  V30 54 H 0.151089 -1.106735 -2.520342 0
M  V30 55 H 3.626731 1.044723 -0.217921 0
M  V30 56 H 3.222259 3.328160 0.510420 0
M  V30 57 H 1.037496 4.342411 0.008840 0
M  V30 58 H -1.423613 2.785738 -2.291537 0
M  V30 59 H -1.014010 4.291246 -1.468251 0
M  V30 60 H -2.726835 2.076622 -0.493273 0
M  V30 61 H -6.510180 0.091865 4.645562 0
M  V30 62 H -7.803926 0.927055 3.728226 0
M  V30 63 H -0.945430 3.866073 3.719420 0
M  V30 64 H 0.067411 5.707336 4.875019 0
M  V30 65 H -1.269300 7.571050 5.741772 0
M  V30 66 H -3.699532 7.559140 5.411740 0
M  V30 67 H -4.780747 5.763053 4.249205 0
M  V30 68 H -0.273185 0.784252 -1.916154 0
M  V30 69 H 2.980472 -6.535747 -4.591984 0
M  V30 70 H 1.289534 -7.062280 -4.355125 0
M  V30 END ATOM
M  V30 BEGIN BOND
M  V30 1 1 1 2
M  V30 2 1 2 3
M  V30 3 1 2 4
M  V30 4 1 4 5
M  V30 5 1 5 6
M  V30 6 1 6 7
M  V30 7 1 7 8
M  V30 8 2 8 9
M  V30 9 1 9 10
M  V30 10 1 10 11
M  V30 11 2 11 12
M  V30 12 1 11 13
M  V30 13 2 13 14
M  V30 14 1 14 15
M  V30 15 2 15 16
M  V30 16 1 16 17
M  V30 17 1 17 18
M  V30 18 1 18 19
M  V30 19 1 19 20
M  V30 20 2 20 21
M  V30 21 1 20 22
M  V30 22 1 22 23
M  V30 23 2 23 24
M  V30 24 1 24 25
M  V30 25 1 25 26
M  V30 26 2 26 27
M  V30 27 1 27 28
M  V30 28 1 28 29
M  V30 29 2 29 30
M  V30 30 1 30 31
M  V30 31 1 25 32
M  V30 32 1 32 33
M  V30 33 2 33 34
M  V30 34 1 34 35
M  V30 35 2 35 36
M  V30 36 1 36 37
M  V30 37 2 37 38
M  V30 38 2 17 39
M  V30 39 1 9 40
M  V30 40 1 40 41
M  V30 41 1 41 42
M  V30 42 1 42 4
M  V30 43 2 41 7
M  V30 44 1 39 13
M  V30 45 2 32 22
M  V30 46 1 38 33
M  V30 47 1 30 26
M  V30 48 1 1 43
M  V30 49 1 1 44
M  V30 50 1 1 45
M  V30 51 1 3 46
M  V30 52 1 3 47
M  V30 53 1 3 48
M  V30 54 1 4 49 CFG=1
M  V30 55 1 5 50
M  V30 56 1 5 51
M  V30 57 1 6 52
M  V30 58 1 6 53
M  V30 59 1 10 54
M  V30 60 1 14 55
M  V30 61 1 15 56
M  V30 62 1 16 57
M  V30 63 1 18 58
M  V30 64 1 18 59
M  V30 65 1 19 60
M  V30 66 1 31 61
M  V30 67 1 31 62
M  V30 68 1 34 63
M  V30 69 1 35 64
M  V30 70 1 36 65
M  V30 71 1 37 66
M  V30 72 1 38 67
M  V30 73 1 39 68
M  V30 74 1 42 69
M  V30 75 1 42 70
M  V30 END BOND
M  V30 END CTAB
M  END
>  <Dataset>  (506) 
ChEMBL_Kinases

>  <Ligand_Instance>  (506) 
nan

>  <PDB_ID>  (506) 
nan

>  <Standardized_SMILES>  (506) 
CN(C)[C@H]1CCc2nc(NC(=O)c3cccc(CNC(=O)c4nnn(-c5nonc5N)c4-c4ccccc4)c3)sc2C1

>  <Name>  (506) 
nan

>  <Pocket>  (506) 
nan

>  <ATP_Site>  (506) 
nan

>  <Peripheral>  (506) 
nan

>  <Num_H_Atoms_ProtBoundConf>  (506) 
nan

>  <Num_Resolved_Atoms>  (506) 
nan

>  <Num_Not_Resolved_Atoms>  (506) 
nan

$$$$
CHEMBL3680774
     RDKit          3D

  0  0  0  0  0  0  0  0  0  0999 V3000
M  V30 BEGIN CTAB
M  V30 COUNTS 62 66 0 0 0
M  V30 BEGIN ATOM
M  V30 1 C 6.102898 2.126781 5.205042 0
M  V30 2 N 6.218433 1.559560 3.878987 0
M  V30 3 C 6.898786 0.287551 3.980345 0
M  V30 4 C 4.980314 1.462713 3.164377 0 CFG=1
M  V30 5 C 3.936553 0.619346 3.843516 0
M  V30 6 C 2.569807 1.251548 3.816925 0
M  V30 7 C 2.204633 1.715496 2.432395 0
M  V30 8 N 1.119104 1.420896 1.728008 0
M  V30 9 C 1.152533 2.057025 0.474887 0
M  V30 10 N 0.027250 1.800511 -0.356641 0
M  V30 11 C -1.198743 2.512930 -0.459611 0
M  V30 12 O -1.424697 3.532824 0.240148 0
M  V30 13 C -2.243570 2.086754 -1.383226 0
M  V30 14 C -3.404144 2.845771 -1.435909 0
M  V30 15 C -4.429525 2.483610 -2.297512 0
M  V30 16 C -4.356555 1.383070 -3.124918 0
M  V30 17 C -3.201254 0.623840 -3.075396 0
M  V30 18 C -2.948185 -0.600727 -3.897966 0
M  V30 19 N -3.390829 -1.802802 -3.223926 0
M  V30 20 C -4.709312 -2.301360 -3.061910 0
M  V30 21 O -5.626430 -1.610825 -3.571831 0
M  V30 22 C -4.976631 -3.541815 -2.345518 0
M  V30 23 C -6.346176 -4.009901 -2.226169 0
M  V30 24 S -6.166519 -5.539418 -1.279959 0
M  V30 25 C -4.284214 -5.321669 -1.186434 0
M  V30 26 C -3.437562 -6.311542 -0.485897 0
M  V30 27 C -2.079746 -6.109498 -0.443781 0
M  V30 28 C -1.318276 -7.049493 0.216824 0
M  V30 29 N -1.841636 -8.152103 0.820250 0
M  V30 30 C -3.175531 -8.310031 0.754362 0
M  V30 31 C -4.007414 -7.419610 0.115229 0
M  V30 32 N -4.094427 -4.340127 -1.757278 0
M  V30 33 C -2.161988 0.984008 -2.207680 0
M  V30 34 S 2.626400 2.982050 0.364264 0
M  V30 35 C 3.251118 2.566403 1.959046 0
M  V30 36 C 4.417829 2.840530 2.793326 0
M  V30 37 H 5.886157 1.362522 5.964265 0
M  V30 38 H 5.422826 3.009364 5.233705 0
M  V30 39 H 7.106056 2.556828 5.496920 0
M  V30 40 H 7.461473 0.042716 3.052772 0
M  V30 41 H 7.559614 0.305300 4.859545 0
M  V30 42 H 6.121189 -0.498872 4.091787 0
M  V30 43 H 5.216598 0.989923 2.189463 0
M  V30 44 H 4.213099 0.527761 4.912896 0
M  V30 45 H 3.904129 -0.382204 3.387547 0
M  V30 46 H 1.860791 0.465715 4.138030 0
M  V30 47 H 2.477761 2.088860 4.540998 0
M  V30 48 H 0.236144 0.952123 -0.927545 0
M  V30 49 H -3.607337 3.741053 -0.843368 0
M  V30 50 H -5.356935 3.041034 -2.378413 0
M  V30 51 H -5.129312 1.075365 -3.802845 0
M  V30 52 H -1.898691 -0.704022 -4.181745 0
M  V30 53 H -3.526513 -0.494754 -4.842854 0
M  V30 54 H -2.642721 -2.415485 -2.779178 0
M  V30 55 H -7.258088 -3.509790 -2.637702 0
M  V30 56 H -1.714737 -5.237303 -0.926966 0
M  V30 57 H -0.246266 -6.829625 0.213733 0
M  V30 58 H -3.590775 -9.202190 1.243473 0
M  V30 59 H -5.078627 -7.550066 0.064092 0
M  V30 60 H -1.261006 0.391389 -2.169817 0
M  V30 61 H 5.188523 3.280512 2.133553 0
M  V30 62 H 4.173173 3.449309 3.684993 0
M  V30 END ATOM
M  V30 BEGIN BOND
M  V30 1 1 1 2
M  V30 2 1 2 3
M  V30 3 1 2 4
M  V30 4 1 4 5
M  V30 5 1 5 6
M  V30 6 1 6 7
M  V30 7 1 7 8
M  V30 8 2 8 9
M  V30 9 1 9 10
M  V30 10 1 10 11
M  V30 11 2 11 12
M  V30 12 1 11 13
M  V30 13 2 13 14
M  V30 14 1 14 15
M  V30 15 2 15 16
M  V30 16 1 16 17
M  V30 17 1 17 18
M  V30 18 1 18 19
M  V30 19 1 19 20
M  V30 20 2 20 21
M  V30 21 1 20 22
M  V30 22 2 22 23
M  V30 23 1 23 24
M  V30 24 1 24 25
M  V30 25 1 25 26
M  V30 26 2 26 27
M  V30 27 1 27 28
M  V30 28 2 28 29
M  V30 29 1 29 30
M  V30 30 2 30 31
M  V30 31 2 25 32
M  V30 32 2 17 33
M  V30 33 1 9 34
M  V30 34 1 34 35
M  V30 35 1 35 36
M  V30 36 1 36 4
M  V30 37 2 35 7
M  V30 38 1 33 13
M  V30 39 1 32 22
M  V30 40 1 31 26
M  V30 41 1 1 37
M  V30 42 1 1 38
M  V30 43 1 1 39
M  V30 44 1 3 40
M  V30 45 1 3 41
M  V30 46 1 3 42
M  V30 47 1 4 43 CFG=3
M  V30 48 1 5 44
M  V30 49 1 5 45
M  V30 50 1 6 46
M  V30 51 1 6 47
M  V30 52 1 10 48
M  V30 53 1 14 49
M  V30 54 1 15 50
M  V30 55 1 16 51
M  V30 56 1 18 52
M  V30 57 1 18 53
M  V30 58 1 19 54
M  V30 59 1 23 55
M  V30 60 1 27 56
M  V30 61 1 28 57
M  V30 62 1 30 58
M  V30 63 1 31 59
M  V30 64 1 33 60
M  V30 65 1 36 61
M  V30 66 1 36 62
M  V30 END BOND
M  V30 END CTAB
M  END
>  <Dataset>  (507) 
ChEMBL_Kinases

>  <Ligand_Instance>  (507) 
nan

>  <PDB_ID>  (507) 
nan

>  <Standardized_SMILES>  (507) 
CN(C)[C@H]1CCc2nc(NC(=O)c3cccc(CNC(=O)c4csc(-c5ccncc5)n4)c3)sc2C1

>  <Name>  (507) 
nan

>  <Pocket>  (507) 
nan

>  <ATP_Site>  (507) 
nan

>  <Peripheral>  (507) 
nan

>  <Num_H_Atoms_ProtBoundConf>  (507) 
nan

>  <Num_Resolved_Atoms>  (507) 
nan

>  <Num_Not_Resolved_Atoms>  (507) 
nan

$$$$
CHEMBL3680775
     RDKit          3D

  0  0  0  0  0  0  0  0  0  0999 V3000
M  V30 BEGIN CTAB
M  V30 COUNTS 63 67 0 0 0
M  V30 BEGIN ATOM
M  V30 1 C -0.814621 1.829964 4.449762 0
M  V30 2 C -0.109959 1.132835 5.554183 0
M  V30 3 C 1.086820 0.498334 5.486486 0
M  V30 4 C 1.986021 0.342664 4.351878 0
M  V30 5 O 1.713994 0.882851 3.252071 0
M  V30 6 N 3.176312 -0.416741 4.465200 0
M  V30 7 C 4.193671 -0.681299 3.441893 0
M  V30 8 C 3.612408 -1.693798 2.520493 0
M  V30 9 C 3.748984 -3.010351 2.901592 0
M  V30 10 C 3.231138 -3.996850 2.083177 0
M  V30 11 C 2.597835 -3.605296 0.913850 0
M  V30 12 C 2.485454 -2.268783 0.573302 0
M  V30 13 C 1.783280 -2.084110 -0.683590 0
M  V30 14 O 1.182163 -2.982020 -1.313713 0
M  V30 15 N 1.816309 -0.776547 -1.187261 0
M  V30 16 C 1.082048 -0.647824 -2.481877 0
M  V30 17 N 1.072754 -0.671911 -3.664610 0
M  V30 18 C -0.002699 -0.461802 -4.420808 0
M  V30 19 C -1.199741 -0.196632 -3.796981 0
M  V30 20 S -0.644902 -0.274016 -1.989392 0
M  V30 21 C -2.358892 0.025996 -4.699792 0
M  V30 22 C -2.471722 -1.205840 -5.560634 0 CFG=1
M  V30 23 N -3.661058 -1.195331 -6.385680 0
M  V30 24 C -4.808268 -1.135198 -5.498363 0
M  V30 25 C -3.749952 -2.487174 -7.058723 0
M  V30 26 C -1.216030 -1.278760 -6.386022 0
M  V30 27 C -0.085788 -0.462309 -5.901295 0
M  V30 28 C 2.989568 -1.272411 1.366496 0
M  V30 29 N 1.297655 0.028313 6.723071 0
M  V30 30 N 0.290036 0.352304 7.512442 0
M  V30 31 N -0.606848 1.047834 6.796673 0
M  V30 32 C -1.794231 1.530099 7.381978 0
M  V30 33 N -2.813852 2.238399 6.848830 0
M  V30 34 O -3.732107 2.483930 7.742615 0
M  V30 35 N -3.371001 1.961634 8.881695 0
M  V30 36 C -2.170117 1.360833 8.692236 0
M  V30 37 N -1.521807 0.703502 9.761116 0
M  V30 38 H -0.565803 2.907291 4.388549 0
M  V30 39 H -0.561968 1.345528 3.459843 0
M  V30 40 H -1.921877 1.703417 4.582911 0
M  V30 41 H 3.326114 -0.841354 5.427960 0
M  V30 42 H 5.078532 -1.069373 3.949092 0
M  V30 43 H 4.449310 0.272562 2.918362 0
M  V30 44 H 4.243161 -3.313921 3.813656 0
M  V30 45 H 3.320227 -5.039098 2.352918 0
M  V30 46 H 2.210175 -4.444967 0.313370 0
M  V30 47 H 2.220865 0.109221 -0.914323 0
M  V30 48 H -3.266642 0.265509 -4.128036 0
M  V30 49 H -2.084744 0.872629 -5.359381 0
M  V30 50 H -2.539651 -2.145993 -4.954885 0
M  V30 51 H -5.161292 -0.095888 -5.362857 0
M  V30 52 H -5.666901 -1.721954 -5.898411 0
M  V30 53 H -4.519122 -1.645934 -4.563154 0
M  V30 54 H -3.121093 -2.505776 -7.989695 0
M  V30 55 H -3.373431 -3.268324 -6.361202 0
M  V30 56 H -4.795953 -2.737989 -7.296278 0
M  V30 57 H -0.853687 -2.345053 -6.502556 0
M  V30 58 H -1.427775 -0.961915 -7.435770 0
M  V30 59 H 0.841556 -0.875363 -6.394892 0
M  V30 60 H -0.151979 0.583845 -6.273761 0
M  V30 61 H 2.874708 -0.252072 1.048558 0
M  V30 62 H -1.048674 0.991226 10.664190 0
M  V30 63 H -1.372378 -0.333308 9.863785 0
M  V30 END ATOM
M  V30 BEGIN BOND
M  V30 1 1 1 2
M  V30 2 2 2 3
M  V30 3 1 3 4
M  V30 4 2 4 5
M  V30 5 1 4 6
M  V30 6 1 6 7
M  V30 7 1 7 8
M  V30 8 2 8 9
M  V30 9 1 9 10
M  V30 10 2 10 11
M  V30 11 1 11 12
M  V30 12 1 12 13
M  V30 13 2 13 14
M  V30 14 1 13 15
M  V30 15 1 15 16
M  V30 16 2 16 17
M  V30 17 1 17 18
M  V30 18 2 18 19
M  V30 19 1 19 20
M  V30 20 1 19 21
M  V30 21 1 21 22
M  V30 22 1 22 23
M  V30 23 1 23 24
M  V30 24 1 23 25
M  V30 25 1 22 26
M  V30 26 1 26 27
M  V30 27 2 12 28
M  V30 28 1 3 29
M  V30 29 2 29 30
M  V30 30 1 30 31
M  V30 31 1 31 32
M  V30 32 2 32 33
M  V30 33 1 33 34
M  V30 34 1 34 35
M  V30 35 2 35 36
M  V30 36 1 36 37
M  V30 37 1 31 2
M  V30 38 1 36 32
M  V30 39 1 28 8
M  V30 40 1 20 16
M  V30 41 1 27 18
M  V30 42 1 1 38
M  V30 43 1 1 39
M  V30 44 1 1 40
M  V30 45 1 6 41
M  V30 46 1 7 42
M  V30 47 1 7 43
M  V30 48 1 9 44
M  V30 49 1 10 45
M  V30 50 1 11 46
M  V30 51 1 15 47
M  V30 52 1 21 48
M  V30 53 1 21 49
M  V30 54 1 22 50 CFG=1
M  V30 55 1 24 51
M  V30 56 1 24 52
M  V30 57 1 24 53
M  V30 58 1 25 54
M  V30 59 1 25 55
M  V30 60 1 25 56
M  V30 61 1 26 57
M  V30 62 1 26 58
M  V30 63 1 27 59
M  V30 64 1 27 60
M  V30 65 1 28 61
M  V30 66 1 37 62
M  V30 67 1 37 63
M  V30 END BOND
M  V30 END CTAB
M  END
>  <Dataset>  (508) 
ChEMBL_Kinases

>  <Ligand_Instance>  (508) 
nan

>  <PDB_ID>  (508) 
nan

>  <Standardized_SMILES>  (508) 
Cc1c(C(=O)NCc2cccc(C(=O)Nc3nc4c(s3)C[C@@H](N(C)C)CC4)c2)nnn1-c1nonc1N

>  <Name>  (508) 
nan

>  <Pocket>  (508) 
nan

>  <ATP_Site>  (508) 
nan

>  <Peripheral>  (508) 
nan

>  <Num_H_Atoms_ProtBoundConf>  (508) 
nan

>  <Num_Resolved_Atoms>  (508) 
nan

>  <Num_Not_Resolved_Atoms>  (508) 
nan

$$$$
CHEMBL3680776
     RDKit          3D

  0  0  0  0  0  0  0  0  0  0999 V3000
M  V30 BEGIN CTAB
M  V30 COUNTS 63 67 0 0 0
M  V30 BEGIN ATOM
M  V30 1 C 1.411242 -1.737832 5.341966 0
M  V30 2 C 2.419886 -0.912647 4.630915 0
M  V30 3 C 2.139675 -0.300689 3.431476 0
M  V30 4 C 3.063321 0.497368 2.745174 0
M  V30 5 C 2.535822 1.038790 1.499817 0
M  V30 6 C 2.970044 2.301536 1.107000 0
M  V30 7 C 2.471033 2.880780 -0.073065 0
M  V30 8 C 1.541120 2.074473 -0.749536 0
M  V30 9 C 1.021418 2.951811 -1.850414 0
M  V30 10 O 1.432518 3.693600 -2.736757 0
M  V30 11 N -0.455030 3.002995 -1.938867 0
M  V30 12 C -1.918978 3.060613 -2.034174 0
M  V30 13 C -2.447297 3.001013 -0.609464 0
M  V30 14 C -2.808825 3.827159 0.399155 0
M  V30 15 C -3.170247 3.369954 1.638188 0
M  V30 16 C -3.198696 2.032019 1.964791 0
M  V30 17 C -2.848041 1.138381 0.998345 0
M  V30 18 C -2.863884 -0.315647 1.071780 0
M  V30 19 O -2.123764 -0.928921 0.173698 0
M  V30 20 N -3.264892 -1.503568 1.605147 0
M  V30 21 C -2.610155 -2.559019 0.779891 0
M  V30 22 N -1.741140 -3.304555 0.731121 0
M  V30 23 C -1.453810 -4.084559 -0.284814 0
M  V30 24 C -2.194467 -4.063127 -1.388249 0
M  V30 25 S -3.422240 -2.821382 -0.950473 0
M  V30 26 C -2.230127 -4.676059 -2.738509 0
M  V30 27 N -0.893110 -5.156743 -3.005482 0
M  V30 28 C -0.814023 -6.520357 -3.434057 0
M  V30 29 C 0.048402 -4.771797 -1.996773 0
M  V30 30 C -0.426465 -5.111806 -0.600034 0
M  V30 31 C -2.477538 1.647503 -0.274111 0
M  V30 32 C 1.108852 0.842784 -0.384651 0
M  V30 33 C 1.615811 0.305063 0.767528 0
M  V30 34 C 4.318857 0.669396 3.316293 0
M  V30 35 C 4.542619 0.037196 4.507042 0
M  V30 36 N 3.648375 -0.742797 5.181108 0
M  V30 37 H 0.407843 -1.675875 4.864722 0
M  V30 38 H 1.710247 -2.803661 5.327297 0
M  V30 39 H 1.283926 -1.378706 6.373140 0
M  V30 40 H 1.141664 -0.492804 3.067942 0
M  V30 41 H 3.696661 2.820524 1.729713 0
M  V30 42 H 2.868479 3.844118 -0.284976 0
M  V30 43 H -0.647698 2.230198 -1.221294 0
M  V30 44 H -2.199325 4.051105 -2.428617 0
M  V30 45 H -2.291626 2.284077 -2.675166 0
M  V30 46 H -2.739404 4.823618 0.024912 0
M  V30 47 H -3.427631 4.137127 2.340703 0
M  V30 48 H -3.478812 1.648641 2.914818 0
M  V30 49 H -3.863838 -1.226135 2.371925 0
M  V30 50 H -2.967429 -5.469376 -2.821521 0
M  V30 51 H -2.463700 -3.909829 -3.533524 0
M  V30 52 H -1.574457 -7.134038 -2.904261 0
M  V30 53 H -0.979197 -6.558686 -4.542687 0
M  V30 54 H 0.217663 -6.863793 -3.217564 0
M  V30 55 H 1.007910 -5.283901 -2.195659 0
M  V30 56 H 0.210331 -3.697142 -2.024108 0
M  V30 57 H -0.894990 -6.132306 -0.589360 0
M  V30 58 H 0.449059 -5.114722 0.041154 0
M  V30 59 H -2.212897 0.878930 -1.037929 0
M  V30 60 H 0.391503 0.396390 -1.058862 0
M  V30 61 H 1.265876 -0.674765 1.049062 0
M  V30 62 H 4.963389 1.298441 2.724648 0
M  V30 63 H 5.544721 0.209073 4.884780 0
M  V30 END ATOM
M  V30 BEGIN BOND
M  V30 1 1 1 2
M  V30 2 2 2 3
M  V30 3 1 3 4
M  V30 4 1 4 5
M  V30 5 2 5 6
M  V30 6 1 6 7
M  V30 7 2 7 8
M  V30 8 1 8 9
M  V30 9 2 9 10
M  V30 10 1 9 11
M  V30 11 1 11 12
M  V30 12 1 12 13
M  V30 13 2 13 14
M  V30 14 1 14 15
M  V30 15 2 15 16
M  V30 16 1 16 17
M  V30 17 1 17 18
M  V30 18 2 18 19
M  V30 19 1 18 20
M  V30 20 1 20 21
M  V30 21 2 21 22
M  V30 22 1 22 23
M  V30 23 2 23 24
M  V30 24 1 24 25
M  V30 25 1 24 26
M  V30 26 1 26 27
M  V30 27 1 27 28
M  V30 28 1 27 29
M  V30 29 1 29 30
M  V30 30 2 17 31
M  V30 31 1 8 32
M  V30 32 2 32 33
M  V30 33 2 4 34
M  V30 34 1 34 35
M  V30 35 2 35 36
M  V30 36 1 36 2
M  V30 37 1 33 5
M  V30 38 1 31 13
M  V30 39 1 25 21
M  V30 40 1 30 23
M  V30 41 1 1 37
M  V30 42 1 1 38
M  V30 43 1 1 39
M  V30 44 1 3 40
M  V30 45 1 6 41
M  V30 46 1 7 42
M  V30 47 1 11 43
M  V30 48 1 12 44
M  V30 49 1 12 45
M  V30 50 1 14 46
M  V30 51 1 15 47
M  V30 52 1 16 48
M  V30 53 1 20 49
M  V30 54 1 26 50
M  V30 55 1 26 51
M  V30 56 1 28 52
M  V30 57 1 28 53
M  V30 58 1 28 54
M  V30 59 1 29 55
M  V30 60 1 29 56
M  V30 61 1 30 57
M  V30 62 1 30 58
M  V30 63 1 31 59
M  V30 64 1 32 60
M  V30 65 1 33 61
M  V30 66 1 34 62
M  V30 67 1 35 63
M  V30 END BOND
M  V30 END CTAB
M  END
>  <Dataset>  (509) 
ChEMBL_Kinases

>  <Ligand_Instance>  (509) 
nan

>  <PDB_ID>  (509) 
nan

>  <Standardized_SMILES>  (509) 
Cc1cc(-c2ccc(C(=O)NCc3cccc(C(=O)Nc4nc5c(s4)CN(C)CC5)c3)cc2)ccn1

>  <Name>  (509) 
nan

>  <Pocket>  (509) 
nan

>  <ATP_Site>  (509) 
nan

>  <Peripheral>  (509) 
nan

>  <Num_H_Atoms_ProtBoundConf>  (509) 
nan

>  <Num_Resolved_Atoms>  (509) 
nan

>  <Num_Not_Resolved_Atoms>  (509) 
nan

$$$$
CHEMBL3680777
     RDKit          3D

  0  0  0  0  0  0  0  0  0  0999 V3000
M  V30 BEGIN CTAB
M  V30 COUNTS 60 64 0 0 0
M  V30 BEGIN ATOM
M  V30 1 C 6.200469 -2.061899 3.097206 0
M  V30 2 N 5.628721 -0.746908 2.957565 0
M  V30 3 C 6.671776 0.236800 3.160336 0
M  V30 4 C 6.258862 1.641674 2.871391 0
M  V30 5 C 4.953245 1.736013 2.161789 0
M  V30 6 C 4.332610 2.965934 2.174079 0
M  V30 7 C 3.118505 3.131323 1.538447 0
M  V30 8 C 2.535688 2.059433 0.894359 0
M  V30 9 N 1.308497 1.987548 0.180745 0
M  V30 10 C 0.970294 2.186530 -1.171035 0
M  V30 11 O 1.819020 2.494963 -2.045477 0
M  V30 12 C -0.415617 2.034004 -1.599585 0
M  V30 13 C -0.680480 2.210894 -2.941810 0
M  V30 14 C -1.995704 2.074306 -3.398651 0
M  V30 15 C -3.036990 1.768216 -2.549304 0
M  V30 16 C -2.773473 1.589422 -1.196083 0
M  V30 17 C -3.822658 1.251506 -0.172167 0
M  V30 18 N -3.984905 -0.162122 0.019117 0
M  V30 19 C -4.645391 -1.076556 -0.822783 0
M  V30 20 O -5.176414 -0.643515 -1.890279 0
M  V30 21 C -4.781244 -2.505270 -0.580739 0
M  V30 22 C -5.459929 -3.286729 -1.489631 0
M  V30 23 C -5.614644 -4.645429 -1.302260 0
M  V30 24 C -5.093783 -5.283857 -0.190746 0
M  V30 25 C -5.254991 -6.720562 0.012989 0
M  V30 26 N -5.893290 -7.556220 -0.809970 0
M  V30 27 N -5.835175 -8.777542 -0.299254 0
M  V30 28 C -5.141805 -8.691180 0.870457 0
M  V30 29 O -4.800242 -7.416110 1.032761 0
M  V30 30 C -4.408965 -4.523192 0.735559 0
M  V30 31 C -4.274957 -3.169343 0.513995 0
M  V30 32 C -1.474639 1.728760 -0.772239 0
M  V30 33 C 3.183933 0.825184 0.896338 0
M  V30 34 C 4.395550 0.640318 1.524856 0
M  V30 35 C 5.165013 -0.605712 1.590357 0
M  V30 36 H 5.895982 -2.528685 4.078362 0
M  V30 37 H 5.777564 -2.776131 2.333146 0
M  V30 38 H 7.295052 -2.103571 2.983978 0
M  V30 39 H 7.002876 0.157428 4.220620 0
M  V30 40 H 7.546894 -0.092742 2.554191 0
M  V30 41 H 6.152366 2.199534 3.799507 0
M  V30 42 H 7.044391 2.080357 2.192176 0
M  V30 43 H 4.701290 3.855886 2.643954 0
M  V30 44 H 2.511828 4.042357 1.464632 0
M  V30 45 H 0.645151 1.731112 0.940905 0
M  V30 46 H 0.057662 2.452337 -3.693795 0
M  V30 47 H -2.237761 2.208221 -4.455459 0
M  V30 48 H -4.058823 1.658895 -2.880736 0
M  V30 49 H -3.504968 1.699878 0.790538 0
M  V30 50 H -4.783054 1.754680 -0.418690 0
M  V30 51 H -3.581423 -0.628052 0.875226 0
M  V30 52 H -5.894588 -2.869797 -2.378428 0
M  V30 53 H -6.150773 -5.253284 -2.023034 0
M  V30 54 H -4.984664 -9.593698 1.445156 0
M  V30 55 H -3.990311 -4.969891 1.606131 0
M  V30 56 H -3.732764 -2.609705 1.261681 0
M  V30 57 H -1.266540 1.590246 0.279303 0
M  V30 58 H 2.823606 -0.097940 0.421103 0
M  V30 59 H 6.097266 -0.450549 0.985682 0
M  V30 60 H 4.613529 -1.492531 1.238388 0
M  V30 END ATOM
M  V30 BEGIN BOND
M  V30 1 1 1 2
M  V30 2 1 2 3
M  V30 3 1 3 4
M  V30 4 1 4 5
M  V30 5 2 5 6
M  V30 6 1 6 7
M  V30 7 2 7 8
M  V30 8 1 8 9
M  V30 9 1 9 10
M  V30 10 2 10 11
M  V30 11 1 10 12
M  V30 12 2 12 13
M  V30 13 1 13 14
M  V30 14 2 14 15
M  V30 15 1 15 16
M  V30 16 1 16 17
M  V30 17 1 17 18
M  V30 18 1 18 19
M  V30 19 2 19 20
M  V30 20 1 19 21
M  V30 21 2 21 22
M  V30 22 1 22 23
M  V30 23 2 23 24
M  V30 24 1 24 25
M  V30 25 2 25 26
M  V30 26 1 26 27
M  V30 27 2 27 28
M  V30 28 1 28 29
M  V30 29 1 24 30
M  V30 30 2 30 31
M  V30 31 2 16 32
M  V30 32 1 8 33
M  V30 33 2 33 34
M  V30 34 1 34 35
M  V30 35 1 35 2
M  V30 36 1 34 5
M  V30 37 1 32 12
M  V30 38 1 31 21
M  V30 39 1 29 25
M  V30 40 1 1 36
M  V30 41 1 1 37
M  V30 42 1 1 38
M  V30 43 1 3 39
M  V30 44 1 3 40
M  V30 45 1 4 41
M  V30 46 1 4 42
M  V30 47 1 6 43
M  V30 48 1 7 44
M  V30 49 1 9 45
M  V30 50 1 13 46
M  V30 51 1 14 47
M  V30 52 1 15 48
M  V30 53 1 17 49
M  V30 54 1 17 50
M  V30 55 1 18 51
M  V30 56 1 22 52
M  V30 57 1 23 53
M  V30 58 1 28 54
M  V30 59 1 30 55
M  V30 60 1 31 56
M  V30 61 1 32 57
M  V30 62 1 33 58
M  V30 63 1 35 59
M  V30 64 1 35 60
M  V30 END BOND
M  V30 END CTAB
M  END
>  <Dataset>  (510) 
ChEMBL_Kinases

>  <Ligand_Instance>  (510) 
nan

>  <PDB_ID>  (510) 
nan

>  <Standardized_SMILES>  (510) 
CN1CCc2ccc(NC(=O)c3cccc(CNC(=O)c4ccc(-c5nnco5)cc4)c3)cc2C1

>  <Name>  (510) 
nan

>  <Pocket>  (510) 
nan

>  <ATP_Site>  (510) 
nan

>  <Peripheral>  (510) 
nan

>  <Num_H_Atoms_ProtBoundConf>  (510) 
nan

>  <Num_Resolved_Atoms>  (510) 
nan

>  <Num_Not_Resolved_Atoms>  (510) 
nan

$$$$
CHEMBL3680778
     RDKit          3D

  0  0  0  0  0  0  0  0  0  0999 V3000
M  V30 BEGIN CTAB
M  V30 COUNTS 67 72 0 0 0
M  V30 BEGIN ATOM
M  V30 1 O 0.476134 -3.256263 0.402119 0
M  V30 2 C 1.069496 -3.763049 1.391863 0
M  V30 3 N 2.458820 -3.897787 1.213713 0
M  V30 4 C 2.866175 -3.389687 -0.130573 0
M  V30 5 N 3.059300 -3.552386 -1.237029 0
M  V30 6 C 3.466309 -2.663329 -2.133012 0
M  V30 7 C 3.689350 -1.397618 -1.718143 0
M  V30 8 S 3.275190 -1.528603 0.094795 0
M  V30 9 C 4.154378 -0.393953 -2.764295 0
M  V30 10 C 3.034858 -0.408964 -3.806845 0 CFG=1
M  V30 11 N 3.222996 0.644780 -4.739190 0
M  V30 12 C 3.200520 1.930006 -4.103355 0
M  V30 13 C 2.244908 2.894368 -4.774505 0
M  V30 14 O 0.982495 2.393031 -4.973757 0
M  V30 15 C 0.927893 1.098843 -5.433513 0
M  V30 16 C 2.310002 0.619521 -5.835730 0
M  V30 17 C 3.092566 -1.767942 -4.411518 0
M  V30 18 C 3.733567 -2.824278 -3.584600 0
M  V30 19 C 0.448179 -4.201514 2.656607 0
M  V30 20 C 1.114073 -4.738839 3.723742 0
M  V30 21 C 0.398905 -5.101051 4.847127 0
M  V30 22 C -0.967349 -4.913982 4.869477 0
M  V30 23 C -1.646398 -4.363852 3.775478 0
M  V30 24 C -3.107788 -4.263072 4.039519 0
M  V30 25 N -3.451830 -2.994243 4.656314 0
M  V30 26 C -3.559375 -1.726049 4.032112 0
M  V30 27 O -3.318773 -1.764385 2.798061 0
M  V30 28 C -3.919628 -0.534971 4.814956 0
M  V30 29 C -4.169317 -0.559604 6.188777 0
M  V30 30 S -4.552739 1.206945 6.533763 0
M  V30 31 C -4.301151 1.668900 4.722523 0
M  V30 32 C -4.490040 3.066089 4.377435 0
M  V30 33 C -4.830916 4.054012 5.262204 0
M  V30 34 C -4.960687 5.309584 4.727466 0
M  V30 35 C -4.758503 5.544010 3.388582 0
M  V30 36 N -4.418739 4.558338 2.507811 0
M  V30 37 C -4.289160 3.310048 3.037355 0
M  V30 38 N -4.042295 0.668212 4.301671 0
M  V30 39 C -0.919406 -4.016208 2.682753 0
M  V30 40 H 3.101463 -4.287193 1.901781 0
M  V30 41 H 5.060420 -0.858125 -3.184666 0
M  V30 42 H 4.315200 0.581465 -2.309223 0
M  V30 43 H 2.101275 -0.245977 -3.224109 0
M  V30 44 H 2.948217 1.910445 -3.021229 0
M  V30 45 H 4.215252 2.373571 -4.182479 0
M  V30 46 H 2.134488 3.754653 -4.051373 0
M  V30 47 H 2.634453 3.334450 -5.701010 0
M  V30 48 H 0.543500 0.428168 -4.636797 0
M  V30 49 H 0.297993 1.071814 -6.354145 0
M  V30 50 H 2.189637 -0.362623 -6.304313 0
M  V30 51 H 2.692609 1.352587 -6.604309 0
M  V30 52 H 3.680526 -1.693852 -5.354450 0
M  V30 53 H 2.079559 -2.119891 -4.754614 0
M  V30 54 H 3.414765 -3.796123 -4.004215 0
M  V30 55 H 4.854855 -2.828315 -3.693340 0
M  V30 56 H 2.185750 -4.854817 3.632363 0
M  V30 57 H 0.980890 -5.519470 5.656129 0
M  V30 58 H -1.406228 -5.238738 5.805969 0
M  V30 59 H -3.667632 -4.274906 3.061473 0
M  V30 60 H -3.494043 -5.105429 4.611632 0
M  V30 61 H -3.641816 -3.039367 5.698273 0
M  V30 62 H -4.134013 -1.454841 6.873651 0
M  V30 63 H -4.972404 3.794748 6.292021 0
M  V30 64 H -5.229558 6.128855 5.382953 0
M  V30 65 H -4.866304 6.555047 2.976975 0
M  V30 66 H -4.017528 2.552409 2.305267 0
M  V30 67 H -1.512585 -3.603820 1.886402 0
M  V30 END ATOM
M  V30 BEGIN BOND
M  V30 1 2 1 2
M  V30 2 1 2 3
M  V30 3 1 3 4
M  V30 4 2 4 5
M  V30 5 1 5 6
M  V30 6 2 6 7
M  V30 7 1 7 8
M  V30 8 1 7 9
M  V30 9 1 9 10
M  V30 10 1 10 11
M  V30 11 1 11 12
M  V30 12 1 12 13
M  V30 13 1 13 14
M  V30 14 1 14 15
M  V30 15 1 15 16
M  V30 16 1 10 17
M  V30 17 1 17 18
M  V30 18 1 2 19
M  V30 19 2 19 20
M  V30 20 1 20 21
M  V30 21 2 21 22
M  V30 22 1 22 23
M  V30 23 1 23 24
M  V30 24 1 24 25
M  V30 25 1 25 26
M  V30 26 2 26 27
M  V30 27 1 26 28
M  V30 28 2 28 29
M  V30 29 1 29 30
M  V30 30 1 30 31
M  V30 31 1 31 32
M  V30 32 2 32 33
M  V30 33 1 33 34
M  V30 34 2 34 35
M  V30 35 1 35 36
M  V30 36 2 36 37
M  V30 37 2 31 38
M  V30 38 2 23 39
M  V30 39 1 8 4
M  V30 40 1 16 11
M  V30 41 1 39 19
M  V30 42 1 18 6
M  V30 43 1 38 28
M  V30 44 1 37 32
M  V30 45 1 3 40
M  V30 46 1 9 41
M  V30 47 1 9 42
M  V30 48 1 10 43 CFG=1
M  V30 49 1 12 44
M  V30 50 1 12 45
M  V30 51 1 13 46
M  V30 52 1 13 47
M  V30 53 1 15 48
M  V30 54 1 15 49
M  V30 55 1 16 50
M  V30 56 1 16 51
M  V30 57 1 17 52
M  V30 58 1 17 53
M  V30 59 1 18 54
M  V30 60 1 18 55
M  V30 61 1 20 56
M  V30 62 1 21 57
M  V30 63 1 22 58
M  V30 64 1 24 59
M  V30 65 1 24 60
M  V30 66 1 25 61
M  V30 67 1 29 62
M  V30 68 1 33 63
M  V30 69 1 34 64
M  V30 70 1 35 65
M  V30 71 1 37 66
M  V30 72 1 39 67
M  V30 END BOND
M  V30 END CTAB
M  END
>  <Dataset>  (511) 
ChEMBL_Kinases

>  <Ligand_Instance>  (511) 
nan

>  <PDB_ID>  (511) 
nan

>  <Standardized_SMILES>  (511) 
O=C(Nc1nc2c(s1)C[C@@H](N1CCOCC1)CC2)c1cccc(CNC(=O)c2csc(-c3cccnc3)n2)c1

>  <Name>  (511) 
nan

>  <Pocket>  (511) 
nan

>  <ATP_Site>  (511) 
nan

>  <Peripheral>  (511) 
nan

>  <Num_H_Atoms_ProtBoundConf>  (511) 
nan

>  <Num_Resolved_Atoms>  (511) 
nan

>  <Num_Not_Resolved_Atoms>  (511) 
nan

$$$$
CHEMBL3680770
     RDKit          3D

  0  0  0  0  0  0  0  0  0  0999 V3000
M  V30 BEGIN CTAB
M  V30 COUNTS 63 67 0 0 0
M  V30 BEGIN ATOM
M  V30 1 C 3.872677 0.028756 3.638610 0
M  V30 2 N 4.290590 1.406681 3.686265 0
M  V30 3 C 5.401047 1.650057 2.816120 0
M  V30 4 C 5.408811 3.027590 2.190566 0
M  V30 5 C 4.114569 3.262580 1.499360 0
M  V30 6 C 4.087223 3.790882 0.240533 0
M  V30 7 C 2.852954 3.975698 -0.344498 0
M  V30 8 C 1.715432 3.636154 0.328541 0
M  V30 9 N 0.333040 3.735067 -0.078057 0
M  V30 10 C 0.054137 2.506576 -0.728633 0
M  V30 11 O 1.095242 1.756899 -0.738918 0
M  V30 12 C -1.241938 2.103188 -1.326163 0
M  V30 13 C -2.366112 2.916339 -1.219260 0
M  V30 14 C -3.502287 2.404112 -1.813249 0
M  V30 15 C -3.485845 1.183168 -2.450933 0
M  V30 16 C -2.343038 0.381541 -2.546840 0
M  V30 17 C -2.536677 -0.893542 -3.266255 0
M  V30 18 N -2.875733 -2.013836 -2.446884 0
M  V30 19 C -1.962386 -2.770375 -1.663980 0
M  V30 20 O -0.758523 -2.396043 -1.725739 0
M  V30 21 C -2.242086 -3.914821 -0.804852 0
M  V30 22 C -3.510565 -4.410763 -0.636647 0
M  V30 23 C -3.878687 -5.496211 0.167686 0
M  V30 24 C -5.201344 -5.874260 0.232470 0
M  V30 25 C -5.453267 -6.962380 1.060479 0
M  V30 26 C -4.419021 -7.589047 1.750161 0
M  V30 27 C -3.126360 -7.157990 1.637434 0
M  V30 28 O -2.100059 -7.805863 2.342271 0
M  V30 29 C -2.817821 -6.078272 0.826532 0
M  V30 30 C -1.521949 -5.634448 0.705112 0
M  V30 31 C -1.245177 -4.562080 -0.105023 0
M  V30 32 O 0.061367 -4.090426 -0.246870 0
M  V30 33 C -1.212102 0.883105 -1.960206 0
M  V30 34 C 1.755005 3.094748 1.620836 0
M  V30 35 C 2.990360 2.898518 2.233209 0
M  V30 36 C 3.227123 2.346264 3.583048 0
M  V30 37 H 4.706159 -0.565409 3.215077 0
M  V30 38 H 2.905289 -0.115984 3.117860 0
M  V30 39 H 3.709618 -0.313898 4.692432 0
M  V30 40 H 5.485507 0.877305 2.002786 0
M  V30 41 H 6.334605 1.554668 3.407559 0
M  V30 42 H 5.589043 3.797593 2.954020 0
M  V30 43 H 6.209886 3.033303 1.425408 0
M  V30 44 H 4.961642 4.071012 -0.324598 0
M  V30 45 H 2.657096 4.378787 -1.327787 0
M  V30 46 H -0.463720 4.427043 -0.021893 0
M  V30 47 H -2.292116 3.848283 -0.708383 0
M  V30 48 H -4.399026 3.008112 -1.751608 0
M  V30 49 H -4.448235 0.877795 -2.885792 0
M  V30 50 H -3.336534 -0.786048 -4.040340 0
M  V30 51 H -1.596627 -1.060894 -3.843945 0
M  V30 52 H -3.876055 -2.349224 -2.382179 0
M  V30 53 H -4.326947 -3.924012 -1.176001 0
M  V30 54 H -5.952443 -5.340217 -0.332431 0
M  V30 55 H -6.480048 -7.299846 1.147266 0
M  V30 56 H -4.627589 -8.432864 2.389234 0
M  V30 57 H -1.897818 -8.790542 2.126045 0
M  V30 58 H -0.724631 -6.121319 1.239352 0
M  V30 59 H 0.393673 -3.259464 0.215450 0
M  V30 60 H -0.334632 0.267425 -2.038991 0
M  V30 61 H 0.901243 2.792385 2.240025 0
M  V30 62 H 2.277632 1.939820 3.979063 0
M  V30 63 H 3.510967 3.216058 4.246435 0
M  V30 END ATOM
M  V30 BEGIN BOND
M  V30 1 1 1 2
M  V30 2 1 2 3
M  V30 3 1 3 4
M  V30 4 1 4 5
M  V30 5 2 5 6
M  V30 6 1 6 7
M  V30 7 2 7 8
M  V30 8 1 8 9
M  V30 9 1 9 10
M  V30 10 2 10 11
M  V30 11 1 10 12
M  V30 12 2 12 13
M  V30 13 1 13 14
M  V30 14 2 14 15
M  V30 15 1 15 16
M  V30 16 1 16 17
M  V30 17 1 17 18
M  V30 18 1 18 19
M  V30 19 2 19 20
M  V30 20 1 19 21
M  V30 21 2 21 22
M  V30 22 1 22 23
M  V30 23 2 23 24
M  V30 24 1 24 25
M  V30 25 2 25 26
M  V30 26 1 26 27
M  V30 27 1 27 28
M  V30 28 2 27 29
M  V30 29 1 29 30
M  V30 30 2 30 31
M  V30 31 1 31 32
M  V30 32 2 16 33
M  V30 33 1 8 34
M  V30 34 2 34 35
M  V30 35 1 35 36
M  V30 36 1 36 2
M  V30 37 1 35 5
M  V30 38 1 33 12
M  V30 39 1 31 21
M  V30 40 1 29 23
M  V30 41 1 1 37
M  V30 42 1 1 38
M  V30 43 1 1 39
M  V30 44 1 3 40
M  V30 45 1 3 41
M  V30 46 1 4 42
M  V30 47 1 4 43
M  V30 48 1 6 44
M  V30 49 1 7 45
M  V30 50 1 9 46
M  V30 51 1 13 47
M  V30 52 1 14 48
M  V30 53 1 15 49
M  V30 54 1 17 50
M  V30 55 1 17 51
M  V30 56 1 18 52
M  V30 57 1 22 53
M  V30 58 1 24 54
M  V30 59 1 25 55
M  V30 60 1 26 56
M  V30 61 1 28 57
M  V30 62 1 30 58
M  V30 63 1 32 59
M  V30 64 1 33 60
M  V30 65 1 34 61
M  V30 66 1 36 62
M  V30 67 1 36 63
M  V30 END BOND
M  V30 END CTAB
M  END
>  <Dataset>  (512) 
ChEMBL_Kinases

>  <Ligand_Instance>  (512) 
nan

>  <PDB_ID>  (512) 
nan

>  <Standardized_SMILES>  (512) 
CN1CCc2ccc(NC(=O)c3cccc(CNC(=O)c4cc5cccc(O)c5cc4O)c3)cc2C1

>  <Name>  (512) 
nan

>  <Pocket>  (512) 
nan

>  <ATP_Site>  (512) 
nan

>  <Peripheral>  (512) 
nan

>  <Num_H_Atoms_ProtBoundConf>  (512) 
nan

>  <Num_Resolved_Atoms>  (512) 
nan

>  <Num_Not_Resolved_Atoms>  (512) 
nan

$$$$
CHEMBL3681047
     RDKit          3D

  0  0  0  0  0  0  0  0  0  0999 V3000
M  V30 BEGIN CTAB
M  V30 COUNTS 43 45 0 0 0
M  V30 BEGIN ATOM
M  V30 1 C -3.324891 -1.072628 3.057877 0
M  V30 2 N -3.556703 -2.332093 2.365138 0
M  V30 3 C -2.762381 -2.915680 1.353623 0
M  V30 4 N -1.664121 -2.267557 0.960559 0
M  V30 5 C -0.801124 -2.671712 0.020627 0
M  V30 6 N 0.365710 -1.992106 -0.403421 0
M  V30 7 C 0.877299 -0.761135 0.054460 0
M  V30 8 C 0.309971 0.025780 1.031473 0
M  V30 9 C 0.796155 1.230968 1.490866 0
M  V30 10 F 0.188198 1.952432 2.453826 0
M  V30 11 C 1.961355 1.712006 0.931075 0
M  V30 12 C 2.560589 2.975254 1.344113 0
M  V30 13 C 1.941807 4.188882 1.559254 0
M  V30 14 N 2.845208 5.111150 1.931632 0
M  V30 15 N 4.025852 4.518315 1.960116 0
M  V30 16 N 3.846393 3.257403 1.611536 0
M  V30 17 C 4.957406 2.310825 1.539156 0
M  V30 18 C 2.576816 0.968759 -0.052650 0
M  V30 19 C 2.041550 -0.226678 -0.467748 0
M  V30 20 O 2.724718 -0.911633 -1.463088 0
M  V30 21 C 3.917693 -0.437299 -2.048716 0
M  V30 22 N -1.114229 -3.845523 -0.550613 0
M  V30 23 C -2.189600 -4.579750 -0.234577 0
M  V30 24 C -3.041160 -4.115566 0.738069 0
M  V30 25 C -4.256845 -4.862949 1.152234 0
M  V30 26 F -4.308083 -6.025487 0.388361 0
M  V30 27 F -4.121859 -5.218442 2.477875 0
M  V30 28 F -5.411678 -4.127254 1.021389 0
M  V30 29 H -2.836074 -0.328551 2.372981 0
M  V30 30 H -4.309011 -0.619654 3.337199 0
M  V30 31 H -2.671364 -1.159670 3.932819 0
M  V30 32 H -4.408204 -2.861407 2.651497 0
M  V30 33 H 0.940766 -2.457739 -1.164794 0
M  V30 34 H -0.594912 -0.281138 1.512161 0
M  V30 35 H 0.880604 4.405424 1.453044 0
M  V30 36 H 5.422414 2.338303 0.526717 0
M  V30 37 H 5.774044 2.582443 2.236215 0
M  V30 38 H 4.583772 1.310350 1.784678 0
M  V30 39 H 3.490170 1.343438 -0.493137 0
M  V30 40 H 3.689172 0.357080 -2.810046 0
M  V30 41 H 4.361809 -1.264143 -2.648477 0
M  V30 42 H 4.664384 -0.115358 -1.300931 0
M  V30 43 H -2.396649 -5.517041 -0.723581 0
M  V30 END ATOM
M  V30 BEGIN BOND
M  V30 1 1 1 2
M  V30 2 1 2 3
M  V30 3 2 3 4
M  V30 4 1 4 5
M  V30 5 1 5 6
M  V30 6 1 6 7
M  V30 7 2 7 8
M  V30 8 1 8 9
M  V30 9 1 9 10
M  V30 10 2 9 11
M  V30 11 1 11 12
M  V30 12 2 12 13
M  V30 13 1 13 14
M  V30 14 2 14 15
M  V30 15 1 15 16
M  V30 16 1 16 17
M  V30 17 1 11 18
M  V30 18 2 18 19
M  V30 19 1 19 20
M  V30 20 1 20 21
M  V30 21 2 5 22
M  V30 22 1 22 23
M  V30 23 2 23 24
M  V30 24 1 24 25
M  V30 25 1 25 26
M  V30 26 1 25 27
M  V30 27 1 25 28
M  V30 28 1 24 3
M  V30 29 1 19 7
M  V30 30 1 16 12
M  V30 31 1 1 29
M  V30 32 1 1 30
M  V30 33 1 1 31
M  V30 34 1 2 32
M  V30 35 1 6 33
M  V30 36 1 8 34
M  V30 37 1 13 35
M  V30 38 1 17 36
M  V30 39 1 17 37
M  V30 40 1 17 38
M  V30 41 1 18 39
M  V30 42 1 21 40
M  V30 43 1 21 41
M  V30 44 1 21 42
M  V30 45 1 23 43
M  V30 END BOND
M  V30 END CTAB
M  END
>  <Dataset>  (513) 
ChEMBL_Kinases

>  <Ligand_Instance>  (513) 
nan

>  <PDB_ID>  (513) 
nan

>  <Standardized_SMILES>  (513) 
CNc1nc(Nc2cc(F)c(-c3cnnn3C)cc2OC)ncc1C(F)(F)F

>  <Name>  (513) 
nan

>  <Pocket>  (513) 
nan

>  <ATP_Site>  (513) 
nan

>  <Peripheral>  (513) 
nan

>  <Num_H_Atoms_ProtBoundConf>  (513) 
nan

>  <Num_Resolved_Atoms>  (513) 
nan

>  <Num_Not_Resolved_Atoms>  (513) 
nan

$$$$
CHEMBL3681046
     RDKit          3D

  0  0  0  0  0  0  0  0  0  0999 V3000
M  V30 BEGIN CTAB
M  V30 COUNTS 42 44 0 0 0
M  V30 BEGIN ATOM
M  V30 1 C -1.773178 -4.880978 2.830950 0
M  V30 2 N -1.014957 -5.431484 1.718266 0
M  V30 3 C -0.510478 -4.535083 0.714478 0
M  V30 4 N -0.772567 -3.230078 0.854044 0
M  V30 5 C -0.345470 -2.275591 -0.029883 0
M  V30 6 N -0.779376 -0.980162 0.357984 0
M  V30 7 C -0.039179 0.237439 0.318144 0
M  V30 8 C 1.266174 0.138037 -0.103018 0
M  V30 9 C 2.101864 1.231659 -0.156325 0
M  V30 10 F 3.402627 1.273333 -0.542468 0
M  V30 11 C 1.599301 2.474435 0.229375 0
M  V30 12 N 2.243546 3.742818 0.256493 0
M  V30 13 N 1.769362 4.746501 -0.498190 0
M  V30 14 N 2.517937 5.834588 -0.311057 0
M  V30 15 N 3.454461 5.515849 0.553302 0
M  V30 16 C 3.305771 4.227275 0.918815 0
M  V30 17 C 4.131956 3.454079 1.875972 0
M  V30 18 C 0.276476 2.560625 0.651333 0
M  V30 19 C -0.569315 1.471961 0.709490 0
M  V30 20 O -1.882851 1.401796 1.096763 0
M  V30 21 C -2.612713 2.515438 1.537700 0
M  V30 22 N 0.385993 -2.649251 -1.117020 0
M  V30 23 C 0.679918 -3.966601 -1.304984 0
M  V30 24 C 0.235976 -4.905628 -0.397124 0
M  V30 25 C 0.474805 -6.366773 -0.471976 0
M  V30 26 F -0.747942 -7.051156 -0.559355 0
M  V30 27 F 1.178395 -6.656142 -1.614749 0
M  V30 28 F 1.118942 -6.832590 0.667050 0
M  V30 29 H -1.127728 -4.823380 3.738934 0
M  V30 30 H -2.099373 -3.827196 2.582243 0
M  V30 31 H -2.617933 -5.535820 3.112037 0
M  V30 32 H -0.879580 -6.463030 1.714039 0
M  V30 33 H -1.776712 -0.875635 0.722126 0
M  V30 34 H 1.723981 -0.808437 -0.421996 0
M  V30 35 H 4.417930 4.081465 2.750524 0
M  V30 36 H 3.584476 2.599096 2.296429 0
M  V30 37 H 5.027505 3.087301 1.336197 0
M  V30 38 H -0.208553 3.482772 0.971432 0
M  V30 39 H -3.355671 2.910005 0.825055 0
M  V30 40 H -1.992260 3.373896 1.876405 0
M  V30 41 H -3.172566 2.220914 2.492403 0
M  V30 42 H 1.245897 -4.278812 -2.148126 0
M  V30 END ATOM
M  V30 BEGIN BOND
M  V30 1 1 1 2
M  V30 2 1 2 3
M  V30 3 2 3 4
M  V30 4 1 4 5
M  V30 5 1 5 6
M  V30 6 1 6 7
M  V30 7 2 7 8
M  V30 8 1 8 9
M  V30 9 1 9 10
M  V30 10 2 9 11
M  V30 11 1 11 12
M  V30 12 1 12 13
M  V30 13 2 13 14
M  V30 14 1 14 15
M  V30 15 2 15 16
M  V30 16 1 16 17
M  V30 17 1 11 18
M  V30 18 2 18 19
M  V30 19 1 19 20
M  V30 20 1 20 21
M  V30 21 2 5 22
M  V30 22 1 22 23
M  V30 23 2 23 24
M  V30 24 1 24 25
M  V30 25 1 25 26
M  V30 26 1 25 27
M  V30 27 1 25 28
M  V30 28 1 24 3
M  V30 29 1 19 7
M  V30 30 1 16 12
M  V30 31 1 1 29
M  V30 32 1 1 30
M  V30 33 1 1 31
M  V30 34 1 2 32
M  V30 35 1 6 33
M  V30 36 1 8 34
M  V30 37 1 17 35
M  V30 38 1 17 36
M  V30 39 1 17 37
M  V30 40 1 18 38
M  V30 41 1 21 39
M  V30 42 1 21 40
M  V30 43 1 21 41
M  V30 44 1 23 42
M  V30 END BOND
M  V30 END CTAB
M  END
>  <Dataset>  (514) 
ChEMBL_Kinases

>  <Ligand_Instance>  (514) 
nan

>  <PDB_ID>  (514) 
nan

>  <Standardized_SMILES>  (514) 
CNc1nc(Nc2cc(F)c(-n3nnnc3C)cc2OC)ncc1C(F)(F)F

>  <Name>  (514) 
nan

>  <Pocket>  (514) 
nan

>  <ATP_Site>  (514) 
nan

>  <Peripheral>  (514) 
nan

>  <Num_H_Atoms_ProtBoundConf>  (514) 
nan

>  <Num_Resolved_Atoms>  (514) 
nan

>  <Num_Not_Resolved_Atoms>  (514) 
nan

$$$$
CHEMBL3681045
     RDKit          3D

  0  0  0  0  0  0  0  0  0  0999 V3000
M  V30 BEGIN CTAB
M  V30 COUNTS 54 56 0 0 0
M  V30 BEGIN ATOM
M  V30 1 C -1.085862 -7.916161 0.463658 0
M  V30 2 N 0.200756 -7.596832 -0.136613 0
M  V30 3 C 0.624479 -6.264206 -0.386856 0
M  V30 4 N -0.143923 -5.223547 -0.083161 0
M  V30 5 C 0.196543 -3.940644 -0.297622 0
M  V30 6 N -0.706576 -2.914514 0.073213 0
M  V30 7 C -0.583001 -1.511089 -0.064288 0
M  V30 8 C 0.511822 -0.883372 -0.622553 0
M  V30 9 C 0.657787 0.484778 -0.767927 0
M  V30 10 F 1.755681 1.054991 -1.324127 0
M  V30 11 C -0.361530 1.303081 -0.326010 0
M  V30 12 C -0.206801 2.746443 -0.481214 0
M  V30 13 C -0.626774 3.426582 -1.621940 0
M  V30 14 N -0.344525 4.747390 -1.465435 0
M  V30 15 N 0.237226 4.917789 -0.268330 0
M  V30 16 C 0.704136 6.164849 0.309378 0
M  V30 17 C 0.327629 3.720276 0.338225 0
M  V30 18 C 0.880420 3.384902 1.649110 0
M  V30 19 O 2.129132 3.367508 1.476885 0
M  V30 20 N 0.091321 3.148153 2.808072 0
M  V30 21 C -1.364715 3.201277 2.881885 0
M  V30 22 C 0.801416 2.819897 4.031282 0
M  V30 23 C -1.468074 0.706920 0.235509 0
M  V30 24 C -1.578574 -0.659517 0.364053 0
M  V30 25 O -2.704981 -1.202919 0.932421 0
M  V30 26 C -3.738055 -0.367585 1.379971 0
M  V30 27 N 1.390535 -3.725173 -0.854119 0
M  V30 28 C 2.178968 -4.749526 -1.167712 0
M  V30 29 C 1.858473 -6.072380 -0.959968 0
M  V30 30 C 2.803317 -7.124262 -1.338594 0
M  V30 31 F 3.954820 -6.560720 -1.893518 0
M  V30 32 F 3.222727 -7.870172 -0.266212 0
M  V30 33 F 2.303201 -7.956162 -2.340796 0
M  V30 34 H -1.815953 -7.093307 0.316931 0
M  V30 35 H -0.974227 -8.184598 1.539891 0
M  V30 36 H -1.540958 -8.809277 -0.025205 0
M  V30 37 H 0.793175 -8.412693 -0.373836 0
M  V30 38 H -1.617089 -3.234837 0.523015 0
M  V30 39 H 1.343872 -1.434861 -0.989128 0
M  V30 40 H -1.106838 3.098326 -2.546524 0
M  V30 41 H 0.885944 6.866380 -0.539589 0
M  V30 42 H -0.060049 6.617347 0.983422 0
M  V30 43 H 1.692291 6.057316 0.811553 0
M  V30 44 H -1.825850 2.201062 2.906353 0
M  V30 45 H -1.686281 3.699639 3.842741 0
M  V30 46 H -1.795785 3.811823 2.063836 0
M  V30 47 H 0.493470 3.441306 4.878335 0
M  V30 48 H 1.897754 2.915985 3.917071 0
M  V30 49 H 0.590234 1.740542 4.281892 0
M  V30 50 H -2.228840 1.388161 0.562439 0
M  V30 51 H -3.487799 0.109227 2.356273 0
M  V30 52 H -4.689261 -0.930351 1.564758 0
M  V30 53 H -4.019305 0.433446 0.672074 0
M  V30 54 H 3.125454 -4.460145 -1.614271 0
M  V30 END ATOM
M  V30 BEGIN BOND
M  V30 1 1 1 2
M  V30 2 1 2 3
M  V30 3 2 3 4
M  V30 4 1 4 5
M  V30 5 1 5 6
M  V30 6 1 6 7
M  V30 7 2 7 8
M  V30 8 1 8 9
M  V30 9 1 9 10
M  V30 10 2 9 11
M  V30 11 1 11 12
M  V30 12 1 12 13
M  V30 13 2 13 14
M  V30 14 1 14 15
M  V30 15 1 15 16
M  V30 16 1 15 17
M  V30 17 1 17 18
M  V30 18 2 18 19
M  V30 19 1 18 20
M  V30 20 1 20 21
M  V30 21 1 20 22
M  V30 22 1 11 23
M  V30 23 2 23 24
M  V30 24 1 24 25
M  V30 25 1 25 26
M  V30 26 2 5 27
M  V30 27 1 27 28
M  V30 28 2 28 29
M  V30 29 1 29 30
M  V30 30 1 30 31
M  V30 31 1 30 32
M  V30 32 1 30 33
M  V30 33 1 29 3
M  V30 34 1 24 7
M  V30 35 2 17 12
M  V30 36 1 1 34
M  V30 37 1 1 35
M  V30 38 1 1 36
M  V30 39 1 2 37
M  V30 40 1 6 38
M  V30 41 1 8 39
M  V30 42 1 13 40
M  V30 43 1 16 41
M  V30 44 1 16 42
M  V30 45 1 16 43
M  V30 46 1 21 44
M  V30 47 1 21 45
M  V30 48 1 21 46
M  V30 49 1 22 47
M  V30 50 1 22 48
M  V30 51 1 22 49
M  V30 52 1 23 50
M  V30 53 1 26 51
M  V30 54 1 26 52
M  V30 55 1 26 53
M  V30 56 1 28 54
M  V30 END BOND
M  V30 END CTAB
M  END
>  <Dataset>  (515) 
ChEMBL_Kinases

>  <Ligand_Instance>  (515) 
nan

>  <PDB_ID>  (515) 
nan

>  <Standardized_SMILES>  (515) 
CNc1nc(Nc2cc(F)c(-c3cnn(C)c3C(=O)N(C)C)cc2OC)ncc1C(F)(F)F

>  <Name>  (515) 
nan

>  <Pocket>  (515) 
nan

>  <ATP_Site>  (515) 
nan

>  <Peripheral>  (515) 
nan

>  <Num_H_Atoms_ProtBoundConf>  (515) 
nan

>  <Num_Resolved_Atoms>  (515) 
nan

>  <Num_Not_Resolved_Atoms>  (515) 
nan

$$$$
CHEMBL3681044
     RDKit          3D

  0  0  0  0  0  0  0  0  0  0999 V3000
M  V30 BEGIN CTAB
M  V30 COUNTS 43 45 0 0 0
M  V30 BEGIN ATOM
M  V30 1 C 0.475521 -4.465261 4.193990 0
M  V30 2 N -0.879308 -4.073773 3.857037 0
M  V30 3 C -1.424159 -3.392754 2.735176 0
M  V30 4 N -0.533308 -3.030266 1.789588 0
M  V30 5 C -0.950066 -2.378689 0.686347 0
M  V30 6 N -0.214037 -1.900880 -0.431715 0
M  V30 7 C 0.358324 -0.609314 -0.491373 0
M  V30 8 C 0.183063 0.204847 0.604722 0
M  V30 9 C 0.692842 1.502498 0.685908 0
M  V30 10 C 1.405006 1.931388 -0.434991 0
M  V30 11 C 1.960947 3.278246 -0.407568 0
M  V30 12 N 1.546492 4.201663 -1.289992 0
M  V30 13 N 2.237217 5.298192 -0.997831 0
M  V30 14 C 3.048551 5.032665 0.040003 0
M  V30 15 N 2.886525 3.758172 0.426340 0
M  V30 16 C 3.555409 3.056035 1.498118 0
M  V30 17 C 1.594626 1.135063 -1.545575 0
M  V30 18 C 1.076154 -0.143199 -1.591122 0
M  V30 19 O 1.177325 -1.058641 -2.621442 0
M  V30 20 C 1.845019 -0.845713 -3.840494 0
M  V30 21 N -2.262140 -2.095544 0.541199 0
M  V30 22 C -3.168377 -2.460034 1.495036 0
M  V30 23 C -2.777354 -3.124743 2.630594 0
M  V30 24 C -3.707785 -3.543233 3.693315 0
M  V30 25 F -5.024709 -3.179637 3.397487 0
M  V30 26 F -3.713787 -4.915128 3.873625 0
M  V30 27 F -3.393022 -2.961362 4.899657 0
M  V30 28 H 0.499888 -5.521887 4.541440 0
M  V30 29 H 0.906644 -3.868964 5.023550 0
M  V30 30 H 1.076710 -4.323952 3.276231 0
M  V30 31 H -1.542913 -4.371618 4.614336 0
M  V30 32 H -0.100305 -2.552816 -1.243386 0
M  V30 33 H -0.367154 -0.120000 1.477078 0
M  V30 34 H 0.536580 2.110877 1.558234 0
M  V30 35 H 3.750704 5.723241 0.526523 0
M  V30 36 H 4.513645 2.671764 1.083352 0
M  V30 37 H 2.973477 2.170143 1.829531 0
M  V30 38 H 3.721973 3.746530 2.353505 0
M  V30 39 H 2.131821 1.437457 -2.410046 0
M  V30 40 H 2.820981 -0.337809 -3.713920 0
M  V30 41 H 1.214853 -0.259089 -4.564322 0
M  V30 42 H 2.077757 -1.860507 -4.261532 0
M  V30 43 H -4.234663 -2.243349 1.402179 0
M  V30 END ATOM
M  V30 BEGIN BOND
M  V30 1 1 1 2
M  V30 2 1 2 3
M  V30 3 2 3 4
M  V30 4 1 4 5
M  V30 5 1 5 6
M  V30 6 1 6 7
M  V30 7 2 7 8
M  V30 8 1 8 9
M  V30 9 2 9 10
M  V30 10 1 10 11
M  V30 11 2 11 12
M  V30 12 1 12 13
M  V30 13 2 13 14
M  V30 14 1 14 15
M  V30 15 1 15 16
M  V30 16 1 10 17
M  V30 17 2 17 18
M  V30 18 1 18 19
M  V30 19 1 19 20
M  V30 20 2 5 21
M  V30 21 1 21 22
M  V30 22 2 22 23
M  V30 23 1 23 24
M  V30 24 1 24 25
M  V30 25 1 24 26
M  V30 26 1 24 27
M  V30 27 1 23 3
M  V30 28 1 18 7
M  V30 29 1 15 11
M  V30 30 1 1 28
M  V30 31 1 1 29
M  V30 32 1 1 30
M  V30 33 1 2 31
M  V30 34 1 6 32
M  V30 35 1 8 33
M  V30 36 1 9 34
M  V30 37 1 14 35
M  V30 38 1 16 36
M  V30 39 1 16 37
M  V30 40 1 16 38
M  V30 41 1 17 39
M  V30 42 1 20 40
M  V30 43 1 20 41
M  V30 44 1 20 42
M  V30 45 1 22 43
M  V30 END BOND
M  V30 END CTAB
M  END
>  <Dataset>  (516) 
ChEMBL_Kinases

>  <Ligand_Instance>  (516) 
nan

>  <PDB_ID>  (516) 
nan

>  <Standardized_SMILES>  (516) 
CNc1nc(Nc2ccc(-c3nncn3C)cc2OC)ncc1C(F)(F)F

>  <Name>  (516) 
nan

>  <Pocket>  (516) 
nan

>  <ATP_Site>  (516) 
nan

>  <Peripheral>  (516) 
nan

>  <Num_H_Atoms_ProtBoundConf>  (516) 
nan

>  <Num_Resolved_Atoms>  (516) 
nan

>  <Num_Not_Resolved_Atoms>  (516) 
nan

$$$$
CHEMBL3681043
     RDKit          3D

  0  0  0  0  0  0  0  0  0  0999 V3000
M  V30 BEGIN CTAB
M  V30 COUNTS 47 49 0 0 0
M  V30 BEGIN ATOM
M  V30 1 C -0.842887 -5.207244 2.522554 0
M  V30 2 N -1.396202 -4.216042 1.630059 0
M  V30 3 C -2.676807 -3.683594 1.722358 0
M  V30 4 N -2.198170 -2.644171 0.864577 0
M  V30 5 C -2.807072 -1.577507 0.364573 0
M  V30 6 N -2.339843 -0.451072 -0.444513 0
M  V30 7 C -0.967763 0.030003 -0.362811 0
M  V30 8 C -0.087563 -0.550545 0.536910 0
M  V30 9 C 1.204987 -0.076952 0.655193 0
M  V30 10 C 1.679381 0.959536 -0.083513 0
M  V30 11 C 3.032521 1.471609 0.066366 0
M  V30 12 C 4.032299 1.830260 -0.856992 0
M  V30 13 N 5.094642 2.240327 -0.163937 0
M  V30 14 N 4.936068 2.204560 1.132036 0
M  V30 15 C 5.842930 2.566207 2.206321 0
M  V30 16 C 3.694367 1.742641 1.263844 0
M  V30 17 C 3.023621 1.518033 2.590414 0
M  V30 18 C 0.778891 1.510420 -0.967761 0
M  V30 19 C -0.524272 1.083906 -1.133291 0
M  V30 20 O -1.477743 1.589314 -1.999886 0
M  V30 21 C -1.262767 2.663699 -2.885588 0
M  V30 22 N -4.081182 -1.375801 0.665819 0
M  V30 23 C -4.751180 -2.217216 1.455104 0
M  V30 24 C -3.870482 -3.167509 1.786664 0
M  V30 25 C -4.355263 -4.329927 2.664343 0
M  V30 26 F -3.648656 -4.385702 3.806832 0
M  V30 27 F -4.315482 -5.496288 1.978902 0
M  V30 28 F -5.665073 -4.041143 3.040437 0
M  V30 29 H -0.913009 -6.235864 2.070143 0
M  V30 30 H 0.253679 -5.073307 2.747690 0
M  V30 31 H -1.312719 -5.198426 3.528599 0
M  V30 32 H -0.549226 -4.249184 1.058829 0
M  V30 33 H -2.938518 0.025521 -1.118902 0
M  V30 34 H -0.322547 -1.374161 1.188436 0
M  V30 35 H 1.883781 -0.555457 1.365159 0
M  V30 36 H 3.853530 1.745637 -1.926451 0
M  V30 37 H 5.274398 2.891270 3.105299 0
M  V30 38 H 6.597056 3.290312 1.894391 0
M  V30 39 H 6.423339 1.660994 2.543181 0
M  V30 40 H 3.296544 0.497659 2.974609 0
M  V30 41 H 1.921668 1.509616 2.473344 0
M  V30 42 H 3.369784 2.246592 3.338739 0
M  V30 43 H 1.091935 2.358927 -1.596553 0
M  V30 44 H -1.853702 2.480067 -3.830665 0
M  V30 45 H -0.177363 2.722871 -3.129868 0
M  V30 46 H -1.625208 3.618189 -2.459822 0
M  V30 47 H -5.734634 -2.295330 1.840420 0
M  V30 END ATOM
M  V30 BEGIN BOND
M  V30 1 1 1 2
M  V30 2 1 2 3
M  V30 3 2 3 4
M  V30 4 1 4 5
M  V30 5 1 5 6
M  V30 6 1 6 7
M  V30 7 2 7 8
M  V30 8 1 8 9
M  V30 9 2 9 10
M  V30 10 1 10 11
M  V30 11 1 11 12
M  V30 12 2 12 13
M  V30 13 1 13 14
M  V30 14 1 14 15
M  V30 15 1 14 16
M  V30 16 1 16 17
M  V30 17 1 10 18
M  V30 18 2 18 19
M  V30 19 1 19 20
M  V30 20 1 20 21
M  V30 21 2 5 22
M  V30 22 1 22 23
M  V30 23 2 23 24
M  V30 24 1 24 25
M  V30 25 1 25 26
M  V30 26 1 25 27
M  V30 27 1 25 28
M  V30 28 1 24 3
M  V30 29 1 19 7
M  V30 30 2 16 11
M  V30 31 1 1 29
M  V30 32 1 1 30
M  V30 33 1 1 31
M  V30 34 1 2 32
M  V30 35 1 6 33
M  V30 36 1 8 34
M  V30 37 1 9 35
M  V30 38 1 12 36
M  V30 39 1 15 37
M  V30 40 1 15 38
M  V30 41 1 15 39
M  V30 42 1 17 40
M  V30 43 1 17 41
M  V30 44 1 17 42
M  V30 45 1 18 43
M  V30 46 1 21 44
M  V30 47 1 21 45
M  V30 48 1 21 46
M  V30 49 1 23 47
M  V30 END BOND
M  V30 END CTAB
M  END
>  <Dataset>  (517) 
ChEMBL_Kinases

>  <Ligand_Instance>  (517) 
nan

>  <PDB_ID>  (517) 
nan

>  <Standardized_SMILES>  (517) 
CNc1nc(Nc2ccc(-c3cnn(C)c3C)cc2OC)ncc1C(F)(F)F

>  <Name>  (517) 
nan

>  <Pocket>  (517) 
nan

>  <ATP_Site>  (517) 
nan

>  <Peripheral>  (517) 
nan

>  <Num_H_Atoms_ProtBoundConf>  (517) 
nan

>  <Num_Resolved_Atoms>  (517) 
nan

>  <Num_Not_Resolved_Atoms>  (517) 
nan

$$$$
CHEMBL3681042
     RDKit          3D

  0  0  0  0  0  0  0  0  0  0999 V3000
M  V30 BEGIN CTAB
M  V30 COUNTS 47 49 0 0 0
M  V30 BEGIN ATOM
M  V30 1 C 0.230782 -4.927944 1.360456 0
M  V30 2 N -0.926409 -5.336515 0.568856 0
M  V30 3 C -1.767877 -4.430531 -0.137165 0
M  V30 4 N -1.493354 -3.121514 -0.080118 0
M  V30 5 C -2.197890 -2.163317 -0.692374 0
M  V30 6 N -1.918952 -0.772251 -0.640988 0
M  V30 7 C -0.876984 -0.092493 0.037991 0
M  V30 8 C 0.091917 -0.702689 0.803092 0
M  V30 9 C 1.118861 -0.080545 1.477390 0
M  V30 10 C 1.198038 1.292648 1.386673 0
M  V30 11 C 2.228141 2.086656 2.044766 0
M  V30 12 C 2.968237 3.133093 1.494041 0
M  V30 13 N 3.827014 3.618205 2.422886 0
M  V30 14 C 4.733965 4.720977 2.134170 0
M  V30 15 N 3.657327 2.913272 3.549077 0
M  V30 16 C 2.694497 1.982583 3.339436 0
M  V30 17 C 2.240681 1.020963 4.365199 0
M  V30 18 C 0.256622 1.961837 0.635058 0
M  V30 19 C -0.747245 1.284754 -0.016666 0
M  V30 20 O -1.664216 2.015290 -0.757243 0
M  V30 21 C -1.578019 3.432347 -0.847622 0
M  V30 22 N -3.253880 -2.572964 -1.410900 0
M  V30 23 C -3.589279 -3.856120 -1.514718 0
M  V30 24 C -2.849171 -4.823330 -0.875800 0
M  V30 25 C -3.196735 -6.257587 -0.972487 0
M  V30 26 F -3.453714 -6.749109 0.282468 0
M  V30 27 F -2.116024 -6.925892 -1.495822 0
M  V30 28 F -4.253460 -6.460458 -1.841199 0
M  V30 29 H 1.140757 -4.841133 0.715850 0
M  V30 30 H 0.006543 -3.966096 1.891712 0
M  V30 31 H 0.432259 -5.706464 2.103182 0
M  V30 32 H -1.158395 -6.372594 0.513686 0
M  V30 33 H -2.568879 -0.125953 -1.179888 0
M  V30 34 H 0.099058 -1.772446 0.923414 0
M  V30 35 H 1.850804 -0.593242 2.060936 0
M  V30 36 H 2.807920 3.438241 0.469723 0
M  V30 37 H 4.170304 5.693909 2.070557 0
M  V30 38 H 5.491532 4.827315 2.949902 0
M  V30 39 H 5.248626 4.612766 1.155187 0
M  V30 40 H 2.947659 0.172313 4.471163 0
M  V30 41 H 1.194864 0.683536 4.194614 0
M  V30 42 H 2.276448 1.549365 5.362670 0
M  V30 43 H 0.293858 3.040966 0.545721 0
M  V30 44 H -2.394622 3.848431 -1.468968 0
M  V30 45 H -0.614105 3.655902 -1.348025 0
M  V30 46 H -1.551240 3.905106 0.170017 0
M  V30 47 H -4.446180 -4.183560 -2.098314 0
M  V30 END ATOM
M  V30 BEGIN BOND
M  V30 1 1 1 2
M  V30 2 1 2 3
M  V30 3 2 3 4
M  V30 4 1 4 5
M  V30 5 1 5 6
M  V30 6 1 6 7
M  V30 7 2 7 8
M  V30 8 1 8 9
M  V30 9 2 9 10
M  V30 10 1 10 11
M  V30 11 2 11 12
M  V30 12 1 12 13
M  V30 13 1 13 14
M  V30 14 1 13 15
M  V30 15 2 15 16
M  V30 16 1 16 17
M  V30 17 1 10 18
M  V30 18 2 18 19
M  V30 19 1 19 20
M  V30 20 1 20 21
M  V30 21 2 5 22
M  V30 22 1 22 23
M  V30 23 2 23 24
M  V30 24 1 24 25
M  V30 25 1 25 26
M  V30 26 1 25 27
M  V30 27 1 25 28
M  V30 28 1 24 3
M  V30 29 1 19 7
M  V30 30 1 16 11
M  V30 31 1 1 29
M  V30 32 1 1 30
M  V30 33 1 1 31
M  V30 34 1 2 32
M  V30 35 1 6 33
M  V30 36 1 8 34
M  V30 37 1 9 35
M  V30 38 1 12 36
M  V30 39 1 14 37
M  V30 40 1 14 38
M  V30 41 1 14 39
M  V30 42 1 17 40
M  V30 43 1 17 41
M  V30 44 1 17 42
M  V30 45 1 18 43
M  V30 46 1 21 44
M  V30 47 1 21 45
M  V30 48 1 21 46
M  V30 49 1 23 47
M  V30 END BOND
M  V30 END CTAB
M  END
>  <Dataset>  (518) 
ChEMBL_Kinases

>  <Ligand_Instance>  (518) 
nan

>  <PDB_ID>  (518) 
nan

>  <Standardized_SMILES>  (518) 
CNc1nc(Nc2ccc(-c3cn(C)nc3C)cc2OC)ncc1C(F)(F)F

>  <Name>  (518) 
nan

>  <Pocket>  (518) 
nan

>  <ATP_Site>  (518) 
nan

>  <Peripheral>  (518) 
nan

>  <Num_H_Atoms_ProtBoundConf>  (518) 
nan

>  <Num_Resolved_Atoms>  (518) 
nan

>  <Num_Not_Resolved_Atoms>  (518) 
nan

$$$$
CHEMBL3681041
     RDKit          3D

  0  0  0  0  0  0  0  0  0  0999 V3000
M  V30 BEGIN CTAB
M  V30 COUNTS 39 41 0 0 0
M  V30 BEGIN ATOM
M  V30 1 C -0.330881 -5.955322 0.819931 0
M  V30 2 N -1.608224 -5.622843 1.412619 0
M  V30 3 C -1.755019 -4.393208 2.088890 0
M  V30 4 N -0.729812 -3.510251 2.199907 0
M  V30 5 C -0.886234 -2.323564 2.857445 0
M  V30 6 N 0.228875 -1.453940 2.931371 0
M  V30 7 C 0.659431 -0.405141 2.071445 0
M  V30 8 C -0.108038 -0.142258 0.954460 0
M  V30 9 C 0.252110 0.864444 0.076725 0
M  V30 10 O -0.413807 1.241356 -1.077049 0
M  V30 11 C -1.597467 0.591322 -1.490042 0
M  V30 12 C 1.408087 1.586225 0.372442 0
M  V30 13 C 1.876900 2.673477 -0.491884 0
M  V30 14 N 1.281496 3.099945 -1.630751 0
M  V30 15 N 1.981597 4.097232 -2.146120 0
M  V30 16 C 3.033755 4.303316 -1.321143 0
M  V30 17 C 4.146876 5.298948 -1.410521 0
M  V30 18 O 2.939249 3.436198 -0.345197 0
M  V30 19 C 2.163293 1.306804 1.497242 0
M  V30 20 C 1.805449 0.302816 2.374042 0
M  V30 21 Cl 2.763429 -0.047511 3.795761 0
M  V30 22 N -2.064730 -1.992945 3.416647 0
M  V30 23 C -3.142018 -2.816910 3.352971 0
M  V30 24 C -2.939003 -4.003382 2.680122 0
M  V30 25 Cl -4.288026 -5.121299 2.556438 0
M  V30 26 H -0.081102 -5.130217 0.115935 0
M  V30 27 H 0.423875 -6.010077 1.653383 0
M  V30 28 H -0.366229 -6.896446 0.242411 0
M  V30 29 H -2.439845 -6.251656 1.367004 0
M  V30 30 H 0.774243 -1.689361 3.790943 0
M  V30 31 H -0.999020 -0.677703 0.700747 0
M  V30 32 H -2.223775 0.280104 -0.625411 0
M  V30 33 H -1.302677 -0.300748 -2.056363 0
M  V30 34 H -2.177900 1.238727 -2.183948 0
M  V30 35 H 3.872910 6.169820 -2.035552 0
M  V30 36 H 4.456783 5.579836 -0.391426 0
M  V30 37 H 5.032232 4.790610 -1.891374 0
M  V30 38 H 3.055149 1.856108 1.734853 0
M  V30 39 H -4.114964 -2.613310 3.779163 0
M  V30 END ATOM
M  V30 BEGIN BOND
M  V30 1 1 1 2
M  V30 2 1 2 3
M  V30 3 2 3 4
M  V30 4 1 4 5
M  V30 5 1 5 6
M  V30 6 1 6 7
M  V30 7 2 7 8
M  V30 8 1 8 9
M  V30 9 1 9 10
M  V30 10 1 10 11
M  V30 11 2 9 12
M  V30 12 1 12 13
M  V30 13 2 13 14
M  V30 14 1 14 15
M  V30 15 2 15 16
M  V30 16 1 16 17
M  V30 17 1 16 18
M  V30 18 1 12 19
M  V30 19 2 19 20
M  V30 20 1 20 21
M  V30 21 2 5 22
M  V30 22 1 22 23
M  V30 23 2 23 24
M  V30 24 1 24 25
M  V30 25 1 24 3
M  V30 26 1 20 7
M  V30 27 1 18 13
M  V30 28 1 1 26
M  V30 29 1 1 27
M  V30 30 1 1 28
M  V30 31 1 2 29
M  V30 32 1 6 30
M  V30 33 1 8 31
M  V30 34 1 11 32
M  V30 35 1 11 33
M  V30 36 1 11 34
M  V30 37 1 17 35
M  V30 38 1 17 36
M  V30 39 1 17 37
M  V30 40 1 19 38
M  V30 41 1 23 39
M  V30 END BOND
M  V30 END CTAB
M  END
>  <Dataset>  (519) 
ChEMBL_Kinases

>  <Ligand_Instance>  (519) 
nan

>  <PDB_ID>  (519) 
nan

>  <Standardized_SMILES>  (519) 
CNc1nc(Nc2cc(OC)c(-c3nnc(C)o3)cc2Cl)ncc1Cl

>  <Name>  (519) 
nan

>  <Pocket>  (519) 
nan

>  <ATP_Site>  (519) 
nan

>  <Peripheral>  (519) 
nan

>  <Num_H_Atoms_ProtBoundConf>  (519) 
nan

>  <Num_Resolved_Atoms>  (519) 
nan

>  <Num_Not_Resolved_Atoms>  (519) 
nan

$$$$
CHEMBL3681040
     RDKit          3D

  0  0  0  0  0  0  0  0  0  0999 V3000
M  V30 BEGIN CTAB
M  V30 COUNTS 39 41 0 0 0
M  V30 BEGIN ATOM
M  V30 1 C 0.719855 -5.218694 1.173528 0
M  V30 2 N -0.577229 -5.457340 1.795752 0
M  V30 3 C -1.402332 -4.414879 2.275871 0
M  V30 4 N -1.164275 -3.091495 2.255987 0
M  V30 5 C -1.988614 -2.138428 2.730111 0
M  V30 6 N -1.356440 -0.933320 2.465850 0
M  V30 7 C -0.732703 0.239427 2.182391 0
M  V30 8 C -0.345806 -0.047478 0.852899 0
M  V30 9 C 0.365355 0.834072 0.024536 0
M  V30 10 O 0.892740 0.908846 -1.238587 0
M  V30 11 C 0.826374 -0.093250 -2.221115 0
M  V30 12 C 0.674430 2.048252 0.622863 0
M  V30 13 C 1.472775 3.178749 0.177678 0
M  V30 14 N 2.228282 2.906713 -0.937087 0
M  V30 15 C 2.930600 3.982059 -1.268160 0
M  V30 16 C 3.921948 4.128657 -2.398224 0
M  V30 17 N 2.610522 4.910209 -0.371830 0
M  V30 18 O 1.729722 4.436029 0.510337 0
M  V30 19 C 0.289283 2.332612 1.936517 0
M  V30 20 C -0.407434 1.451970 2.728933 0
M  V30 21 Cl -0.996460 1.534090 4.350001 0
M  V30 22 N -3.185219 -2.483755 3.292632 0
M  V30 23 C -3.511167 -3.792389 3.358672 0
M  V30 24 C -2.622451 -4.692303 2.857349 0
M  V30 25 Cl -3.133234 -6.369190 2.986644 0
M  V30 26 H 1.532633 -5.610946 1.785590 0
M  V30 27 H 0.717477 -5.593552 0.114545 0
M  V30 28 H 0.881538 -4.103052 1.087016 0
M  V30 29 H -0.891952 -6.451640 1.886380 0
M  V30 30 H -1.505647 -0.666191 3.493734 0
M  V30 31 H -0.447646 -0.900176 0.152324 0
M  V30 32 H 1.813616 -0.563964 -2.284995 0
M  V30 33 H 0.072989 -0.841290 -1.918613 0
M  V30 34 H 0.501777 0.336688 -3.215297 0
M  V30 35 H 4.934942 3.848247 -1.952983 0
M  V30 36 H 3.738863 3.350114 -3.149517 0
M  V30 37 H 4.010085 5.145505 -2.749400 0
M  V30 38 H 0.457848 3.241860 2.534088 0
M  V30 39 H -4.468080 -3.991570 3.819691 0
M  V30 END ATOM
M  V30 BEGIN BOND
M  V30 1 1 1 2
M  V30 2 1 2 3
M  V30 3 2 3 4
M  V30 4 1 4 5
M  V30 5 1 5 6
M  V30 6 1 6 7
M  V30 7 2 7 8
M  V30 8 1 8 9
M  V30 9 1 9 10
M  V30 10 1 10 11
M  V30 11 2 9 12
M  V30 12 1 12 13
M  V30 13 2 13 14
M  V30 14 1 14 15
M  V30 15 1 15 16
M  V30 16 2 15 17
M  V30 17 1 17 18
M  V30 18 1 12 19
M  V30 19 2 19 20
M  V30 20 1 20 21
M  V30 21 2 5 22
M  V30 22 1 22 23
M  V30 23 2 23 24
M  V30 24 1 24 25
M  V30 25 1 24 3
M  V30 26 1 20 7
M  V30 27 1 18 13
M  V30 28 1 1 26
M  V30 29 1 1 27
M  V30 30 1 1 28
M  V30 31 1 2 29
M  V30 32 1 6 30
M  V30 33 1 8 31
M  V30 34 1 11 32
M  V30 35 1 11 33
M  V30 36 1 11 34
M  V30 37 1 16 35
M  V30 38 1 16 36
M  V30 39 1 16 37
M  V30 40 1 19 38
M  V30 41 1 23 39
M  V30 END BOND
M  V30 END CTAB
M  END
>  <Dataset>  (520) 
ChEMBL_Kinases

>  <Ligand_Instance>  (520) 
nan

>  <PDB_ID>  (520) 
nan

>  <Standardized_SMILES>  (520) 
CNc1nc(Nc2cc(OC)c(-c3nc(C)no3)cc2Cl)ncc1Cl

>  <Name>  (520) 
nan

>  <Pocket>  (520) 
nan

>  <ATP_Site>  (520) 
nan

>  <Peripheral>  (520) 
nan

>  <Num_H_Atoms_ProtBoundConf>  (520) 
nan

>  <Num_Resolved_Atoms>  (520) 
nan

>  <Num_Not_Resolved_Atoms>  (520) 
nan

$$$$
CHEMBL3681039
     RDKit          3D

  0  0  0  0  0  0  0  0  0  0999 V3000
M  V30 BEGIN CTAB
M  V30 COUNTS 41 43 0 0 0
M  V30 BEGIN ATOM
M  V30 1 C -0.486082 -6.799926 1.765324 0
M  V30 2 N 0.499731 -6.275641 2.664606 0
M  V30 3 C 0.695757 -4.919331 3.021498 0
M  V30 4 N -0.080174 -3.919449 2.508542 0
M  V30 5 C 0.171536 -2.634780 2.903364 0
M  V30 6 N -0.535266 -1.481060 2.452242 0
M  V30 7 C -0.244164 -0.492460 1.486376 0
M  V30 8 C 0.984200 -0.588927 0.822437 0
M  V30 9 C 1.360542 0.347026 -0.118593 0
M  V30 10 C 0.542320 1.411920 -0.441348 0
M  V30 11 C 0.802269 2.473457 -1.405042 0
M  V30 12 C -0.188593 3.112770 -2.133291 0
M  V30 13 N 0.466244 4.025281 -2.898887 0
M  V30 14 N 1.763914 3.951040 -2.657758 0
M  V30 15 C 2.807472 4.763788 -3.280741 0
M  V30 16 C 2.060486 2.999442 -1.729914 0
M  V30 17 C -0.637184 1.427807 0.253510 0
M  V30 18 C -1.131416 0.573548 1.203696 0
M  V30 19 O -2.290216 0.531875 1.925755 0
M  V30 20 C -3.342520 1.460509 1.854911 0
M  V30 21 N 1.122790 -2.269998 3.759111 0
M  V30 22 C 1.917466 -3.232124 4.293274 0
M  V30 23 C 1.684543 -4.530062 3.912169 0
M  V30 24 Cl 2.729413 -5.770757 4.619832 0
M  V30 25 H -1.408088 -6.178028 1.867735 0
M  V30 26 H -0.144837 -6.721658 0.717532 0
M  V30 27 H -0.689073 -7.867752 1.992826 0
M  V30 28 H 1.145325 -6.968880 3.101402 0
M  V30 29 H -1.435612 -1.402318 2.974318 0
M  V30 30 H 1.646807 -1.416061 1.058789 0
M  V30 31 H 2.304508 0.307813 -0.654243 0
M  V30 32 H -1.239109 2.879742 -2.055718 0
M  V30 33 H 3.592862 4.965306 -2.504572 0
M  V30 34 H 3.206868 4.292257 -4.186814 0
M  V30 35 H 2.415945 5.744241 -3.553814 0
M  V30 36 H 3.025229 2.743726 -1.364977 0
M  V30 37 H -1.343620 2.240185 0.058252 0
M  V30 38 H -2.990439 2.513220 1.877722 0
M  V30 39 H -3.799266 1.328135 0.851168 0
M  V30 40 H -4.125884 1.287787 2.591591 0
M  V30 41 H 2.718150 -3.007711 5.002814 0
M  V30 END ATOM
M  V30 BEGIN BOND
M  V30 1 1 1 2
M  V30 2 1 2 3
M  V30 3 2 3 4
M  V30 4 1 4 5
M  V30 5 1 5 6
M  V30 6 1 6 7
M  V30 7 2 7 8
M  V30 8 1 8 9
M  V30 9 2 9 10
M  V30 10 1 10 11
M  V30 11 1 11 12
M  V30 12 2 12 13
M  V30 13 1 13 14
M  V30 14 1 14 15
M  V30 15 1 14 16
M  V30 16 1 10 17
M  V30 17 2 17 18
M  V30 18 1 18 19
M  V30 19 1 19 20
M  V30 20 2 5 21
M  V30 21 1 21 22
M  V30 22 2 22 23
M  V30 23 1 23 24
M  V30 24 1 23 3
M  V30 25 1 18 7
M  V30 26 2 16 11
M  V30 27 1 1 25
M  V30 28 1 1 26
M  V30 29 1 1 27
M  V30 30 1 2 28
M  V30 31 1 6 29
M  V30 32 1 8 30
M  V30 33 1 9 31
M  V30 34 1 12 32
M  V30 35 1 15 33
M  V30 36 1 15 34
M  V30 37 1 15 35
M  V30 38 1 16 36
M  V30 39 1 17 37
M  V30 40 1 20 38
M  V30 41 1 20 39
M  V30 42 1 20 40
M  V30 43 1 22 41
M  V30 END BOND
M  V30 END CTAB
M  END
>  <Dataset>  (521) 
ChEMBL_Kinases

>  <Ligand_Instance>  (521) 
nan

>  <PDB_ID>  (521) 
nan

>  <Standardized_SMILES>  (521) 
CNc1nc(Nc2ccc(-c3cnn(C)c3)cc2OC)ncc1Cl

>  <Name>  (521) 
nan

>  <Pocket>  (521) 
nan

>  <ATP_Site>  (521) 
nan

>  <Peripheral>  (521) 
nan

>  <Num_H_Atoms_ProtBoundConf>  (521) 
nan

>  <Num_Resolved_Atoms>  (521) 
nan

>  <Num_Not_Resolved_Atoms>  (521) 
nan

$$$$
CHEMBL3681038
     RDKit          3D

  0  0  0  0  0  0  0  0  0  0999 V3000
M  V30 BEGIN CTAB
M  V30 COUNTS 35 37 0 0 0
M  V30 BEGIN ATOM
M  V30 1 C -1.951637 -4.523689 2.409723 0
M  V30 2 N -1.418386 -3.990859 3.671784 0
M  V30 3 C -0.220273 -3.222535 3.620455 0
M  V30 4 N 0.415864 -2.986586 2.435339 0
M  V30 5 C 1.533760 -2.278546 2.326807 0
M  V30 6 N 2.005057 -2.172557 0.988781 0
M  V30 7 C 1.584154 -1.105142 0.144983 0
M  V30 8 C 0.696443 -0.151293 0.636617 0
M  V30 9 C 0.222664 0.929696 -0.104570 0
M  V30 10 C 0.682663 1.040923 -1.421773 0
M  V30 11 C 0.231720 2.149079 -2.268287 0
M  V30 12 N -0.627141 3.123334 -1.886846 0
M  V30 13 C -0.836991 3.989405 -2.895674 0
M  V30 14 C -1.759450 5.128743 -2.649452 0
M  V30 15 N -0.070718 3.504937 -3.911143 0
M  V30 16 O 0.533093 2.429738 -3.494477 0
M  V30 17 C 1.562424 0.115528 -1.943797 0
M  V30 18 C 2.001935 -0.937096 -1.168849 0
M  V30 19 Cl 3.129778 -2.140538 -1.807892 0
M  V30 20 N 2.113132 -1.741380 3.415872 0
M  V30 21 C 1.553610 -1.920940 4.646579 0
M  V30 22 C 0.391948 -2.660665 4.732657 0
M  V30 23 Cl -0.382466 -2.929214 6.301592 0
M  V30 24 H -2.118245 -3.700945 1.683079 0
M  V30 25 H -2.895970 -5.044138 2.566531 0
M  V30 26 H -1.211444 -5.227059 2.000740 0
M  V30 27 H -1.823921 -4.111606 4.626473 0
M  V30 28 H 2.673592 -2.854464 0.550785 0
M  V30 29 H 0.312389 -0.204246 1.666266 0
M  V30 30 H -0.460872 1.637143 0.321309 0
M  V30 31 H -1.953326 5.676680 -3.590409 0
M  V30 32 H -1.275320 5.847819 -1.928995 0
M  V30 33 H -2.695011 4.748585 -2.186559 0
M  V30 34 H 1.927166 0.197168 -2.976477 0
M  V30 35 H 2.023943 -1.486735 5.518116 0
M  V30 END ATOM
M  V30 BEGIN BOND
M  V30 1 1 1 2
M  V30 2 1 2 3
M  V30 3 2 3 4
M  V30 4 1 4 5
M  V30 5 1 5 6
M  V30 6 1 6 7
M  V30 7 2 7 8
M  V30 8 1 8 9
M  V30 9 2 9 10
M  V30 10 1 10 11
M  V30 11 2 11 12
M  V30 12 1 12 13
M  V30 13 1 13 14
M  V30 14 2 13 15
M  V30 15 1 15 16
M  V30 16 1 10 17
M  V30 17 2 17 18
M  V30 18 1 18 19
M  V30 19 2 5 20
M  V30 20 1 20 21
M  V30 21 2 21 22
M  V30 22 1 22 23
M  V30 23 1 22 3
M  V30 24 1 18 7
M  V30 25 1 16 11
M  V30 26 1 1 24
M  V30 27 1 1 25
M  V30 28 1 1 26
M  V30 29 1 2 27
M  V30 30 1 6 28
M  V30 31 1 8 29
M  V30 32 1 9 30
M  V30 33 1 14 31
M  V30 34 1 14 32
M  V30 35 1 14 33
M  V30 36 1 17 34
M  V30 37 1 21 35
M  V30 END BOND
M  V30 END CTAB
M  END
>  <Dataset>  (522) 
ChEMBL_Kinases

>  <Ligand_Instance>  (522) 
nan

>  <PDB_ID>  (522) 
nan

>  <Standardized_SMILES>  (522) 
CNc1nc(Nc2ccc(-c3nc(C)no3)cc2Cl)ncc1Cl

>  <Name>  (522) 
nan

>  <Pocket>  (522) 
nan

>  <ATP_Site>  (522) 
nan

>  <Peripheral>  (522) 
nan

>  <Num_H_Atoms_ProtBoundConf>  (522) 
nan

>  <Num_Resolved_Atoms>  (522) 
nan

>  <Num_Not_Resolved_Atoms>  (522) 
nan

$$$$
CHEMBL3681037
     RDKit          3D

  0  0  0  0  0  0  0  0  0  0999 V3000
M  V30 BEGIN CTAB
M  V30 COUNTS 35 37 0 0 0
M  V30 BEGIN ATOM
M  V30 1 C -1.767049 -4.435251 1.176156 0
M  V30 2 N -1.581777 -3.989545 2.539275 0
M  V30 3 C -0.462085 -3.243891 2.964761 0
M  V30 4 N 0.533229 -2.879439 2.127278 0
M  V30 5 C 1.592796 -2.157021 2.567817 0
M  V30 6 N 2.542216 -1.851743 1.524700 0
M  V30 7 C 2.067953 -0.816055 0.650130 0
M  V30 8 C 0.820701 -0.223220 0.782630 0
M  V30 9 C 0.287587 0.760164 -0.017773 0
M  V30 10 C 1.081205 1.196821 -1.057804 0
M  V30 11 C 0.483803 2.263202 -1.887924 0
M  V30 12 N 0.992755 2.856714 -2.981452 0
M  V30 13 N 0.095693 3.746872 -3.371715 0
M  V30 14 C -0.972063 3.736490 -2.557967 0
M  V30 15 C -2.295793 4.391418 -2.346686 0
M  V30 16 O -0.680655 2.814304 -1.674604 0
M  V30 17 C 2.317664 0.679028 -1.271840 0
M  V30 18 C 2.770698 -0.303408 -0.418579 0
M  V30 19 Cl 4.388353 -0.954867 -0.720715 0
M  V30 20 N 1.721445 -1.760312 3.855640 0
M  V30 21 C 0.764947 -2.084790 4.768452 0
M  V30 22 C -0.283653 -2.817539 4.257331 0
M  V30 23 Cl -1.532031 -3.246672 5.437267 0
M  V30 24 H -1.971058 -5.538802 1.131454 0
M  V30 25 H -2.642520 -3.937900 0.683466 0
M  V30 26 H -0.867436 -4.170283 0.572135 0
M  V30 27 H -2.319031 -4.229044 3.262347 0
M  V30 28 H 3.504210 -2.215598 1.265731 0
M  V30 29 H 0.168659 -0.557872 1.605925 0
M  V30 30 H -0.712143 1.141421 0.197246 0
M  V30 31 H -3.108635 3.657305 -2.150711 0
M  V30 32 H -2.561022 5.036894 -3.189490 0
M  V30 33 H -2.225482 5.016336 -1.408538 0
M  V30 34 H 2.911834 1.035849 -2.087538 0
M  V30 35 H 0.830851 -1.791021 5.802886 0
M  V30 END ATOM
M  V30 BEGIN BOND
M  V30 1 1 1 2
M  V30 2 1 2 3
M  V30 3 2 3 4
M  V30 4 1 4 5
M  V30 5 1 5 6
M  V30 6 1 6 7
M  V30 7 2 7 8
M  V30 8 1 8 9
M  V30 9 2 9 10
M  V30 10 1 10 11
M  V30 11 2 11 12
M  V30 12 1 12 13
M  V30 13 2 13 14
M  V30 14 1 14 15
M  V30 15 1 14 16
M  V30 16 1 10 17
M  V30 17 2 17 18
M  V30 18 1 18 19
M  V30 19 2 5 20
M  V30 20 1 20 21
M  V30 21 2 21 22
M  V30 22 1 22 23
M  V30 23 1 22 3
M  V30 24 1 18 7
M  V30 25 1 16 11
M  V30 26 1 1 24
M  V30 27 1 1 25
M  V30 28 1 1 26
M  V30 29 1 2 27
M  V30 30 1 6 28
M  V30 31 1 8 29
M  V30 32 1 9 30
M  V30 33 1 15 31
M  V30 34 1 15 32
M  V30 35 1 15 33
M  V30 36 1 17 34
M  V30 37 1 21 35
M  V30 END BOND
M  V30 END CTAB
M  END
>  <Dataset>  (523) 
ChEMBL_Kinases

>  <Ligand_Instance>  (523) 
nan

>  <PDB_ID>  (523) 
nan

>  <Standardized_SMILES>  (523) 
CNc1nc(Nc2ccc(-c3nnc(C)o3)cc2Cl)ncc1Cl

>  <Name>  (523) 
nan

>  <Pocket>  (523) 
nan

>  <ATP_Site>  (523) 
nan

>  <Peripheral>  (523) 
nan

>  <Num_H_Atoms_ProtBoundConf>  (523) 
nan

>  <Num_Resolved_Atoms>  (523) 
nan

>  <Num_Not_Resolved_Atoms>  (523) 
nan

$$$$
CHEMBL3681036
     RDKit          3D

  0  0  0  0  0  0  0  0  0  0999 V3000
M  V30 BEGIN CTAB
M  V30 COUNTS 44 46 0 0 0
M  V30 BEGIN ATOM
M  V30 1 C -2.182464 -3.628787 2.216884 0
M  V30 2 N -1.742079 -4.269883 0.968211 0
M  V30 3 C -1.650700 -3.438917 -0.206349 0
M  V30 4 N -1.951570 -2.131663 -0.162460 0
M  V30 5 C -1.885683 -1.299425 -1.214422 0
M  V30 6 N -2.264951 0.016327 -0.819531 0
M  V30 7 C -1.224677 0.764377 -0.199959 0
M  V30 8 C 0.059892 0.243947 0.009691 0
M  V30 9 C 1.088647 0.930639 0.616136 0
M  V30 10 O 2.337944 0.374863 0.800388 0
M  V30 11 C 2.737163 -0.914148 0.418026 0
M  V30 12 C 0.853628 2.217747 1.051527 0
M  V30 13 C 1.868867 3.055738 1.706344 0
M  V30 14 C 2.281802 4.371617 1.648112 0
M  V30 15 N 3.310347 4.508454 2.531544 0
M  V30 16 N 3.527741 3.324260 3.115678 0
M  V30 17 C 4.576295 3.121921 4.125910 0
M  V30 18 C 2.662266 2.380206 2.644058 0
M  V30 19 C -0.396268 2.803244 0.878818 0
M  V30 20 C -1.382990 2.063801 0.264892 0
M  V30 21 Cl -2.966800 2.785127 0.037092 0
M  V30 22 N -1.484445 -1.832724 -2.404011 0
M  V30 23 C -1.180715 -3.136359 -2.463566 0
M  V30 24 C -1.242104 -4.018697 -1.381020 0
M  V30 25 C -0.891129 -5.439493 -1.495036 0
M  V30 26 F -1.974595 -6.222978 -1.142246 0
M  V30 27 F -0.599320 -5.685568 -2.845094 0
M  V30 28 F 0.247324 -5.772108 -0.806859 0
M  V30 29 H -1.311665 -3.559764 2.893100 0
M  V30 30 H -2.502698 -2.584245 2.014449 0
M  V30 31 H -3.045754 -4.175042 2.671431 0
M  V30 32 H -1.510509 -5.269451 0.935687 0
M  V30 33 H -3.176444 0.514567 -0.912348 0
M  V30 34 H 0.248268 -0.767908 -0.332207 0
M  V30 35 H 3.833354 -0.844736 0.165707 0
M  V30 36 H 2.259649 -1.240358 -0.543638 0
M  V30 37 H 2.628070 -1.687178 1.195917 0
M  V30 38 H 1.732356 4.968613 0.958522 0
M  V30 39 H 4.568502 2.057669 4.452351 0
M  V30 40 H 4.360669 3.729901 5.019171 0
M  V30 41 H 5.569177 3.311009 3.676173 0
M  V30 42 H 2.707323 1.367834 3.015859 0
M  V30 43 H -0.622315 3.826293 1.211058 0
M  V30 44 H -0.871523 -3.489542 -3.436401 0
M  V30 END ATOM
M  V30 BEGIN BOND
M  V30 1 1 1 2
M  V30 2 1 2 3
M  V30 3 2 3 4
M  V30 4 1 4 5
M  V30 5 1 5 6
M  V30 6 1 6 7
M  V30 7 2 7 8
M  V30 8 1 8 9
M  V30 9 1 9 10
M  V30 10 1 10 11
M  V30 11 2 9 12
M  V30 12 1 12 13
M  V30 13 1 13 14
M  V30 14 2 14 15
M  V30 15 1 15 16
M  V30 16 1 16 17
M  V30 17 1 16 18
M  V30 18 1 12 19
M  V30 19 2 19 20
M  V30 20 1 20 21
M  V30 21 2 5 22
M  V30 22 1 22 23
M  V30 23 2 23 24
M  V30 24 1 24 25
M  V30 25 1 25 26
M  V30 26 1 25 27
M  V30 27 1 25 28
M  V30 28 1 24 3
M  V30 29 1 20 7
M  V30 30 2 18 13
M  V30 31 1 1 29
M  V30 32 1 1 30
M  V30 33 1 1 31
M  V30 34 1 2 32
M  V30 35 1 6 33
M  V30 36 1 8 34
M  V30 37 1 11 35
M  V30 38 1 11 36
M  V30 39 1 11 37
M  V30 40 1 14 38
M  V30 41 1 17 39
M  V30 42 1 17 40
M  V30 43 1 17 41
M  V30 44 1 18 42
M  V30 45 1 19 43
M  V30 46 1 23 44
M  V30 END BOND
M  V30 END CTAB
M  END
>  <Dataset>  (524) 
ChEMBL_Kinases

>  <Ligand_Instance>  (524) 
nan

>  <PDB_ID>  (524) 
nan

>  <Standardized_SMILES>  (524) 
CNc1nc(Nc2cc(OC)c(-c3cnn(C)c3)cc2Cl)ncc1C(F)(F)F

>  <Name>  (524) 
nan

>  <Pocket>  (524) 
nan

>  <ATP_Site>  (524) 
nan

>  <Peripheral>  (524) 
nan

>  <Num_H_Atoms_ProtBoundConf>  (524) 
nan

>  <Num_Resolved_Atoms>  (524) 
nan

>  <Num_Not_Resolved_Atoms>  (524) 
nan

$$$$
CHEMBL3681035
     RDKit          3D

  0  0  0  0  0  0  0  0  0  0999 V3000
M  V30 BEGIN CTAB
M  V30 COUNTS 42 44 0 0 0
M  V30 BEGIN ATOM
M  V30 1 C -1.661681 -4.658961 2.371882 0
M  V30 2 N -0.815752 -5.155266 1.291639 0
M  V30 3 C -0.530708 -4.329681 0.165831 0
M  V30 4 N -1.048584 -3.088896 0.107963 0
M  V30 5 C -0.824125 -2.249873 -0.924555 0
M  V30 6 N -1.456345 -0.964868 -0.815936 0
M  V30 7 C -0.821710 0.165520 -0.215207 0
M  V30 8 C 0.460496 0.001282 0.274228 0
M  V30 9 C 1.186211 1.013887 0.876048 0
M  V30 10 O 2.479322 0.824898 1.362730 0
M  V30 11 C 3.066858 -0.468189 1.228920 0
M  V30 12 C 0.562069 2.239693 0.974500 0
M  V30 13 C 1.290993 3.336349 1.601521 0
M  V30 14 N 0.821899 4.607515 1.776773 0
M  V30 15 C 1.776682 5.345113 2.393258 0
M  V30 16 C 1.656470 6.796520 2.766558 0
M  V30 17 N 2.821587 4.498439 2.583938 0
M  V30 18 O 2.500315 3.330292 2.107204 0
M  V30 19 C -0.715856 2.455156 0.502031 0
M  V30 20 C -1.406667 1.418736 -0.092270 0
M  V30 21 Cl -3.032231 1.618354 -0.714549 0
M  V30 22 N -0.051172 -2.657705 -1.947299 0
M  V30 23 C 0.487584 -3.891116 -1.931179 0
M  V30 24 C 0.272336 -4.773565 -0.881188 0
M  V30 25 C 0.861017 -6.138163 -0.849186 0
M  V30 26 F 1.627402 -6.406982 -1.967234 0
M  V30 27 F 1.617197 -6.293824 0.313647 0
M  V30 28 F -0.168637 -7.075462 -0.768395 0
M  V30 29 H -1.545282 -3.555833 2.500201 0
M  V30 30 H -1.351557 -5.141430 3.306178 0
M  V30 31 H -2.709281 -4.952781 2.171516 0
M  V30 32 H -0.422920 -6.116538 1.351272 0
M  V30 33 H -2.433407 -0.770359 -1.173267 0
M  V30 34 H 0.931820 -0.971712 0.185979 0
M  V30 35 H 2.491217 -1.125705 1.934931 0
M  V30 36 H 4.137758 -0.431894 1.507707 0
M  V30 37 H 2.973127 -0.894320 0.226177 0
M  V30 38 H 2.656592 7.236712 2.752366 0
M  V30 39 H 0.994944 7.313194 2.035180 0
M  V30 40 H 1.247816 6.905467 3.797081 0
M  V30 41 H -1.171705 3.434269 0.598829 0
M  V30 42 H 1.110803 -4.220818 -2.754108 0
M  V30 END ATOM
M  V30 BEGIN BOND
M  V30 1 1 1 2
M  V30 2 1 2 3
M  V30 3 2 3 4
M  V30 4 1 4 5
M  V30 5 1 5 6
M  V30 6 1 6 7
M  V30 7 2 7 8
M  V30 8 1 8 9
M  V30 9 1 9 10
M  V30 10 1 10 11
M  V30 11 2 9 12
M  V30 12 1 12 13
M  V30 13 2 13 14
M  V30 14 1 14 15
M  V30 15 1 15 16
M  V30 16 2 15 17
M  V30 17 1 17 18
M  V30 18 1 12 19
M  V30 19 2 19 20
M  V30 20 1 20 21
M  V30 21 2 5 22
M  V30 22 1 22 23
M  V30 23 2 23 24
M  V30 24 1 24 25
M  V30 25 1 25 26
M  V30 26 1 25 27
M  V30 27 1 25 28
M  V30 28 1 24 3
M  V30 29 1 20 7
M  V30 30 1 18 13
M  V30 31 1 1 29
M  V30 32 1 1 30
M  V30 33 1 1 31
M  V30 34 1 2 32
M  V30 35 1 6 33
M  V30 36 1 8 34
M  V30 37 1 11 35
M  V30 38 1 11 36
M  V30 39 1 11 37
M  V30 40 1 16 38
M  V30 41 1 16 39
M  V30 42 1 16 40
M  V30 43 1 19 41
M  V30 44 1 23 42
M  V30 END BOND
M  V30 END CTAB
M  END
>  <Dataset>  (525) 
ChEMBL_Kinases

>  <Ligand_Instance>  (525) 
nan

>  <PDB_ID>  (525) 
nan

>  <Standardized_SMILES>  (525) 
CNc1nc(Nc2cc(OC)c(-c3nc(C)no3)cc2Cl)ncc1C(F)(F)F

>  <Name>  (525) 
nan

>  <Pocket>  (525) 
nan

>  <ATP_Site>  (525) 
nan

>  <Peripheral>  (525) 
nan

>  <Num_H_Atoms_ProtBoundConf>  (525) 
nan

>  <Num_Resolved_Atoms>  (525) 
nan

>  <Num_Not_Resolved_Atoms>  (525) 
nan

$$$$
CHEMBL3681034
     RDKit          3D

  0  0  0  0  0  0  0  0  0  0999 V3000
M  V30 BEGIN CTAB
M  V30 COUNTS 42 44 0 0 0
M  V30 BEGIN ATOM
M  V30 1 C -2.018112 -4.511815 2.791012 0
M  V30 2 N -1.372276 -5.169224 1.651513 0
M  V30 3 C -1.039972 -4.326209 0.547551 0
M  V30 4 N -1.286312 -3.026979 0.532179 0
M  V30 5 C -1.014468 -2.160787 -0.449061 0
M  V30 6 N -1.397385 -0.825478 -0.134990 0
M  V30 7 C -0.470681 0.213045 0.251833 0
M  V30 8 C 0.868854 -0.182938 0.189833 0
M  V30 9 C 1.878402 0.701261 0.505307 0
M  V30 10 F 3.170779 0.320043 0.444379 0
M  V30 11 C 1.572382 1.989987 0.887372 0
M  V30 12 C 2.652838 2.914494 1.202373 0
M  V30 13 N 2.449393 4.178983 1.632325 0
M  V30 14 N 3.650581 4.743572 1.828891 0
M  V30 15 C 4.579414 3.818645 1.517384 0
M  V30 16 C 6.055895 3.981156 1.579057 0
M  V30 17 O 3.942136 2.714684 1.138678 0
M  V30 18 C 0.257264 2.371551 0.947377 0
M  V30 19 C -0.778383 1.522364 0.640837 0
M  V30 20 O -2.132082 1.765792 0.655811 0
M  V30 21 C -2.684579 3.000010 1.014221 0
M  V30 22 N -0.415070 -2.671535 -1.562434 0
M  V30 23 C -0.121281 -3.979923 -1.648923 0
M  V30 24 C -0.424282 -4.822652 -0.608025 0
M  V30 25 C -0.108017 -6.275489 -0.703312 0
M  V30 26 F 0.519990 -6.607528 -1.882815 0
M  V30 27 F 0.658980 -6.647991 0.370533 0
M  V30 28 F -1.319817 -6.981639 -0.623320 0
M  V30 29 H -1.962547 -5.157125 3.692438 0
M  V30 30 H -1.511543 -3.521477 2.969191 0
M  V30 31 H -3.093167 -4.351687 2.576461 0
M  V30 32 H -1.174138 -6.190417 1.666302 0
M  V30 33 H -2.405473 -0.486140 -0.160681 0
M  V30 34 H 1.176558 -1.194521 -0.104851 0
M  V30 35 H 6.531654 3.115770 1.027190 0
M  V30 36 H 6.442818 3.934928 2.620647 0
M  V30 37 H 6.424703 4.872865 1.032274 0
M  V30 38 H -0.005360 3.356608 1.236953 0
M  V30 39 H -3.243273 3.374960 0.121003 0
M  V30 40 H -1.960279 3.783620 1.299738 0
M  V30 41 H -3.379573 2.928024 1.898871 0
M  V30 42 H 0.350323 -4.303353 -2.559407 0
M  V30 END ATOM
M  V30 BEGIN BOND
M  V30 1 1 1 2
M  V30 2 1 2 3
M  V30 3 2 3 4
M  V30 4 1 4 5
M  V30 5 1 5 6
M  V30 6 1 6 7
M  V30 7 2 7 8
M  V30 8 1 8 9
M  V30 9 1 9 10
M  V30 10 2 9 11
M  V30 11 1 11 12
M  V30 12 2 12 13
M  V30 13 1 13 14
M  V30 14 2 14 15
M  V30 15 1 15 16
M  V30 16 1 15 17
M  V30 17 1 11 18
M  V30 18 2 18 19
M  V30 19 1 19 20
M  V30 20 1 20 21
M  V30 21 2 5 22
M  V30 22 1 22 23
M  V30 23 2 23 24
M  V30 24 1 24 25
M  V30 25 1 25 26
M  V30 26 1 25 27
M  V30 27 1 25 28
M  V30 28 1 24 3
M  V30 29 1 19 7
M  V30 30 1 17 12
M  V30 31 1 1 29
M  V30 32 1 1 30
M  V30 33 1 1 31
M  V30 34 1 2 32
M  V30 35 1 6 33
M  V30 36 1 8 34
M  V30 37 1 16 35
M  V30 38 1 16 36
M  V30 39 1 16 37
M  V30 40 1 18 38
M  V30 41 1 21 39
M  V30 42 1 21 40
M  V30 43 1 21 41
M  V30 44 1 23 42
M  V30 END BOND
M  V30 END CTAB
M  END
>  <Dataset>  (526) 
ChEMBL_Kinases

>  <Ligand_Instance>  (526) 
nan

>  <PDB_ID>  (526) 
nan

>  <Standardized_SMILES>  (526) 
CNc1nc(Nc2cc(F)c(-c3nnc(C)o3)cc2OC)ncc1C(F)(F)F

>  <Name>  (526) 
nan

>  <Pocket>  (526) 
nan

>  <ATP_Site>  (526) 
nan

>  <Peripheral>  (526) 
nan

>  <Num_H_Atoms_ProtBoundConf>  (526) 
nan

>  <Num_Resolved_Atoms>  (526) 
nan

>  <Num_Not_Resolved_Atoms>  (526) 
nan

$$$$
CHEMBL3681033
     RDKit          3D

  0  0  0  0  0  0  0  0  0  0999 V3000
M  V30 BEGIN CTAB
M  V30 COUNTS 45 47 0 0 0
M  V30 BEGIN ATOM
M  V30 1 C -3.171585 -2.275020 3.568120 0
M  V30 2 C -2.284530 -2.341143 2.351221 0
M  V30 3 N -1.337053 -3.429655 2.496550 0
M  V30 4 C -0.330052 -3.662721 1.478844 0
M  V30 5 N -0.308464 -2.829724 0.416518 0
M  V30 6 C 0.595741 -2.950474 -0.579233 0
M  V30 7 N 0.360342 -1.929526 -1.552835 0
M  V30 8 C 0.620831 -0.594020 -1.121018 0
M  V30 9 C 1.105654 -0.344990 0.174546 0
M  V30 10 C 1.375148 0.896907 0.702769 0
M  V30 11 F 1.842101 1.023946 1.973660 0
M  V30 12 C 1.154772 1.994039 -0.099836 0
M  V30 13 C 1.439863 3.299066 0.476314 0
M  V30 14 N 1.276537 4.478172 -0.162533 0
M  V30 15 N 1.653090 5.395635 0.731345 0
M  V30 16 C 2.038013 4.794042 1.890693 0
M  V30 17 C 2.520280 5.515729 3.108710 0
M  V30 18 O 1.886213 3.514590 1.675643 0
M  V30 19 C 0.683335 1.780514 -1.369157 0
M  V30 20 C 0.408046 0.545375 -1.915040 0
M  V30 21 O -0.062743 0.312361 -3.184149 0
M  V30 22 C -0.348301 1.288317 -4.148115 0
M  V30 23 N 1.491689 -3.939068 -0.488616 0
M  V30 24 C 1.501196 -4.795046 0.560838 0
M  V30 25 C 0.599578 -4.704412 1.592774 0
M  V30 26 C 0.488196 -5.560621 2.788065 0
M  V30 27 F -0.768361 -6.171580 2.839391 0
M  V30 28 F 1.420925 -6.578701 2.836980 0
M  V30 29 F 0.633854 -4.843175 3.953163 0
M  V30 30 H -2.980585 -1.330699 4.139360 0
M  V30 31 H -4.224731 -2.332254 3.239024 0
M  V30 32 H -2.958007 -3.097888 4.299168 0
M  V30 33 H -2.892224 -2.473891 1.440063 0
M  V30 34 H -1.748438 -1.363548 2.269054 0
M  V30 35 H -1.396847 -4.033720 3.341086 0
M  V30 36 H 0.025550 -2.024926 -2.535328 0
M  V30 37 H 1.307456 -1.183851 0.859037 0
M  V30 38 H 3.240875 6.303156 2.885474 0
M  V30 39 H 2.985321 4.753615 3.790030 0
M  V30 40 H 1.614591 5.857905 3.659844 0
M  V30 41 H 0.518248 2.666409 -1.984030 0
M  V30 42 H -0.204297 2.322079 -3.831921 0
M  V30 43 H -1.438577 1.161664 -4.404547 0
M  V30 44 H 0.274676 1.093501 -5.064996 0
M  V30 45 H 2.221504 -5.579375 0.623217 0
M  V30 END ATOM
M  V30 BEGIN BOND
M  V30 1 1 1 2
M  V30 2 1 2 3
M  V30 3 1 3 4
M  V30 4 2 4 5
M  V30 5 1 5 6
M  V30 6 1 6 7
M  V30 7 1 7 8
M  V30 8 2 8 9
M  V30 9 1 9 10
M  V30 10 1 10 11
M  V30 11 2 10 12
M  V30 12 1 12 13
M  V30 13 2 13 14
M  V30 14 1 14 15
M  V30 15 2 15 16
M  V30 16 1 16 17
M  V30 17 1 16 18
M  V30 18 1 12 19
M  V30 19 2 19 20
M  V30 20 1 20 21
M  V30 21 1 21 22
M  V30 22 2 6 23
M  V30 23 1 23 24
M  V30 24 2 24 25
M  V30 25 1 25 26
M  V30 26 1 26 27
M  V30 27 1 26 28
M  V30 28 1 26 29
M  V30 29 1 25 4
M  V30 30 1 20 8
M  V30 31 1 18 13
M  V30 32 1 1 30
M  V30 33 1 1 31
M  V30 34 1 1 32
M  V30 35 1 2 33
M  V30 36 1 2 34
M  V30 37 1 3 35
M  V30 38 1 7 36
M  V30 39 1 9 37
M  V30 40 1 17 38
M  V30 41 1 17 39
M  V30 42 1 17 40
M  V30 43 1 19 41
M  V30 44 1 22 42
M  V30 45 1 22 43
M  V30 46 1 22 44
M  V30 47 1 24 45
M  V30 END BOND
M  V30 END CTAB
M  END
>  <Dataset>  (527) 
ChEMBL_Kinases

>  <Ligand_Instance>  (527) 
nan

>  <PDB_ID>  (527) 
nan

>  <Standardized_SMILES>  (527) 
CCNc1nc(Nc2cc(F)c(-c3nnc(C)o3)cc2OC)ncc1C(F)(F)F

>  <Name>  (527) 
nan

>  <Pocket>  (527) 
nan

>  <ATP_Site>  (527) 
nan

>  <Peripheral>  (527) 
nan

>  <Num_H_Atoms_ProtBoundConf>  (527) 
nan

>  <Num_Resolved_Atoms>  (527) 
nan

>  <Num_Not_Resolved_Atoms>  (527) 
nan

$$$$
CHEMBL3680795
     RDKit          3D

  0  0  0  0  0  0  0  0  0  0999 V3000
M  V30 BEGIN CTAB
M  V30 COUNTS 63 67 0 0 0
M  V30 BEGIN ATOM
M  V30 1 C 0.553423 -0.245232 3.977834 0
M  V30 2 N 1.822221 0.313343 3.704225 0
M  V30 3 C 2.607706 -0.663218 3.008191 0
M  V30 4 C 3.783725 -0.088796 2.226462 0
M  V30 5 C 3.106550 0.756065 1.167468 0
M  V30 6 C 3.511939 0.411824 -0.105967 0
M  V30 7 C 2.810298 1.063974 -1.175092 0
M  V30 8 C 1.852304 1.947324 -0.822261 0
M  V30 9 N 0.732059 2.541280 -1.585573 0
M  V30 10 C -0.297918 3.128848 -2.335168 0
M  V30 11 O 0.555331 3.667114 -3.107477 0
M  V30 12 C -1.660197 2.772348 -1.763549 0
M  V30 13 C -2.057905 3.907702 -1.093832 0
M  V30 14 C -3.090952 3.775000 -0.163316 0
M  V30 15 C -3.555467 2.481308 -0.093778 0
M  V30 16 C -3.133350 1.342609 -0.820486 0
M  V30 17 C -3.813398 0.205694 -0.310734 0
M  V30 18 N -3.428144 -1.146707 -0.585215 0
M  V30 19 C -3.887036 -2.369490 -1.239880 0
M  V30 20 O -5.014436 -2.399195 -1.858372 0
M  V30 21 C -2.831545 -3.381845 -0.990554 0
M  V30 22 C -3.345347 -4.084052 0.125560 0
M  V30 23 C -2.516142 -4.886047 0.852007 0
M  V30 24 C -1.154305 -4.920771 0.411336 0
M  V30 25 C -0.654726 -4.233971 -0.703730 0
M  V30 26 C -1.531956 -3.453685 -1.392474 0
M  V30 27 C 0.697782 -4.351715 -1.214939 0
M  V30 28 C 1.669837 -4.997485 -0.248799 0
M  V30 29 C 1.167529 -5.032053 1.152093 0
M  V30 30 O 1.972655 -4.781424 2.101840 0
M  V30 31 N -0.262069 -5.349724 1.383860 0
M  V30 32 C -2.110055 1.504552 -1.730911 0
M  V30 33 C 1.534327 2.224595 0.533205 0
M  V30 34 C 2.193150 1.577016 1.627379 0
M  V30 35 C 1.772681 1.647913 3.031010 0
M  V30 36 H 0.428879 -0.355571 5.087137 0
M  V30 37 H -0.297838 0.334269 3.598128 0
M  V30 38 H 0.427971 -1.280982 3.538919 0
M  V30 39 H 3.058378 -1.284140 3.768771 0
M  V30 40 H 1.995826 -1.290908 2.338638 0
M  V30 41 H 4.346617 -0.920026 1.850263 0
M  V30 42 H 4.296997 0.603731 2.963112 0
M  V30 43 H 4.203183 -0.233943 -0.521664 0
M  V30 44 H 2.972700 0.995264 -2.180443 0
M  V30 45 H 0.153665 1.582709 -1.338446 0
M  V30 46 H -1.659747 4.918928 -1.209868 0
M  V30 47 H -3.503651 4.595174 0.386646 0
M  V30 48 H -4.333522 2.456672 0.710831 0
M  V30 49 H -3.722651 0.243428 0.859047 0
M  V30 50 H -4.957534 0.297208 -0.366463 0
M  V30 51 H -2.373279 -1.045989 -0.285088 0
M  V30 52 H -4.388191 -4.142953 0.515561 0
M  V30 53 H -2.775194 -5.516119 1.679094 0
M  V30 54 H -1.318937 -2.827404 -2.287027 0
M  V30 55 H 0.731289 -5.044318 -2.146620 0
M  V30 56 H 1.064457 -3.396297 -1.541796 0
M  V30 57 H 2.669793 -4.502399 -0.248689 0
M  V30 58 H 1.863002 -6.080190 -0.534940 0
M  V30 59 H -0.439473 -5.889640 2.319852 0
M  V30 60 H -1.804149 0.686666 -2.275241 0
M  V30 61 H 0.860767 3.010372 0.803439 0
M  V30 62 H 0.653281 1.820708 2.962313 0
M  V30 63 H 2.193325 2.450081 3.614465 0
M  V30 END ATOM
M  V30 BEGIN BOND
M  V30 1 1 1 2
M  V30 2 1 2 3
M  V30 3 1 3 4
M  V30 4 1 4 5
M  V30 5 2 5 6
M  V30 6 1 6 7
M  V30 7 2 7 8
M  V30 8 1 8 9
M  V30 9 1 9 10
M  V30 10 2 10 11
M  V30 11 1 10 12
M  V30 12 2 12 13
M  V30 13 1 13 14
M  V30 14 2 14 15
M  V30 15 1 15 16
M  V30 16 1 16 17
M  V30 17 1 17 18
M  V30 18 1 18 19
M  V30 19 2 19 20
M  V30 20 1 19 21
M  V30 21 2 21 22
M  V30 22 1 22 23
M  V30 23 2 23 24
M  V30 24 1 24 25
M  V30 25 2 25 26
M  V30 26 1 25 27
M  V30 27 1 27 28
M  V30 28 1 28 29
M  V30 29 2 29 30
M  V30 30 1 29 31
M  V30 31 2 16 32
M  V30 32 1 8 33
M  V30 33 2 33 34
M  V30 34 1 34 35
M  V30 35 1 35 2
M  V30 36 1 34 5
M  V30 37 1 32 12
M  V30 38 1 26 21
M  V30 39 1 31 24
M  V30 40 1 1 36
M  V30 41 1 1 37
M  V30 42 1 1 38
M  V30 43 1 3 39
M  V30 44 1 3 40
M  V30 45 1 4 41
M  V30 46 1 4 42
M  V30 47 1 6 43
M  V30 48 1 7 44
M  V30 49 1 9 45
M  V30 50 1 13 46
M  V30 51 1 14 47
M  V30 52 1 15 48
M  V30 53 1 17 49
M  V30 54 1 17 50
M  V30 55 1 18 51
M  V30 56 1 22 52
M  V30 57 1 23 53
M  V30 58 1 26 54
M  V30 59 1 27 55
M  V30 60 1 27 56
M  V30 61 1 28 57
M  V30 62 1 28 58
M  V30 63 1 31 59
M  V30 64 1 32 60
M  V30 65 1 33 61
M  V30 66 1 35 62
M  V30 67 1 35 63
M  V30 END BOND
M  V30 END CTAB
M  END
>  <Dataset>  (528) 
ChEMBL_Kinases

>  <Ligand_Instance>  (528) 
nan

>  <PDB_ID>  (528) 
nan

>  <Standardized_SMILES>  (528) 
CN1CCc2ccc(NC(=O)c3cccc(CNC(=O)c4ccc5c(c4)CCC(=O)N5)c3)cc2C1

>  <Name>  (528) 
nan

>  <Pocket>  (528) 
nan

>  <ATP_Site>  (528) 
nan

>  <Peripheral>  (528) 
nan

>  <Num_H_Atoms_ProtBoundConf>  (528) 
nan

>  <Num_Resolved_Atoms>  (528) 
nan

>  <Num_Not_Resolved_Atoms>  (528) 
nan

$$$$
CHEMBL3680796
     RDKit          3D

  0  0  0  0  0  0  0  0  0  0999 V3000
M  V30 BEGIN CTAB
M  V30 COUNTS 62 66 0 0 0
M  V30 BEGIN ATOM
M  V30 1 C 0.311294 -1.058648 5.813178 0
M  V30 2 N 0.572097 -2.466758 5.992531 0
M  V30 3 C -0.674863 -3.180406 6.067672 0
M  V30 4 C -1.128322 -3.818684 4.802520 0
M  V30 5 C -0.593570 -3.175824 3.564989 0
M  V30 6 C -1.420836 -3.066384 2.466545 0
M  V30 7 C -0.833858 -2.453277 1.372946 0
M  V30 8 C 0.490466 -1.986713 1.391636 0
M  V30 9 N 1.086860 -1.358127 0.259339 0
M  V30 10 C 1.808427 -2.012251 -0.770762 0
M  V30 11 O 2.024283 -3.250300 -0.821642 0
M  V30 12 C 2.362593 -1.242439 -1.875135 0
M  V30 13 C 3.130795 -1.842456 -2.859937 0
M  V30 14 C 3.657767 -1.132813 -3.912338 0
M  V30 15 C 3.440958 0.238743 -4.039716 0
M  V30 16 C 2.673304 0.893470 -3.075433 0
M  V30 17 C 2.399846 2.357871 -3.144604 0
M  V30 18 N 1.252498 2.688701 -3.923594 0
M  V30 19 C -0.123196 2.568616 -3.621004 0
M  V30 20 O -0.390117 2.090388 -2.480319 0
M  V30 21 C -1.209730 2.950217 -4.518111 0
M  V30 22 C -0.988394 3.544162 -5.766130 0
M  V30 23 C -2.134898 3.846778 -6.511840 0
M  V30 24 C -3.423299 3.601970 -6.103591 0
M  V30 25 C -3.609496 3.015191 -4.869035 0
M  V30 26 N -4.922463 2.727194 -4.380928 0
M  V30 27 C -6.035452 2.699056 -5.151635 0
M  V30 28 C -7.046719 2.377283 -4.244903 0
M  V30 29 N -6.559047 2.222961 -3.004175 0
M  V30 30 C -5.236420 2.442450 -3.096902 0
M  V30 31 C -2.496733 2.713168 -4.126559 0
M  V30 32 C 2.183165 0.112565 -2.054385 0
M  V30 33 C 1.242713 -2.140557 2.536690 0
M  V30 34 C 0.712988 -2.743311 3.657620 0
M  V30 35 C 1.438038 -2.960644 4.938252 0
M  V30 36 H 1.073143 -0.537254 5.199858 0
M  V30 37 H -0.681849 -0.924183 5.341847 0
M  V30 38 H 0.230368 -0.629792 6.835513 0
M  V30 39 H -0.563710 -3.991161 6.847326 0
M  V30 40 H -1.468961 -2.468478 6.429199 0
M  V30 41 H -0.861177 -4.911869 4.739600 0
M  V30 42 H -2.240457 -3.808757 4.760754 0
M  V30 43 H -2.429792 -3.424889 2.459343 0
M  V30 44 H -1.426463 -2.325537 0.452480 0
M  V30 45 H 0.910511 -0.338863 0.306162 0
M  V30 46 H 3.328293 -2.917406 -2.803622 0
M  V30 47 H 4.265716 -1.578994 -4.699464 0
M  V30 48 H 3.848490 0.807537 -4.858486 0
M  V30 49 H 2.197650 2.705382 -2.087685 0
M  V30 50 H 3.316851 2.868197 -3.440701 0
M  V30 51 H 1.487336 3.084198 -4.872305 0
M  V30 52 H 0.015096 3.739779 -6.099714 0
M  V30 53 H -1.861799 4.303168 -7.461103 0
M  V30 54 H -4.240786 3.873008 -6.753305 0
M  V30 55 H -6.141010 2.880087 -6.218584 0
M  V30 56 H -8.076077 2.285511 -4.610341 0
M  V30 57 H -4.585051 2.386509 -2.247660 0
M  V30 58 H -2.694890 2.252812 -3.157905 0
M  V30 59 H 1.599961 0.646912 -1.323442 0
M  V30 60 H 2.264803 -1.793622 2.585756 0
M  V30 61 H 1.732145 -4.005511 5.091903 0
M  V30 62 H 2.329688 -2.276159 4.941863 0
M  V30 END ATOM
M  V30 BEGIN BOND
M  V30 1 1 1 2
M  V30 2 1 2 3
M  V30 3 1 3 4
M  V30 4 1 4 5
M  V30 5 2 5 6
M  V30 6 1 6 7
M  V30 7 2 7 8
M  V30 8 1 8 9
M  V30 9 1 9 10
M  V30 10 2 10 11
M  V30 11 1 10 12
M  V30 12 2 12 13
M  V30 13 1 13 14
M  V30 14 2 14 15
M  V30 15 1 15 16
M  V30 16 1 16 17
M  V30 17 1 17 18
M  V30 18 1 18 19
M  V30 19 2 19 20
M  V30 20 1 19 21
M  V30 21 2 21 22
M  V30 22 1 22 23
M  V30 23 2 23 24
M  V30 24 1 24 25
M  V30 25 1 25 26
M  V30 26 1 26 27
M  V30 27 2 27 28
M  V30 28 1 28 29
M  V30 29 2 29 30
M  V30 30 2 25 31
M  V30 31 2 16 32
M  V30 32 1 8 33
M  V30 33 2 33 34
M  V30 34 1 34 35
M  V30 35 1 35 2
M  V30 36 1 34 5
M  V30 37 1 32 12
M  V30 38 1 31 21
M  V30 39 1 30 26
M  V30 40 1 1 36
M  V30 41 1 1 37
M  V30 42 1 1 38
M  V30 43 1 3 39
M  V30 44 1 3 40
M  V30 45 1 4 41
M  V30 46 1 4 42
M  V30 47 1 6 43
M  V30 48 1 7 44
M  V30 49 1 9 45
M  V30 50 1 13 46
M  V30 51 1 14 47
M  V30 52 1 15 48
M  V30 53 1 17 49
M  V30 54 1 17 50
M  V30 55 1 18 51
M  V30 56 1 22 52
M  V30 57 1 23 53
M  V30 58 1 24 54
M  V30 59 1 27 55
M  V30 60 1 28 56
M  V30 61 1 30 57
M  V30 62 1 31 58
M  V30 63 1 32 59
M  V30 64 1 33 60
M  V30 65 1 35 61
M  V30 66 1 35 62
M  V30 END BOND
M  V30 END CTAB
M  END
>  <Dataset>  (529) 
ChEMBL_Kinases

>  <Ligand_Instance>  (529) 
nan

>  <PDB_ID>  (529) 
nan

>  <Standardized_SMILES>  (529) 
CN1CCc2ccc(NC(=O)c3cccc(CNC(=O)c4cccc(-n5ccnc5)c4)c3)cc2C1

>  <Name>  (529) 
nan

>  <Pocket>  (529) 
nan

>  <ATP_Site>  (529) 
nan

>  <Peripheral>  (529) 
nan

>  <Num_H_Atoms_ProtBoundConf>  (529) 
nan

>  <Num_Resolved_Atoms>  (529) 
nan

>  <Num_Not_Resolved_Atoms>  (529) 
nan

$$$$
CHEMBL3680797
     RDKit          3D

  0  0  0  0  0  0  0  0  0  0999 V3000
M  V30 BEGIN CTAB
M  V30 COUNTS 61 65 0 0 0
M  V30 BEGIN ATOM
M  V30 1 C 5.752890 -1.217482 6.523219 0
M  V30 2 N 5.138257 -1.403841 5.220760 0
M  V30 3 C 6.143201 -1.919427 4.342723 0
M  V30 4 C 5.876636 -1.767676 2.884860 0
M  V30 5 C 4.629975 -1.059270 2.546965 0
M  V30 6 C 4.075217 -1.211130 1.314694 0
M  V30 7 C 2.889421 -0.519670 1.039342 0
M  V30 8 C 2.296522 0.298486 1.998491 0
M  V30 9 N 1.101437 0.914799 1.533371 0
M  V30 10 C 0.807492 2.140863 0.880558 0
M  V30 11 O 1.686194 2.982279 0.576590 0
M  V30 12 C -0.583610 2.422514 0.554154 0
M  V30 13 C -0.826268 3.640450 -0.044783 0
M  V30 14 C -2.120468 4.026331 -0.412839 0
M  V30 15 C -3.166578 3.170757 -0.170269 0
M  V30 16 C -2.956754 1.946546 0.426580 0
M  V30 17 C -3.999213 0.913148 0.741129 0
M  V30 18 N -4.128920 -0.018087 -0.383048 0
M  V30 19 C -4.793519 0.244311 -1.586708 0
M  V30 20 O -5.356622 1.346694 -1.803738 0
M  V30 21 C -4.829209 -0.799337 -2.617465 0
M  V30 22 C -4.265275 -2.055877 -2.559510 0
M  V30 23 C -4.502182 -2.762759 -3.716691 0
M  V30 24 C -4.053352 -4.119396 -4.000253 0
M  V30 25 C -4.334697 -4.755844 -5.190185 0
M  V30 26 C -3.855755 -6.041679 -5.346334 0
M  V30 27 C -3.120927 -6.729528 -4.402626 0
M  V30 28 N -2.864991 -6.063396 -3.239543 0
M  V30 29 C -3.318834 -4.809032 -3.058743 0
M  V30 30 N -5.215893 -1.919324 -4.475430 0
M  V30 31 N -5.407298 -0.768053 -3.829998 0
M  V30 32 C -1.658009 1.591891 0.781083 0
M  V30 33 C 2.868363 0.446009 3.247695 0
M  V30 34 C 4.033648 -0.255734 3.466019 0
M  V30 35 C 4.669213 -0.117352 4.788191 0
M  V30 36 H 6.305189 -0.256409 6.579336 0
M  V30 37 H 6.440191 -2.069963 6.738753 0
M  V30 38 H 4.951609 -1.159947 7.308111 0
M  V30 39 H 7.175877 -1.562634 4.627752 0
M  V30 40 H 6.199798 -3.025942 4.565134 0
M  V30 41 H 5.900413 -2.742377 2.352677 0
M  V30 42 H 6.740500 -1.197052 2.446804 0
M  V30 43 H 4.547789 -1.852082 0.577190 0
M  V30 44 H 2.497337 -0.679337 0.047445 0
M  V30 45 H 0.427942 0.176968 1.816639 0
M  V30 46 H -0.066267 4.365041 -0.268524 0
M  V30 47 H -2.309268 4.972925 -0.878390 0
M  V30 48 H -4.178832 3.401449 -0.423812 0
M  V30 49 H -3.714865 0.364968 1.659654 0
M  V30 50 H -4.981289 1.390838 0.945045 0
M  V30 51 H -3.676892 -0.965472 -0.260243 0
M  V30 52 H -3.710536 -2.423697 -1.705805 0
M  V30 53 H -4.904015 -4.257590 -5.952787 0
M  V30 54 H -4.037480 -6.603246 -6.253712 0
M  V30 55 H -2.761628 -7.738616 -4.561315 0
M  V30 56 H -3.079441 -4.329656 -2.103096 0
M  V30 57 H -5.938325 0.075327 -4.194691 0
M  V30 58 H -1.450920 0.652505 1.245795 0
M  V30 59 H 2.350557 1.096140 3.934918 0
M  V30 60 H 4.067448 0.389105 5.542103 0
M  V30 61 H 5.567200 0.546953 4.622189 0
M  V30 END ATOM
M  V30 BEGIN BOND
M  V30 1 1 1 2
M  V30 2 1 2 3
M  V30 3 1 3 4
M  V30 4 1 4 5
M  V30 5 2 5 6
M  V30 6 1 6 7
M  V30 7 2 7 8
M  V30 8 1 8 9
M  V30 9 1 9 10
M  V30 10 2 10 11
M  V30 11 1 10 12
M  V30 12 2 12 13
M  V30 13 1 13 14
M  V30 14 2 14 15
M  V30 15 1 15 16
M  V30 16 1 16 17
M  V30 17 1 17 18
M  V30 18 1 18 19
M  V30 19 2 19 20
M  V30 20 1 19 21
M  V30 21 2 21 22
M  V30 22 1 22 23
M  V30 23 1 23 24
M  V30 24 2 24 25
M  V30 25 1 25 26
M  V30 26 2 26 27
M  V30 27 1 27 28
M  V30 28 2 28 29
M  V30 29 2 23 30
M  V30 30 1 30 31
M  V30 31 2 16 32
M  V30 32 1 8 33
M  V30 33 2 33 34
M  V30 34 1 34 35
M  V30 35 1 35 2
M  V30 36 1 34 5
M  V30 37 1 32 12
M  V30 38 1 31 21
M  V30 39 1 29 24
M  V30 40 1 1 36
M  V30 41 1 1 37
M  V30 42 1 1 38
M  V30 43 1 3 39
M  V30 44 1 3 40
M  V30 45 1 4 41
M  V30 46 1 4 42
M  V30 47 1 6 43
M  V30 48 1 7 44
M  V30 49 1 9 45
M  V30 50 1 13 46
M  V30 51 1 14 47
M  V30 52 1 15 48
M  V30 53 1 17 49
M  V30 54 1 17 50
M  V30 55 1 18 51
M  V30 56 1 22 52
M  V30 57 1 25 53
M  V30 58 1 26 54
M  V30 59 1 27 55
M  V30 60 1 29 56
M  V30 61 1 31 57
M  V30 62 1 32 58
M  V30 63 1 33 59
M  V30 64 1 35 60
M  V30 65 1 35 61
M  V30 END BOND
M  V30 END CTAB
M  END
>  <Dataset>  (530) 
ChEMBL_Kinases

>  <Ligand_Instance>  (530) 
nan

>  <PDB_ID>  (530) 
nan

>  <Standardized_SMILES>  (530) 
CN1CCc2ccc(NC(=O)c3cccc(CNC(=O)c4cc(-c5cccnc5)n[nH]4)c3)cc2C1

>  <Name>  (530) 
nan

>  <Pocket>  (530) 
nan

>  <ATP_Site>  (530) 
nan

>  <Peripheral>  (530) 
nan

>  <Num_H_Atoms_ProtBoundConf>  (530) 
nan

>  <Num_Resolved_Atoms>  (530) 
nan

>  <Num_Not_Resolved_Atoms>  (530) 
nan

$$$$
CHEMBL3680798
     RDKit          3D

  0  0  0  0  0  0  0  0  0  0999 V3000
M  V30 BEGIN CTAB
M  V30 COUNTS 61 65 0 0 0
M  V30 BEGIN ATOM
M  V30 1 C 5.502368 -1.553942 6.656842 0
M  V30 2 N 5.086770 -1.575588 5.264874 0
M  V30 3 C 6.296260 -1.779598 4.453946 0
M  V30 4 C 6.027297 -1.744817 2.987186 0
M  V30 5 C 4.721177 -1.104872 2.684458 0
M  V30 6 C 4.286921 -1.296766 1.370902 0
M  V30 7 C 3.068659 -0.727993 1.008397 0
M  V30 8 C 2.318447 0.004525 1.932538 0
M  V30 9 N 1.080039 0.566395 1.518759 0
M  V30 10 C 0.725093 1.813086 0.950874 0
M  V30 11 O 1.558003 2.719010 0.698567 0
M  V30 12 C -0.673423 2.074681 0.637020 0
M  V30 13 C -0.972027 3.309808 0.101868 0
M  V30 14 C -2.274578 3.688231 -0.245201 0
M  V30 15 C -3.289275 2.778927 -0.037907 0
M  V30 16 C -3.030753 1.537579 0.493428 0
M  V30 17 C -4.035382 0.460210 0.762256 0
M  V30 18 N -4.088205 -0.362762 -0.429227 0
M  V30 19 C -4.731487 -0.080358 -1.661266 0
M  V30 20 O -5.356133 0.999328 -1.814075 0
M  V30 21 C -4.719253 -0.984499 -2.802230 0
M  V30 22 C -5.389943 -0.595240 -3.947257 0
M  V30 23 C -5.440462 -1.386452 -5.100641 0
M  V30 24 C -4.810288 -2.601020 -5.128750 0
M  V30 25 C -4.134163 -3.005101 -3.989872 0
M  V30 26 C -3.420851 -4.294263 -3.912281 0
M  V30 27 C -3.376159 -5.178969 -4.956384 0
M  V30 28 N -2.657309 -6.240522 -4.568995 0
M  V30 29 C -2.272298 -5.986765 -3.287966 0
M  V30 30 O -2.734132 -4.815436 -2.898795 0
M  V30 31 C -4.094981 -2.211988 -2.861916 0
M  V30 32 C -1.732353 1.214302 0.818119 0
M  V30 33 C 2.754706 0.189753 3.228919 0
M  V30 34 C 3.951558 -0.380869 3.549430 0
M  V30 35 C 4.573042 -0.279803 4.904062 0
M  V30 36 H 5.498056 -2.592135 7.051984 0
M  V30 37 H 6.496300 -1.081500 6.781512 0
M  V30 38 H 4.774361 -0.976055 7.275076 0
M  V30 39 H 7.075410 -1.063719 4.709659 0
M  V30 40 H 6.676237 -2.793024 4.724428 0
M  V30 41 H 6.073271 -2.770310 2.543466 0
M  V30 42 H 6.797687 -1.152535 2.480659 0
M  V30 43 H 4.834739 -1.855300 0.624478 0
M  V30 44 H 2.653510 -0.825912 0.009023 0
M  V30 45 H 0.433551 -0.212780 1.747239 0
M  V30 46 H -0.232947 4.080876 -0.092147 0
M  V30 47 H -2.489103 4.661549 -0.663661 0
M  V30 48 H -4.313349 2.998832 -0.276734 0
M  V30 49 H -3.773861 -0.145627 1.626880 0
M  V30 50 H -5.015587 0.956573 0.938982 0
M  V30 51 H -3.606732 -1.273052 -0.409747 0
M  V30 52 H -5.917468 0.334829 -4.035724 0
M  V30 53 H -5.964031 -1.072565 -5.981160 0
M  V30 54 H -4.782195 -3.285695 -5.950400 0
M  V30 55 H -3.815469 -5.118791 -5.961943 0
M  V30 56 H -1.682237 -6.649148 -2.696835 0
M  V30 57 H -3.569587 -2.538948 -1.992963 0
M  V30 58 H -1.475681 0.240022 1.243463 0
M  V30 59 H 2.205062 0.749136 3.973454 0
M  V30 60 H 3.901287 0.174692 5.640764 0
M  V30 61 H 5.474077 0.381761 4.745998 0
M  V30 END ATOM
M  V30 BEGIN BOND
M  V30 1 1 1 2
M  V30 2 1 2 3
M  V30 3 1 3 4
M  V30 4 1 4 5
M  V30 5 2 5 6
M  V30 6 1 6 7
M  V30 7 2 7 8
M  V30 8 1 8 9
M  V30 9 1 9 10
M  V30 10 2 10 11
M  V30 11 1 10 12
M  V30 12 2 12 13
M  V30 13 1 13 14
M  V30 14 2 14 15
M  V30 15 1 15 16
M  V30 16 1 16 17
M  V30 17 1 17 18
M  V30 18 1 18 19
M  V30 19 2 19 20
M  V30 20 1 19 21
M  V30 21 2 21 22
M  V30 22 1 22 23
M  V30 23 2 23 24
M  V30 24 1 24 25
M  V30 25 1 25 26
M  V30 26 2 26 27
M  V30 27 1 27 28
M  V30 28 2 28 29
M  V30 29 1 29 30
M  V30 30 2 25 31
M  V30 31 2 16 32
M  V30 32 1 8 33
M  V30 33 2 33 34
M  V30 34 1 34 35
M  V30 35 1 35 2
M  V30 36 1 34 5
M  V30 37 1 32 12
M  V30 38 1 31 21
M  V30 39 1 30 26
M  V30 40 1 1 36
M  V30 41 1 1 37
M  V30 42 1 1 38
M  V30 43 1 3 39
M  V30 44 1 3 40
M  V30 45 1 4 41
M  V30 46 1 4 42
M  V30 47 1 6 43
M  V30 48 1 7 44
M  V30 49 1 9 45
M  V30 50 1 13 46
M  V30 51 1 14 47
M  V30 52 1 15 48
M  V30 53 1 17 49
M  V30 54 1 17 50
M  V30 55 1 18 51
M  V30 56 1 22 52
M  V30 57 1 23 53
M  V30 58 1 24 54
M  V30 59 1 27 55
M  V30 60 1 29 56
M  V30 61 1 31 57
M  V30 62 1 32 58
M  V30 63 1 33 59
M  V30 64 1 35 60
M  V30 65 1 35 61
M  V30 END BOND
M  V30 END CTAB
M  END
>  <Dataset>  (531) 
ChEMBL_Kinases

>  <Ligand_Instance>  (531) 
nan

>  <PDB_ID>  (531) 
nan

>  <Standardized_SMILES>  (531) 
CN1CCc2ccc(NC(=O)c3cccc(CNC(=O)c4cccc(-c5cnco5)c4)c3)cc2C1

>  <Name>  (531) 
nan

>  <Pocket>  (531) 
nan

>  <ATP_Site>  (531) 
nan

>  <Peripheral>  (531) 
nan

>  <Num_H_Atoms_ProtBoundConf>  (531) 
nan

>  <Num_Resolved_Atoms>  (531) 
nan

>  <Num_Not_Resolved_Atoms>  (531) 
nan

$$$$
CHEMBL3680799
     RDKit          3D

  0  0  0  0  0  0  0  0  0  0999 V3000
M  V30 BEGIN CTAB
M  V30 COUNTS 60 64 0 0 0
M  V30 BEGIN ATOM
M  V30 1 C 5.697556 -1.157671 5.106125 0
M  V30 2 N 6.143398 -0.307395 4.009237 0
M  V30 3 C 6.463390 0.984687 4.515010 0
M  V30 4 C 5.965900 2.144136 3.704392 0
M  V30 5 C 4.523298 1.938822 3.421042 0
M  V30 6 C 3.731739 3.048483 3.555999 0
M  V30 7 C 2.389511 2.902356 3.286377 0
M  V30 8 C 1.945386 1.657854 2.903926 0
M  V30 9 N 0.552524 1.447300 2.577793 0
M  V30 10 C 0.637574 1.692926 1.184392 0
M  V30 11 O 1.889998 1.963739 1.005725 0
M  V30 12 C -0.218081 1.725820 -0.020849 0
M  V30 13 C 0.474021 1.870784 -1.177984 0
M  V30 14 C -0.294376 1.896566 -2.351044 0
M  V30 15 C -1.669038 1.774318 -2.232951 0
M  V30 16 C -2.341251 1.626002 -1.007290 0
M  V30 17 C -3.788059 1.503112 -1.247412 0
M  V30 18 N -4.256906 0.130601 -1.206409 0
M  V30 19 C -3.919481 -0.852242 -2.129017 0
M  V30 20 O -3.151413 -0.666442 -3.095908 0
M  V30 21 C -4.504570 -2.207498 -1.969946 0
M  V30 22 C -5.326566 -2.897007 -1.166252 0
M  V30 23 N -5.497629 -4.144419 -1.515585 0
M  V30 24 C -5.105079 -4.777797 -2.350612 0
M  V30 25 C -5.103673 -6.130991 -2.974688 0
M  V30 26 C -4.390510 -6.482339 -4.066814 0
M  V30 27 C -4.451817 -7.764211 -4.582859 0
M  V30 28 C -5.283977 -8.679937 -3.924683 0
M  V30 29 N -5.958065 -8.258979 -2.851260 0
M  V30 30 C -5.932648 -7.052751 -2.323779 0
M  V30 31 S -4.030979 -3.503805 -3.227709 0
M  V30 32 C -1.580350 1.603517 0.110646 0
M  V30 33 C 2.773348 0.557766 2.779674 0
M  V30 34 C 4.130066 0.665513 3.041370 0
M  V30 35 C 5.181727 -0.369605 2.960882 0
M  V30 36 H 5.124184 -0.537592 5.826366 0
M  V30 37 H 5.028775 -1.939655 4.655787 0
M  V30 38 H 6.598194 -1.611740 5.552632 0
M  V30 39 H 6.134452 1.068600 5.567109 0
M  V30 40 H 7.596419 1.044153 4.509071 0
M  V30 41 H 6.186724 3.080621 4.255748 0
M  V30 42 H 6.492397 2.135611 2.714646 0
M  V30 43 H 4.062538 4.025088 3.854856 0
M  V30 44 H 1.629330 3.663886 3.342213 0
M  V30 45 H -0.446424 1.222408 2.788664 0
M  V30 46 H 1.534042 1.968686 -1.305148 0
M  V30 47 H 0.224460 2.013485 -3.302741 0
M  V30 48 H -2.137343 1.821863 -3.237079 0
M  V30 49 H -4.283606 2.073349 -0.408465 0
M  V30 50 H -4.136763 2.007245 -2.177588 0
M  V30 51 H -4.897796 -0.154474 -0.430989 0
M  V30 52 H -5.686945 -2.264086 -0.371217 0
M  V30 53 H -3.758229 -5.753832 -4.545824 0
M  V30 54 H -3.855130 -8.004803 -5.475738 0
M  V30 55 H -5.343602 -9.687366 -4.311288 0
M  V30 56 H -6.505373 -6.754478 -1.443646 0
M  V30 57 H -2.116923 1.488373 1.033048 0
M  V30 58 H 2.464056 -0.438738 2.483542 0
M  V30 59 H 5.721539 -0.342662 1.984937 0
M  V30 60 H 4.632729 -1.350115 2.966431 0
M  V30 END ATOM
M  V30 BEGIN BOND
M  V30 1 1 1 2
M  V30 2 1 2 3
M  V30 3 1 3 4
M  V30 4 1 4 5
M  V30 5 2 5 6
M  V30 6 1 6 7
M  V30 7 2 7 8
M  V30 8 1 8 9
M  V30 9 1 9 10
M  V30 10 2 10 11
M  V30 11 1 10 12
M  V30 12 2 12 13
M  V30 13 1 13 14
M  V30 14 2 14 15
M  V30 15 1 15 16
M  V30 16 1 16 17
M  V30 17 1 17 18
M  V30 18 1 18 19
M  V30 19 2 19 20
M  V30 20 1 19 21
M  V30 21 2 21 22
M  V30 22 1 22 23
M  V30 23 2 23 24
M  V30 24 1 24 25
M  V30 25 2 25 26
M  V30 26 1 26 27
M  V30 27 2 27 28
M  V30 28 1 28 29
M  V30 29 2 29 30
M  V30 30 1 24 31
M  V30 31 2 16 32
M  V30 32 1 8 33
M  V30 33 2 33 34
M  V30 34 1 34 35
M  V30 35 1 35 2
M  V30 36 1 34 5
M  V30 37 1 32 12
M  V30 38 1 31 21
M  V30 39 1 30 25
M  V30 40 1 1 36
M  V30 41 1 1 37
M  V30 42 1 1 38
M  V30 43 1 3 39
M  V30 44 1 3 40
M  V30 45 1 4 41
M  V30 46 1 4 42
M  V30 47 1 6 43
M  V30 48 1 7 44
M  V30 49 1 9 45
M  V30 50 1 13 46
M  V30 51 1 14 47
M  V30 52 1 15 48
M  V30 53 1 17 49
M  V30 54 1 17 50
M  V30 55 1 18 51
M  V30 56 1 22 52
M  V30 57 1 26 53
M  V30 58 1 27 54
M  V30 59 1 28 55
M  V30 60 1 30 56
M  V30 61 1 32 57
M  V30 62 1 33 58
M  V30 63 1 35 59
M  V30 64 1 35 60
M  V30 END BOND
M  V30 END CTAB
M  END
>  <Dataset>  (532) 
ChEMBL_Kinases

>  <Ligand_Instance>  (532) 
nan

>  <PDB_ID>  (532) 
nan

>  <Standardized_SMILES>  (532) 
CN1CCc2ccc(NC(=O)c3cccc(CNC(=O)c4cnc(-c5cccnc5)s4)c3)cc2C1

>  <Name>  (532) 
nan

>  <Pocket>  (532) 
nan

>  <ATP_Site>  (532) 
nan

>  <Peripheral>  (532) 
nan

>  <Num_H_Atoms_ProtBoundConf>  (532) 
nan

>  <Num_Resolved_Atoms>  (532) 
nan

>  <Num_Not_Resolved_Atoms>  (532) 
nan

$$$$
CHEMBL3680800
     RDKit          3D

  0  0  0  0  0  0  0  0  0  0999 V3000
M  V30 BEGIN CTAB
M  V30 COUNTS 70 75 0 0 0
M  V30 BEGIN ATOM
M  V30 1 C 4.735882 5.714856 -0.866524 0
M  V30 2 C 4.206089 5.489497 0.517619 0
M  V30 3 N 4.788526 5.830478 1.686830 0
M  V30 4 C 3.934704 5.422011 2.649359 0
M  V30 5 C 4.077667 5.542866 4.029397 0
M  V30 6 N 3.082386 5.055663 4.800671 0
M  V30 7 C 1.998324 4.477836 4.263837 0
M  V30 8 C 1.842230 4.350499 2.900990 0
M  V30 9 C 2.834279 4.834002 2.064394 0
M  V30 10 N 3.022894 4.884837 0.721832 0
M  V30 11 C 2.032598 4.343486 -0.140340 0
M  V30 12 C 2.167899 2.971374 -0.360626 0
M  V30 13 C 1.259022 2.324509 -1.187065 0
M  V30 14 C 0.217146 2.958500 -1.812744 0
M  V30 15 C -0.752872 2.319075 -2.689492 0
M  V30 16 O -1.683977 2.976665 -3.203382 0
M  V30 17 N -0.703073 0.950815 -3.006155 0
M  V30 18 C -1.593948 0.191890 -3.855804 0
M  V30 19 C -2.871901 -0.083228 -3.117776 0
M  V30 20 C -4.023238 0.674023 -3.118551 0
M  V30 21 C -5.101731 0.258082 -2.370146 0
M  V30 22 C -5.020894 -0.918442 -1.622545 0
M  V30 23 C -3.863205 -1.668217 -1.628991 0
M  V30 24 C -3.931297 -2.863125 -0.800168 0
M  V30 25 O -4.972379 -3.168381 -0.194469 0
M  V30 26 N -2.798518 -3.703358 -0.669248 0
M  V30 27 C -2.409341 -4.894698 -0.016628 0
M  V30 28 C -2.520963 -6.175795 -0.577412 0
M  V30 29 C -2.097129 -7.242685 0.184716 0
M  V30 30 C -1.580585 -7.081314 1.451214 0
M  V30 31 C -1.465276 -5.829756 2.015467 0
M  V30 32 C -1.882941 -4.738286 1.272514 0
M  V30 33 C -0.903756 -5.735219 3.387109 0
M  V30 34 N 0.179315 -6.618257 3.650853 0
M  V30 35 C 1.465374 -5.975921 3.834947 0
M  V30 36 C 0.281288 -7.759349 2.801701 0
M  V30 37 C -1.093432 -8.170424 2.341171 0
M  V30 38 C -2.785004 -1.265324 -2.368841 0
M  V30 39 C 0.111136 4.312490 -1.574764 0
M  V30 40 C 0.988114 5.008025 -0.760617 0
M  V30 41 H 3.957101 6.023166 -1.569528 0
M  V30 42 H 5.500251 6.501235 -0.775310 0
M  V30 43 H 5.269768 4.785645 -1.161313 0
M  V30 44 H 4.970606 6.019615 4.451792 0
M  V30 45 H 1.179648 4.075757 4.855373 0
M  V30 46 H 0.976584 3.887495 2.444924 0
M  V30 47 H 2.961312 2.365520 0.086478 0
M  V30 48 H 1.379876 1.266410 -1.345736 0
M  V30 49 H 0.065963 0.344339 -2.600653 0
M  V30 50 H -1.149031 -0.690939 -4.307331 0
M  V30 51 H -1.881056 0.916562 -4.680004 0
M  V30 52 H -3.974750 1.561876 -3.731976 0
M  V30 53 H -5.976205 0.864393 -2.392550 0
M  V30 54 H -5.915383 -1.157807 -1.072231 0
M  V30 55 H -1.869885 -3.530612 -1.143503 0
M  V30 56 H -2.926568 -6.271942 -1.566354 0
M  V30 57 H -2.157496 -8.251366 -0.195033 0
M  V30 58 H -1.795247 -3.738986 1.716355 0
M  V30 59 H -0.609113 -4.658352 3.506673 0
M  V30 60 H -1.706898 -5.882089 4.159171 0
M  V30 61 H 2.101483 -6.677044 4.415634 0
M  V30 62 H 1.381940 -5.058063 4.416771 0
M  V30 63 H 2.019615 -5.816251 2.881902 0
M  V30 64 H 1.004710 -7.640220 1.973965 0
M  V30 65 H 0.682348 -8.597042 3.439358 0
M  V30 66 H -1.007681 -9.140453 1.803682 0
M  V30 67 H -1.732296 -8.245467 3.245997 0
M  V30 68 H -1.925094 -1.894343 -2.326472 0
M  V30 69 H -0.659690 4.943761 -1.999043 0
M  V30 70 H 0.947548 6.061178 -0.544869 0
M  V30 END ATOM
M  V30 BEGIN BOND
M  V30 1 1 1 2
M  V30 2 2 2 3
M  V30 3 1 3 4
M  V30 4 2 4 5
M  V30 5 1 5 6
M  V30 6 2 6 7
M  V30 7 1 7 8
M  V30 8 2 8 9
M  V30 9 1 9 10
M  V30 10 1 10 11
M  V30 11 2 11 12
M  V30 12 1 12 13
M  V30 13 2 13 14
M  V30 14 1 14 15
M  V30 15 2 15 16
M  V30 16 1 15 17
M  V30 17 1 17 18
M  V30 18 1 18 19
M  V30 19 2 19 20
M  V30 20 1 20 21
M  V30 21 2 21 22
M  V30 22 1 22 23
M  V30 23 1 23 24
M  V30 24 2 24 25
M  V30 25 1 24 26
M  V30 26 1 26 27
M  V30 27 2 27 28
M  V30 28 1 28 29
M  V30 29 2 29 30
M  V30 30 1 30 31
M  V30 31 2 31 32
M  V30 32 1 31 33
M  V30 33 1 33 34
M  V30 34 1 34 35
M  V30 35 1 34 36
M  V30 36 1 36 37
M  V30 37 2 23 38
M  V30 38 1 14 39
M  V30 39 2 39 40
M  V30 40 1 10 2
M  V30 41 1 40 11
M  V30 42 1 9 4
M  V30 43 1 38 19
M  V30 44 1 32 27
M  V30 45 1 37 30
M  V30 46 1 1 41
M  V30 47 1 1 42
M  V30 48 1 1 43
M  V30 49 1 5 44
M  V30 50 1 7 45
M  V30 51 1 8 46
M  V30 52 1 12 47
M  V30 53 1 13 48
M  V30 54 1 17 49
M  V30 55 1 18 50
M  V30 56 1 18 51
M  V30 57 1 20 52
M  V30 58 1 21 53
M  V30 59 1 22 54
M  V30 60 1 26 55
M  V30 61 1 28 56
M  V30 62 1 29 57
M  V30 63 1 32 58
M  V30 64 1 33 59
M  V30 65 1 33 60
M  V30 66 1 35 61
M  V30 67 1 35 62
M  V30 68 1 35 63
M  V30 69 1 36 64
M  V30 70 1 36 65
M  V30 71 1 37 66
M  V30 72 1 37 67
M  V30 73 1 38 68
M  V30 74 1 39 69
M  V30 75 1 40 70
M  V30 END BOND
M  V30 END CTAB
M  END
>  <Dataset>  (533) 
ChEMBL_Kinases

>  <Ligand_Instance>  (533) 
nan

>  <PDB_ID>  (533) 
nan

>  <Standardized_SMILES>  (533) 
Cc1nc2cnccc2n1-c1ccc(C(=O)NCc2cccc(C(=O)Nc3ccc4c(c3)CN(C)CC4)c2)cc1

>  <Name>  (533) 
nan

>  <Pocket>  (533) 
nan

>  <ATP_Site>  (533) 
nan

>  <Peripheral>  (533) 
nan

>  <Num_H_Atoms_ProtBoundConf>  (533) 
nan

>  <Num_Resolved_Atoms>  (533) 
nan

>  <Num_Not_Resolved_Atoms>  (533) 
nan

$$$$
CHEMBL3680801
     RDKit          3D

  0  0  0  0  0  0  0  0  0  0999 V3000
M  V30 BEGIN CTAB
M  V30 COUNTS 65 69 0 0 0
M  V30 BEGIN ATOM
M  V30 1 C 6.499046 -0.619999 2.946263 0
M  V30 2 C 7.215941 0.422604 2.136090 0
M  V30 3 N 8.515089 0.176377 1.888340 0
M  V30 4 C 8.963878 1.220524 1.158212 0
M  V30 5 C 7.941038 2.108414 0.957145 0
M  V30 6 N 6.858776 1.602461 1.569395 0
M  V30 7 C 5.502871 1.947964 1.777580 0
M  V30 8 C 5.057165 2.268912 3.047145 0
M  V30 9 C 3.737610 2.610400 3.288791 0
M  V30 10 C 2.808542 2.645114 2.270268 0
M  V30 11 C 1.432612 3.009531 2.578496 0
M  V30 12 O 1.184845 3.272658 3.783059 0
M  V30 13 N 0.395106 3.079814 1.622726 0
M  V30 14 C -0.986928 3.433440 1.867226 0
M  V30 15 C -1.739151 2.297328 2.506389 0
M  V30 16 C -1.867208 2.110196 3.846189 0
M  V30 17 C -2.560719 1.057458 4.403896 0
M  V30 18 C -3.149743 0.155303 3.520340 0
M  V30 19 C -3.057246 0.288219 2.150603 0
M  V30 20 C -3.705485 -0.706433 1.300143 0
M  V30 21 O -4.319300 -1.630066 1.899247 0
M  V30 22 N -3.659337 -0.655124 -0.116355 0
M  V30 23 C -4.308599 -1.651838 -0.892910 0
M  V30 24 C -5.602416 -1.662113 -1.372948 0
M  V30 25 C -6.067319 -2.726630 -2.118658 0
M  V30 26 C -5.199063 -3.779096 -2.369002 0
M  V30 27 C -3.896090 -3.823477 -1.915199 0
M  V30 28 C -3.468330 -2.731047 -1.167942 0
M  V30 29 C -3.046076 -4.986806 -2.232915 0
M  V30 30 N -3.322984 -5.623287 -3.466184 0
M  V30 31 C -2.212400 -5.696740 -4.372552 0
M  V30 32 C -4.576910 -5.389955 -4.080388 0
M  V30 33 C -5.664167 -4.944257 -3.169093 0
M  V30 34 C -2.343663 1.372219 1.682979 0
M  V30 35 C 3.279191 2.321267 1.016286 0
M  V30 36 C 4.581964 1.976265 0.732470 0
M  V30 37 H 6.569676 -1.568753 2.405418 0
M  V30 38 H 5.405535 -0.355102 2.978626 0
M  V30 39 H 6.945051 -0.741067 3.938045 0
M  V30 40 H 9.928160 1.485936 0.718408 0
M  V30 41 H 7.782850 3.062845 0.459694 0
M  V30 42 H 5.796770 2.239182 3.843608 0
M  V30 43 H 3.496781 2.845936 4.330940 0
M  V30 44 H 0.694252 2.846143 0.653350 0
M  V30 45 H -1.454977 3.730053 0.908641 0
M  V30 46 H -1.005551 4.329232 2.537728 0
M  V30 47 H -1.413419 2.807144 4.514826 0
M  V30 48 H -2.647788 0.930804 5.472986 0
M  V30 49 H -3.690392 -0.664855 3.991239 0
M  V30 50 H -3.143882 0.121435 -0.601027 0
M  V30 51 H -6.176784 -0.784610 -1.109581 0
M  V30 52 H -7.086535 -2.698506 -2.477302 0
M  V30 53 H -2.424101 -2.810759 -0.828210 0
M  V30 54 H -3.103170 -5.733249 -1.406447 0
M  V30 55 H -1.990740 -4.594500 -2.291281 0
M  V30 56 H -2.632278 -5.734377 -5.407989 0
M  V30 57 H -1.651668 -4.742464 -4.303254 0
M  V30 58 H -1.523951 -6.532143 -4.169584 0
M  V30 59 H -4.896088 -6.279240 -4.675412 0
M  V30 60 H -4.436115 -4.584411 -4.856882 0
M  V30 61 H -6.579900 -4.712909 -3.744674 0
M  V30 62 H -5.925474 -5.782244 -2.491653 0
M  V30 63 H -2.254531 1.501331 0.607580 0
M  V30 64 H 2.604888 2.332807 0.196259 0
M  V30 65 H 4.911780 1.728934 -0.264394 0
M  V30 END ATOM
M  V30 BEGIN BOND
M  V30 1 1 1 2
M  V30 2 2 2 3
M  V30 3 1 3 4
M  V30 4 2 4 5
M  V30 5 1 5 6
M  V30 6 1 6 7
M  V30 7 2 7 8
M  V30 8 1 8 9
M  V30 9 2 9 10
M  V30 10 1 10 11
M  V30 11 2 11 12
M  V30 12 1 11 13
M  V30 13 1 13 14
M  V30 14 1 14 15
M  V30 15 2 15 16
M  V30 16 1 16 17
M  V30 17 2 17 18
M  V30 18 1 18 19
M  V30 19 1 19 20
M  V30 20 2 20 21
M  V30 21 1 20 22
M  V30 22 1 22 23
M  V30 23 2 23 24
M  V30 24 1 24 25
M  V30 25 2 25 26
M  V30 26 1 26 27
M  V30 27 2 27 28
M  V30 28 1 27 29
M  V30 29 1 29 30
M  V30 30 1 30 31
M  V30 31 1 30 32
M  V30 32 1 32 33
M  V30 33 2 19 34
M  V30 34 1 10 35
M  V30 35 2 35 36
M  V30 36 1 6 2
M  V30 37 1 36 7
M  V30 38 1 34 15
M  V30 39 1 28 23
M  V30 40 1 33 26
M  V30 41 1 1 37
M  V30 42 1 1 38
M  V30 43 1 1 39
M  V30 44 1 4 40
M  V30 45 1 5 41
M  V30 46 1 8 42
M  V30 47 1 9 43
M  V30 48 1 13 44
M  V30 49 1 14 45
M  V30 50 1 14 46
M  V30 51 1 16 47
M  V30 52 1 17 48
M  V30 53 1 18 49
M  V30 54 1 22 50
M  V30 55 1 24 51
M  V30 56 1 25 52
M  V30 57 1 28 53
M  V30 58 1 29 54
M  V30 59 1 29 55
M  V30 60 1 31 56
M  V30 61 1 31 57
M  V30 62 1 31 58
M  V30 63 1 32 59
M  V30 64 1 32 60
M  V30 65 1 33 61
M  V30 66 1 33 62
M  V30 67 1 34 63
M  V30 68 1 35 64
M  V30 69 1 36 65
M  V30 END BOND
M  V30 END CTAB
M  END
>  <Dataset>  (534) 
ChEMBL_Kinases

>  <Ligand_Instance>  (534) 
nan

>  <PDB_ID>  (534) 
nan

>  <Standardized_SMILES>  (534) 
Cc1nccn1-c1ccc(C(=O)NCc2cccc(C(=O)Nc3ccc4c(c3)CN(C)CC4)c2)cc1

>  <Name>  (534) 
nan

>  <Pocket>  (534) 
nan

>  <ATP_Site>  (534) 
nan

>  <Peripheral>  (534) 
nan

>  <Num_H_Atoms_ProtBoundConf>  (534) 
nan

>  <Num_Resolved_Atoms>  (534) 
nan

>  <Num_Not_Resolved_Atoms>  (534) 
nan

$$$$
CHEMBL3680802
     RDKit          3D

  0  0  0  0  0  0  0  0  0  0999 V3000
M  V30 BEGIN CTAB
M  V30 COUNTS 62 66 0 0 0
M  V30 BEGIN ATOM
M  V30 1 C 3.951791 0.751896 5.835654 0
M  V30 2 N 5.065700 1.450562 5.172849 0
M  V30 3 C 5.750829 0.458593 4.407593 0
M  V30 4 C 6.208458 1.052769 3.083104 0
M  V30 5 C 4.963760 1.323874 2.319241 0
M  V30 6 C 4.621828 0.890835 1.033784 0
M  V30 7 C 3.396021 1.276322 0.533544 0
M  V30 8 C 2.526360 2.061029 1.262793 0
M  V30 9 N 1.279756 2.395330 0.633969 0
M  V30 10 C 0.296141 1.420722 0.935550 0
M  V30 11 O 0.693045 0.469470 1.680597 0
M  V30 12 C -1.071917 1.499463 0.430335 0
M  V30 13 C -1.506194 2.525086 -0.380912 0
M  V30 14 C -2.822361 2.508336 -0.806338 0
M  V30 15 C -3.686358 1.501683 -0.437824 0
M  V30 16 C -3.288222 0.462156 0.370285 0
M  V30 17 C -4.075775 -0.699608 0.857302 0
M  V30 18 N -3.928659 -1.815068 -0.047303 0
M  V30 19 C -4.536854 -2.028556 -1.302371 0
M  V30 20 O -5.306316 -1.049478 -1.606362 0
M  V30 21 N -4.391785 -3.123405 -2.185020 0
M  V30 22 C -5.006581 -3.138389 -3.528612 0
M  V30 23 C -3.840949 -3.665447 -4.347813 0
M  V30 24 C -3.344031 -4.748641 -3.423050 0
M  V30 25 C -2.663644 -5.948380 -3.536309 0
M  V30 26 C -2.270592 -6.356728 -4.855885 0
M  V30 27 N -1.950476 -6.690549 -5.916826 0
M  V30 28 C -2.388207 -6.701566 -2.401332 0
M  V30 29 C -2.766328 -6.309546 -1.125600 0
M  V30 30 C -3.451748 -5.107290 -0.982384 0
M  V30 31 C -3.702432 -4.389911 -2.151928 0
M  V30 32 C -1.961671 0.483042 0.796560 0
M  V30 33 C 2.857268 2.492165 2.532322 0
M  V30 34 C 4.080820 2.115602 3.048808 0
M  V30 35 C 4.511840 2.538567 4.410419 0
M  V30 36 H 4.262816 0.244271 6.760573 0
M  V30 37 H 3.470084 0.014313 5.140580 0
M  V30 38 H 3.151372 1.485668 6.115303 0
M  V30 39 H 6.666818 0.181673 4.966136 0
M  V30 40 H 5.163504 -0.469784 4.258547 0
M  V30 41 H 6.916145 0.397066 2.567673 0
M  V30 42 H 6.630520 2.053438 3.337652 0
M  V30 43 H 5.384918 0.287066 0.573869 0
M  V30 44 H 3.225109 0.889035 -0.471172 0
M  V30 45 H 1.057439 3.216862 0.030540 0
M  V30 46 H -0.847379 3.311600 -0.674124 0
M  V30 47 H -3.178622 3.298655 -1.438641 0
M  V30 48 H -4.718220 1.461849 -0.748325 0
M  V30 49 H -3.775066 -0.960511 1.892566 0
M  V30 50 H -5.138749 -0.376796 0.932721 0
M  V30 51 H -3.277126 -2.546018 0.276924 0
M  V30 52 H -5.866215 -3.834573 -3.577517 0
M  V30 53 H -5.223874 -2.118415 -3.875089 0
M  V30 54 H -3.043834 -2.917943 -4.390977 0
M  V30 55 H -4.156333 -4.076718 -5.328325 0
M  V30 56 H -1.850049 -7.636359 -2.551637 0
M  V30 57 H -2.529301 -6.928578 -0.278962 0
M  V30 58 H -3.761370 -4.786753 -0.000142 0
M  V30 59 H -1.562788 -0.313108 1.446685 0
M  V30 60 H 2.166165 3.107084 3.092871 0
M  V30 61 H 5.195973 3.407919 4.361875 0
M  V30 62 H 3.594364 2.881879 4.955267 0
M  V30 END ATOM
M  V30 BEGIN BOND
M  V30 1 1 1 2
M  V30 2 1 2 3
M  V30 3 1 3 4
M  V30 4 1 4 5
M  V30 5 2 5 6
M  V30 6 1 6 7
M  V30 7 2 7 8
M  V30 8 1 8 9
M  V30 9 1 9 10
M  V30 10 2 10 11
M  V30 11 1 10 12
M  V30 12 2 12 13
M  V30 13 1 13 14
M  V30 14 2 14 15
M  V30 15 1 15 16
M  V30 16 1 16 17
M  V30 17 1 17 18
M  V30 18 1 18 19
M  V30 19 2 19 20
M  V30 20 1 19 21
M  V30 21 1 21 22
M  V30 22 1 22 23
M  V30 23 1 23 24
M  V30 24 2 24 25
M  V30 25 1 25 26
M  V30 26 3 26 27
M  V30 27 1 25 28
M  V30 28 2 28 29
M  V30 29 1 29 30
M  V30 30 2 30 31
M  V30 31 2 16 32
M  V30 32 1 8 33
M  V30 33 2 33 34
M  V30 34 1 34 35
M  V30 35 1 35 2
M  V30 36 1 34 5
M  V30 37 1 32 12
M  V30 38 1 31 21
M  V30 39 1 31 24
M  V30 40 1 1 36
M  V30 41 1 1 37
M  V30 42 1 1 38
M  V30 43 1 3 39
M  V30 44 1 3 40
M  V30 45 1 4 41
M  V30 46 1 4 42
M  V30 47 1 6 43
M  V30 48 1 7 44
M  V30 49 1 9 45
M  V30 50 1 13 46
M  V30 51 1 14 47
M  V30 52 1 15 48
M  V30 53 1 17 49
M  V30 54 1 17 50
M  V30 55 1 18 51
M  V30 56 1 22 52
M  V30 57 1 22 53
M  V30 58 1 23 54
M  V30 59 1 23 55
M  V30 60 1 28 56
M  V30 61 1 29 57
M  V30 62 1 30 58
M  V30 63 1 32 59
M  V30 64 1 33 60
M  V30 65 1 35 61
M  V30 66 1 35 62
M  V30 END BOND
M  V30 END CTAB
M  END
>  <Dataset>  (535) 
ChEMBL_Kinases

>  <Ligand_Instance>  (535) 
nan

>  <PDB_ID>  (535) 
nan

>  <Standardized_SMILES>  (535) 
CN1CCc2ccc(NC(=O)c3cccc(CNC(=O)N4CCc5c(C#N)cccc54)c3)cc2C1

>  <Name>  (535) 
nan

>  <Pocket>  (535) 
nan

>  <ATP_Site>  (535) 
nan

>  <Peripheral>  (535) 
nan

>  <Num_H_Atoms_ProtBoundConf>  (535) 
nan

>  <Num_Resolved_Atoms>  (535) 
nan

>  <Num_Not_Resolved_Atoms>  (535) 
nan

$$$$
CHEMBL3681032
     RDKit          3D

  0  0  0  0  0  0  0  0  0  0999 V3000
M  V30 BEGIN CTAB
M  V30 COUNTS 44 46 0 0 0
M  V30 BEGIN ATOM
M  V30 1 C -2.349898 -4.218592 1.751108 0
M  V30 2 N -1.861986 -4.492652 0.420454 0
M  V30 3 C -1.612239 -3.455831 -0.521931 0
M  V30 4 N -1.845730 -2.185334 -0.136136 0
M  V30 5 C -1.625120 -1.150632 -0.992163 0
M  V30 6 N -1.901972 0.165974 -0.496884 0
M  V30 7 C -0.900400 0.917501 0.177570 0
M  V30 8 C 0.348421 0.363201 0.357874 0
M  V30 9 C 1.384447 1.008639 0.999028 0
M  V30 10 O 2.636229 0.446836 1.176278 0
M  V30 11 C 2.886667 -0.855729 0.682170 0
M  V30 12 C 1.208726 2.278929 1.504024 0
M  V30 13 C 2.175135 3.091693 2.202509 0
M  V30 14 C 2.382137 4.439966 1.896275 0
M  V30 15 C 3.364081 4.869008 2.765581 0
M  V30 16 N 3.705713 3.830576 3.530216 0
M  V30 17 N 3.000930 2.750137 3.207226 0
M  V30 18 C 3.130437 1.472574 3.847274 0
M  V30 19 C -0.052744 2.864275 1.332992 0
M  V30 20 C -1.066360 2.187124 0.685374 0
M  V30 21 Cl -2.639213 2.933237 0.478932 0
M  V30 22 N -1.165883 -1.405414 -2.244638 0
M  V30 23 C -0.932954 -2.676762 -2.628766 0
M  V30 24 C -1.143061 -3.748657 -1.794268 0
M  V30 25 C -0.885794 -5.142388 -2.221933 0
M  V30 26 F 0.055792 -5.781339 -1.448727 0
M  V30 27 F -0.564789 -5.134208 -3.556876 0
M  V30 28 F -2.105910 -5.824229 -2.117209 0
M  V30 29 H -1.966328 -3.241141 2.107674 0
M  V30 30 H -2.081904 -5.050761 2.432710 0
M  V30 31 H -3.459615 -4.158380 1.773999 0
M  V30 32 H -1.687467 -5.488582 0.143883 0
M  V30 33 H -2.824800 0.651005 -0.591841 0
M  V30 34 H 0.605621 -0.634863 0.001892 0
M  V30 35 H 3.835748 -1.266079 1.064680 0
M  V30 36 H 2.784447 -0.938642 -0.415873 0
M  V30 37 H 2.085446 -1.517676 1.119367 0
M  V30 38 H 1.923508 5.085852 1.160702 0
M  V30 39 H 3.836570 5.838934 2.886411 0
M  V30 40 H 2.210381 0.865708 3.848338 0
M  V30 41 H 4.033163 0.963925 3.478461 0
M  V30 42 H 3.326083 1.685986 4.937960 0
M  V30 43 H -0.279358 3.859970 1.698479 0
M  V30 44 H -0.568270 -2.873979 -3.624605 0
M  V30 END ATOM
M  V30 BEGIN BOND
M  V30 1 1 1 2
M  V30 2 1 2 3
M  V30 3 2 3 4
M  V30 4 1 4 5
M  V30 5 1 5 6
M  V30 6 1 6 7
M  V30 7 2 7 8
M  V30 8 1 8 9
M  V30 9 1 9 10
M  V30 10 1 10 11
M  V30 11 2 9 12
M  V30 12 1 12 13
M  V30 13 2 13 14
M  V30 14 1 14 15
M  V30 15 2 15 16
M  V30 16 1 16 17
M  V30 17 1 17 18
M  V30 18 1 12 19
M  V30 19 2 19 20
M  V30 20 1 20 21
M  V30 21 2 5 22
M  V30 22 1 22 23
M  V30 23 2 23 24
M  V30 24 1 24 25
M  V30 25 1 25 26
M  V30 26 1 25 27
M  V30 27 1 25 28
M  V30 28 1 24 3
M  V30 29 1 20 7
M  V30 30 1 17 13
M  V30 31 1 1 29
M  V30 32 1 1 30
M  V30 33 1 1 31
M  V30 34 1 2 32
M  V30 35 1 6 33
M  V30 36 1 8 34
M  V30 37 1 11 35
M  V30 38 1 11 36
M  V30 39 1 11 37
M  V30 40 1 14 38
M  V30 41 1 15 39
M  V30 42 1 18 40
M  V30 43 1 18 41
M  V30 44 1 18 42
M  V30 45 1 19 43
M  V30 46 1 23 44
M  V30 END BOND
M  V30 END CTAB
M  END
>  <Dataset>  (536) 
ChEMBL_Kinases

>  <Ligand_Instance>  (536) 
nan

>  <PDB_ID>  (536) 
nan

>  <Standardized_SMILES>  (536) 
CNc1nc(Nc2cc(OC)c(-c3ccnn3C)cc2Cl)ncc1C(F)(F)F

>  <Name>  (536) 
nan

>  <Pocket>  (536) 
nan

>  <ATP_Site>  (536) 
nan

>  <Peripheral>  (536) 
nan

>  <Num_H_Atoms_ProtBoundConf>  (536) 
nan

>  <Num_Resolved_Atoms>  (536) 
nan

>  <Num_Not_Resolved_Atoms>  (536) 
nan

$$$$
CHEMBL3680804
     RDKit          3D

  0  0  0  0  0  0  0  0  0  0999 V3000
M  V30 BEGIN CTAB
M  V30 COUNTS 65 69 0 0 0
M  V30 BEGIN ATOM
M  V30 1 C 2.562074 0.028212 6.775171 0
M  V30 2 C 2.841006 0.884996 5.563835 0
M  V30 3 N 4.044388 1.371856 5.333386 0
M  V30 4 C 4.248588 2.092763 4.300951 0
M  V30 5 C 5.405611 2.781662 3.735819 0
M  V30 6 C 5.325160 3.509255 2.567235 0
M  V30 7 C 6.475984 4.126000 2.112260 0
M  V30 8 N 7.614921 3.987013 2.829119 0
M  V30 9 C 7.689360 3.273986 3.972364 0
M  V30 10 C 6.555317 2.627959 4.480324 0
M  V30 11 S 2.606870 2.132714 3.519577 0
M  V30 12 C 1.793575 1.124604 4.732055 0
M  V30 13 C 0.418115 0.838417 4.574782 0
M  V30 14 O -0.215390 1.308754 3.565482 0
M  V30 15 N -0.430964 0.065011 5.406047 0
M  V30 16 C -1.830968 -0.198446 5.202304 0
M  V30 17 C -2.377613 0.435955 3.981750 0
M  V30 18 C -2.918225 1.717993 4.024809 0
M  V30 19 C -3.433842 2.328673 2.896486 0
M  V30 20 C -3.392342 1.606150 1.700697 0
M  V30 21 C -2.863669 0.327171 1.610222 0
M  V30 22 C -2.872158 -0.333176 0.309480 0
M  V30 23 O -3.375711 0.327870 -0.655333 0
M  V30 24 N -2.336778 -1.638359 0.182961 0
M  V30 25 C -2.262707 -2.435789 -1.014889 0
M  V30 26 N -1.330924 -2.425038 -1.785341 0
M  V30 27 C -1.259727 -3.153568 -2.882054 0
M  V30 28 C -2.369138 -3.999404 -3.150156 0
M  V30 29 S -3.438041 -3.665703 -1.773919 0
M  V30 30 C -2.269632 -4.822019 -4.405581 0
M  V30 31 C -1.885352 -3.924955 -5.590472 0 CFG=1
M  V30 32 N -3.099092 -3.298817 -6.033632 0
M  V30 33 C -4.099714 -4.224854 -6.458873 0
M  V30 34 C -2.938850 -2.160820 -6.879176 0
M  V30 35 C -0.823606 -2.935646 -5.249050 0
M  V30 36 C -0.162539 -3.228766 -3.913976 0
M  V30 37 C -2.374697 -0.211771 2.757086 0
M  V30 38 H 1.845900 0.539700 7.465281 0
M  V30 39 H 3.482319 -0.092537 7.414125 0
M  V30 40 H 2.280707 -0.999819 6.507455 0
M  V30 41 H 4.379479 3.590978 2.024338 0
M  V30 42 H 6.416934 4.698527 1.194587 0
M  V30 43 H 8.630549 3.188864 4.518270 0
M  V30 44 H 6.620756 2.061359 5.391698 0
M  V30 45 H 0.005038 -0.350454 6.243713 0
M  V30 46 H -2.386167 0.142373 6.079697 0
M  V30 47 H -1.927263 -1.302710 5.033594 0
M  V30 48 H -2.914940 2.214340 4.987645 0
M  V30 49 H -3.842294 3.317481 2.967977 0
M  V30 50 H -3.812910 2.150693 0.868807 0
M  V30 51 H -1.929412 -2.181501 0.947845 0
M  V30 52 H -1.486455 -5.560021 -4.247056 0
M  V30 53 H -3.246205 -5.248322 -4.637131 0
M  V30 54 H -1.519277 -4.638207 -6.373103 0
M  V30 55 H -4.705284 -3.691443 -7.246883 0
M  V30 56 H -3.699987 -5.177291 -6.860251 0
M  V30 57 H -4.814886 -4.379369 -5.608919 0
M  V30 58 H -2.103282 -2.202256 -7.593719 0
M  V30 59 H -2.903235 -1.223227 -6.253518 0
M  V30 60 H -3.874551 -2.055550 -7.488424 0
M  V30 61 H -1.307937 -1.930670 -5.120410 0
M  V30 62 H -0.047951 -2.801278 -6.029183 0
M  V30 63 H 0.310541 -4.242603 -3.913270 0
M  V30 64 H 0.607348 -2.479257 -3.742766 0
M  V30 65 H -1.957886 -1.195489 2.732641 0
M  V30 END ATOM
M  V30 BEGIN BOND
M  V30 1 1 1 2
M  V30 2 1 2 3
M  V30 3 2 3 4
M  V30 4 1 4 5
M  V30 5 2 5 6
M  V30 6 1 6 7
M  V30 7 2 7 8
M  V30 8 1 8 9
M  V30 9 2 9 10
M  V30 10 1 4 11
M  V30 11 1 11 12
M  V30 12 1 12 13
M  V30 13 2 13 14
M  V30 14 1 13 15
M  V30 15 1 15 16
M  V30 16 1 16 17
M  V30 17 2 17 18
M  V30 18 1 18 19
M  V30 19 2 19 20
M  V30 20 1 20 21
M  V30 21 1 21 22
M  V30 22 2 22 23
M  V30 23 1 22 24
M  V30 24 1 24 25
M  V30 25 2 25 26
M  V30 26 1 26 27
M  V30 27 2 27 28
M  V30 28 1 28 29
M  V30 29 1 28 30
M  V30 30 1 30 31
M  V30 31 1 31 32
M  V30 32 1 32 33
M  V30 33 1 32 34
M  V30 34 1 31 35
M  V30 35 1 35 36
M  V30 36 2 21 37
M  V30 37 2 12 2
M  V30 38 1 37 17
M  V30 39 1 10 5
M  V30 40 1 29 25
M  V30 41 1 36 27
M  V30 42 1 1 38
M  V30 43 1 1 39
M  V30 44 1 1 40
M  V30 45 1 6 41
M  V30 46 1 7 42
M  V30 47 1 9 43
M  V30 48 1 10 44
M  V30 49 1 15 45
M  V30 50 1 16 46
M  V30 51 1 16 47
M  V30 52 1 18 48
M  V30 53 1 19 49
M  V30 54 1 20 50
M  V30 55 1 24 51
M  V30 56 1 30 52
M  V30 57 1 30 53
M  V30 58 1 31 54 CFG=3
M  V30 59 1 33 55
M  V30 60 1 33 56
M  V30 61 1 33 57
M  V30 62 1 34 58
M  V30 63 1 34 59
M  V30 64 1 34 60
M  V30 65 1 35 61
M  V30 66 1 35 62
M  V30 67 1 36 63
M  V30 68 1 36 64
M  V30 69 1 37 65
M  V30 END BOND
M  V30 END CTAB
M  END
>  <Dataset>  (537) 
ChEMBL_Kinases

>  <Ligand_Instance>  (537) 
nan

>  <PDB_ID>  (537) 
nan

>  <Standardized_SMILES>  (537) 
Cc1nc(-c2ccncc2)sc1C(=O)NCc1cccc(C(=O)Nc2nc3c(s2)C[C@@H](N(C)C)CC3)c1

>  <Name>  (537) 
nan

>  <Pocket>  (537) 
nan

>  <ATP_Site>  (537) 
nan

>  <Peripheral>  (537) 
nan

>  <Num_H_Atoms_ProtBoundConf>  (537) 
nan

>  <Num_Resolved_Atoms>  (537) 
nan

>  <Num_Not_Resolved_Atoms>  (537) 
nan

$$$$
CHEMBL3680805
     RDKit          3D

  0  0  0  0  0  0  0  0  0  0999 V3000
M  V30 BEGIN CTAB
M  V30 COUNTS 63 67 0 0 0
M  V30 BEGIN ATOM
M  V30 1 C 4.138735 -1.402417 5.100725 0
M  V30 2 N 4.571481 -0.230997 4.373184 0
M  V30 3 C 5.219035 0.652331 5.318811 0
M  V30 4 C 5.471356 -0.577831 3.284046 0 CFG=1
M  V30 5 C 4.809534 -1.502573 2.304233 0
M  V30 6 C 5.186133 -1.040997 0.912679 0
M  V30 7 C 4.554426 0.293103 0.720768 0
M  V30 8 N 3.671611 0.704981 -0.177499 0
M  V30 9 C 3.223359 1.819162 -0.241191 0
M  V30 10 N 2.226181 2.175688 -1.299678 0
M  V30 11 C 0.941012 1.935435 -0.776104 0
M  V30 12 O 0.908913 1.497442 0.406417 0
M  V30 13 C -0.234569 2.196856 -1.599333 0
M  V30 14 C -0.210829 2.648762 -2.902167 0
M  V30 15 C -1.410459 2.850818 -3.552210 0
M  V30 16 C -2.616378 2.611171 -2.927857 0
M  V30 17 C -2.688030 2.159032 -1.627031 0
M  V30 18 C -3.945846 1.873028 -0.877780 0
M  V30 19 N -4.375681 0.493646 -1.012829 0
M  V30 20 C -5.004992 -0.045108 -2.168065 0
M  V30 21 O -5.241630 0.635221 -3.173598 0
M  V30 22 C -5.391272 -1.450451 -2.182130 0
M  V30 23 C -5.219552 -2.368401 -1.168130 0
M  V30 24 C -5.710560 -3.625628 -1.532096 0
M  V30 25 C -5.664726 -4.801435 -0.653381 0
M  V30 26 C -5.125928 -4.732033 0.601353 0
M  V30 27 C -5.094295 -5.857444 1.412374 0
M  V30 28 N -5.592848 -7.022048 0.969755 0
M  V30 29 C -6.122038 -7.067929 -0.277159 0
M  V30 30 C -6.184332 -5.994775 -1.127982 0
M  V30 31 N -6.175002 -3.428172 -2.781984 0
M  V30 32 N -5.985959 -2.172882 -3.145626 0
M  V30 33 C -1.477368 1.964084 -0.996915 0
M  V30 34 S 4.028076 2.721349 1.131479 0
M  V30 35 C 4.986558 1.208303 1.644784 0
M  V30 36 C 5.968892 0.671732 2.617886 0
M  V30 37 H 4.944388 -2.165523 5.229579 0
M  V30 38 H 3.208656 -1.833950 4.659319 0
M  V30 39 H 3.884480 -1.072772 6.135308 0
M  V30 40 H 5.005960 1.699246 5.022188 0
M  V30 41 H 6.303638 0.449626 5.354381 0
M  V30 42 H 4.733348 0.502510 6.323388 0
M  V30 43 H 6.360619 -1.105643 3.685686 0
M  V30 44 H 5.088882 -2.561117 2.474231 0
M  V30 45 H 3.692799 -1.418448 2.388552 0
M  V30 46 H 4.763098 -1.801975 0.224880 0
M  V30 47 H 6.290105 -1.023387 0.843895 0
M  V30 48 H 2.434228 2.529978 -2.233553 0
M  V30 49 H 0.756722 2.823345 -3.352064 0
M  V30 50 H -1.394860 3.208182 -4.582951 0
M  V30 51 H -3.550053 2.774557 -3.447474 0
M  V30 52 H -3.727358 2.050172 0.194715 0
M  V30 53 H -4.741317 2.571684 -1.219447 0
M  V30 54 H -4.223001 -0.187203 -0.208556 0
M  V30 55 H -4.760704 -2.155466 -0.199536 0
M  V30 56 H -4.720386 -3.817919 0.982706 0
M  V30 57 H -4.651028 -5.747458 2.410364 0
M  V30 58 H -6.506332 -8.037270 -0.571148 0
M  V30 59 H -6.621588 -6.114624 -2.104773 0
M  V30 60 H -6.275523 -1.794597 -4.092002 0
M  V30 61 H -1.507166 1.603099 0.042967 0
M  V30 62 H 6.215529 1.417944 3.400805 0
M  V30 63 H 6.908390 0.483419 2.061083 0
M  V30 END ATOM
M  V30 BEGIN BOND
M  V30 1 1 1 2
M  V30 2 1 2 3
M  V30 3 1 2 4
M  V30 4 1 4 5
M  V30 5 1 5 6
M  V30 6 1 6 7
M  V30 7 1 7 8
M  V30 8 2 8 9
M  V30 9 1 9 10
M  V30 10 1 10 11
M  V30 11 2 11 12
M  V30 12 1 11 13
M  V30 13 2 13 14
M  V30 14 1 14 15
M  V30 15 2 15 16
M  V30 16 1 16 17
M  V30 17 1 17 18
M  V30 18 1 18 19
M  V30 19 1 19 20
M  V30 20 2 20 21
M  V30 21 1 20 22
M  V30 22 2 22 23
M  V30 23 1 23 24
M  V30 24 1 24 25
M  V30 25 2 25 26
M  V30 26 1 26 27
M  V30 27 2 27 28
M  V30 28 1 28 29
M  V30 29 2 29 30
M  V30 30 2 24 31
M  V30 31 1 31 32
M  V30 32 2 17 33
M  V30 33 1 9 34
M  V30 34 1 34 35
M  V30 35 1 35 36
M  V30 36 1 36 4
M  V30 37 2 35 7
M  V30 38 1 33 13
M  V30 39 1 32 22
M  V30 40 1 30 25
M  V30 41 1 1 37
M  V30 42 1 1 38
M  V30 43 1 1 39
M  V30 44 1 3 40
M  V30 45 1 3 41
M  V30 46 1 3 42
M  V30 47 1 4 43 CFG=1
M  V30 48 1 5 44
M  V30 49 1 5 45
M  V30 50 1 6 46
M  V30 51 1 6 47
M  V30 52 1 10 48
M  V30 53 1 14 49
M  V30 54 1 15 50
M  V30 55 1 16 51
M  V30 56 1 18 52
M  V30 57 1 18 53
M  V30 58 1 19 54
M  V30 59 1 23 55
M  V30 60 1 26 56
M  V30 61 1 27 57
M  V30 62 1 29 58
M  V30 63 1 30 59
M  V30 64 1 32 60
M  V30 65 1 33 61
M  V30 66 1 36 62
M  V30 67 1 36 63
M  V30 END BOND
M  V30 END CTAB
M  END
>  <Dataset>  (538) 
ChEMBL_Kinases

>  <Ligand_Instance>  (538) 
nan

>  <PDB_ID>  (538) 
nan

>  <Standardized_SMILES>  (538) 
CN(C)[C@H]1CCc2nc(NC(=O)c3cccc(CNC(=O)c4cc(-c5ccncc5)n[nH]4)c3)sc2C1

>  <Name>  (538) 
nan

>  <Pocket>  (538) 
nan

>  <ATP_Site>  (538) 
nan

>  <Peripheral>  (538) 
nan

>  <Num_H_Atoms_ProtBoundConf>  (538) 
nan

>  <Num_Resolved_Atoms>  (538) 
nan

>  <Num_Not_Resolved_Atoms>  (538) 
nan

$$$$
CHEMBL3680806
     RDKit          3D

  0  0  0  0  0  0  0  0  0  0999 V3000
M  V30 BEGIN CTAB
M  V30 COUNTS 58 62 0 0 0
M  V30 BEGIN ATOM
M  V30 1 C 4.622845 -0.316127 6.423250 0
M  V30 2 N 5.593768 -0.099216 5.393040 0
M  V30 3 C 5.443712 -0.937600 4.255760 0
M  V30 4 C 5.874657 -0.296924 2.960110 0
M  V30 5 C 5.003411 0.918531 2.777777 0
M  V30 6 N 4.260707 1.334430 1.767034 0
M  V30 7 C 3.623551 2.285261 1.720263 0
M  V30 8 N 2.770680 2.826171 0.647204 0
M  V30 9 C 1.485208 2.301951 0.830299 0
M  V30 10 O 1.406713 1.525206 1.842811 0
M  V30 11 C 0.345032 2.600940 -0.034319 0
M  V30 12 C 0.356304 3.437562 -1.155622 0
M  V30 13 C -0.802490 3.617368 -1.868650 0
M  V30 14 C -1.983899 2.998421 -1.515930 0
M  V30 15 C -2.035987 2.165233 -0.415796 0
M  V30 16 C -3.248442 1.455487 0.042782 0
M  V30 17 N -3.435735 0.155707 -0.510388 0
M  V30 18 C -3.894393 -0.112675 -1.822416 0
M  V30 19 O -4.184777 0.795257 -2.635050 0
M  V30 20 C -4.045796 -1.492810 -2.276456 0
M  V30 21 C -3.776110 -2.632702 -1.528579 0
M  V30 22 N -4.032111 -3.727257 -2.276735 0
M  V30 23 C -3.932449 -5.049995 -2.017180 0
M  V30 24 C -4.268463 -5.968836 -2.990493 0
M  V30 25 C -4.193282 -7.412947 -2.803581 0
M  V30 26 N -3.735528 -7.862136 -1.513863 0
M  V30 27 O -4.486226 -8.296275 -3.649928 0
M  V30 28 C -4.711427 -5.558036 -4.244405 0
M  V30 29 C -4.813076 -4.189589 -4.509104 0
M  V30 30 C -4.462617 -3.304654 -3.494969 0
M  V30 31 N -4.463577 -1.940069 -3.473779 0
M  V30 32 C -0.862118 1.981304 0.308868 0
M  V30 33 S 3.926112 3.058412 3.433993 0
M  V30 34 C 5.003646 1.755668 3.934573 0
M  V30 35 C 5.842142 1.287732 5.078881 0
M  V30 36 H 3.642079 -0.479235 5.954467 0
M  V30 37 H 4.913171 -1.275067 6.938081 0
M  V30 38 H 4.625326 0.518855 7.149667 0
M  V30 39 H 6.047679 -1.858437 4.389436 0
M  V30 40 H 4.378226 -1.216859 4.117896 0
M  V30 41 H 6.920488 0.052041 3.111152 0
M  V30 42 H 5.765825 -1.021284 2.149093 0
M  V30 43 H 2.963838 3.475273 -0.146035 0
M  V30 44 H 1.314039 3.891514 -1.376741 0
M  V30 45 H -0.744581 4.276782 -2.732507 0
M  V30 46 H -2.887808 3.152871 -2.090015 0
M  V30 47 H -3.226775 1.396999 1.150017 0
M  V30 48 H -4.181928 2.036599 -0.185532 0
M  V30 49 H -3.221747 -0.686034 0.086570 0
M  V30 50 H -3.418079 -2.697306 -0.509843 0
M  V30 51 H -3.588676 -5.414930 -1.045638 0
M  V30 52 H -4.308350 -7.619707 -0.666680 0
M  V30 53 H -2.831827 -8.416597 -1.527184 0
M  V30 54 H -4.984865 -6.269236 -5.036571 0
M  V30 55 H -5.154244 -3.822161 -5.474038 0
M  V30 56 H -0.897085 1.317383 1.187789 0
M  V30 57 H 6.900471 1.431289 4.797523 0
M  V30 58 H 5.529446 1.886602 5.966953 0
M  V30 END ATOM
M  V30 BEGIN BOND
M  V30 1 1 1 2
M  V30 2 1 2 3
M  V30 3 1 3 4
M  V30 4 1 4 5
M  V30 5 1 5 6
M  V30 6 2 6 7
M  V30 7 1 7 8
M  V30 8 1 8 9
M  V30 9 2 9 10
M  V30 10 1 9 11
M  V30 11 2 11 12
M  V30 12 1 12 13
M  V30 13 2 13 14
M  V30 14 1 14 15
M  V30 15 1 15 16
M  V30 16 1 16 17
M  V30 17 1 17 18
M  V30 18 2 18 19
M  V30 19 1 18 20
M  V30 20 2 20 21
M  V30 21 1 21 22
M  V30 22 1 22 23
M  V30 23 2 23 24
M  V30 24 1 24 25
M  V30 25 1 25 26
M  V30 26 2 25 27
M  V30 27 1 24 28
M  V30 28 2 28 29
M  V30 29 1 29 30
M  V30 30 2 30 31
M  V30 31 2 15 32
M  V30 32 1 7 33
M  V30 33 1 33 34
M  V30 34 1 34 35
M  V30 35 1 35 2
M  V30 36 2 34 5
M  V30 37 1 32 11
M  V30 38 1 31 20
M  V30 39 1 30 22
M  V30 40 1 1 36
M  V30 41 1 1 37
M  V30 42 1 1 38
M  V30 43 1 3 39
M  V30 44 1 3 40
M  V30 45 1 4 41
M  V30 46 1 4 42
M  V30 47 1 8 43
M  V30 48 1 12 44
M  V30 49 1 13 45
M  V30 50 1 14 46
M  V30 51 1 16 47
M  V30 52 1 16 48
M  V30 53 1 17 49
M  V30 54 1 21 50
M  V30 55 1 23 51
M  V30 56 1 26 52
M  V30 57 1 26 53
M  V30 58 1 28 54
M  V30 59 1 29 55
M  V30 60 1 32 56
M  V30 61 1 35 57
M  V30 62 1 35 58
M  V30 END BOND
M  V30 END CTAB
M  END
>  <Dataset>  (539) 
ChEMBL_Kinases

>  <Ligand_Instance>  (539) 
nan

>  <PDB_ID>  (539) 
nan

>  <Standardized_SMILES>  (539) 
CN1CCc2nc(NC(=O)c3cccc(CNC(=O)c4cn5cc(C(N)=O)ccc5n4)c3)sc2C1

>  <Name>  (539) 
nan

>  <Pocket>  (539) 
nan

>  <ATP_Site>  (539) 
nan

>  <Peripheral>  (539) 
nan

>  <Num_H_Atoms_ProtBoundConf>  (539) 
nan

>  <Num_Resolved_Atoms>  (539) 
nan

>  <Num_Not_Resolved_Atoms>  (539) 
nan

$$$$
CHEMBL3680807
     RDKit          3D

  0  0  0  0  0  0  0  0  0  0999 V3000
M  V30 BEGIN CTAB
M  V30 COUNTS 67 71 0 0 0
M  V30 BEGIN ATOM
M  V30 1 C 5.319282 0.839000 3.662901 0
M  V30 2 C 4.064822 0.205808 4.208287 0
M  V30 3 N 4.338371 -1.033646 4.912212 0
M  V30 4 C 4.610697 -0.999959 6.317799 0
M  V30 5 O 5.101422 0.113094 6.707149 0
M  V30 6 C 4.389751 -2.078225 7.318694 0
M  V30 7 S 4.954889 -3.633709 6.577129 0
M  V30 8 C 4.596498 -3.517377 4.824349 0
M  V30 9 C 4.593411 -4.694369 4.144387 0
M  V30 10 C 4.324602 -4.687023 2.779161 0
M  V30 11 C 4.063272 -3.511413 2.110969 0
M  V30 12 C 3.790207 -3.586273 0.684029 0
M  V30 13 O 3.798511 -4.723191 0.156367 0
M  V30 14 N 3.515215 -2.496219 -0.167301 0
M  V30 15 C 3.236950 -2.508915 -1.583018 0
M  V30 16 C 1.826486 -2.962578 -1.837519 0
M  V30 17 C 1.439040 -4.260503 -2.051104 0
M  V30 18 C 0.119830 -4.559639 -2.271623 0
M  V30 19 C -0.836646 -3.539543 -2.279377 0
M  V30 20 C -0.493861 -2.222536 -2.069756 0
M  V30 21 C -1.418816 -1.099542 -2.061031 0
M  V30 22 O -0.986289 0.063724 -1.860613 0
M  V30 23 N -2.811194 -1.222005 -2.267475 0
M  V30 24 C -3.839078 -0.254138 -2.291650 0
M  V30 25 C -5.143451 -0.628050 -2.520305 0
M  V30 26 C -6.186469 0.269402 -2.555814 0
M  V30 27 C -5.981020 1.601970 -2.362899 0
M  V30 28 C -4.689166 2.018906 -2.130601 0
M  V30 29 C -3.681356 1.097515 -2.103039 0
M  V30 30 C -4.502864 3.477957 -1.923420 0
M  V30 31 N -5.615981 4.084333 -1.257102 0
M  V30 32 C -5.549614 4.024213 0.170955 0
M  V30 33 C -6.900781 3.853233 -1.819027 0
M  V30 34 C -7.148999 2.516543 -2.414340 0
M  V30 35 C 0.854445 -1.974558 -1.851497 0
M  V30 36 C 4.078399 -2.344699 2.846418 0
M  V30 37 C 4.339583 -2.288782 4.209125 0
M  V30 38 H 5.590933 0.430017 2.662051 0
M  V30 39 H 5.148013 1.931701 3.587245 0
M  V30 40 H 6.165810 0.688498 4.353593 0
M  V30 41 H 3.642401 0.956350 4.940019 0
M  V30 42 H 3.273083 0.112334 3.440225 0
M  V30 43 H 3.311982 -2.138950 7.616698 0
M  V30 44 H 5.012684 -1.860970 8.188012 0
M  V30 45 H 4.793939 -5.648646 4.625046 0
M  V30 46 H 4.333825 -5.663603 2.274190 0
M  V30 47 H 3.516382 -1.549634 0.312272 0
M  V30 48 H 3.443035 -1.523983 -2.015911 0
M  V30 49 H 3.910919 -3.239162 -2.112293 0
M  V30 50 H 2.203196 -5.023633 -2.041197 0
M  V30 51 H -0.184748 -5.587419 -2.439400 0
M  V30 52 H -1.868780 -3.794949 -2.454474 0
M  V30 53 H -3.100309 -2.214663 -2.427331 0
M  V30 54 H -5.370322 -1.691043 -2.683230 0
M  V30 55 H -7.180692 -0.119636 -2.742784 0
M  V30 56 H -2.710915 1.516485 -1.915227 0
M  V30 57 H -3.621891 3.597849 -1.249617 0
M  V30 58 H -4.307491 3.943762 -2.916073 0
M  V30 59 H -6.546039 4.156708 0.613338 0
M  V30 60 H -4.819839 4.801874 0.518072 0
M  V30 61 H -5.089964 3.031782 0.443073 0
M  V30 62 H -7.652520 4.090700 -1.017366 0
M  V30 63 H -7.046361 4.633211 -2.611397 0
M  V30 64 H -8.041953 2.074241 -1.922429 0
M  V30 65 H -7.395813 2.634761 -3.493933 0
M  V30 66 H 1.158613 -0.933818 -1.681355 0
M  V30 67 H 3.873490 -1.449182 2.303535 0
M  V30 END ATOM
M  V30 BEGIN BOND
M  V30 1 1 1 2
M  V30 2 1 2 3
M  V30 3 1 3 4
M  V30 4 2 4 5
M  V30 5 1 4 6
M  V30 6 1 6 7
M  V30 7 1 7 8
M  V30 8 2 8 9
M  V30 9 1 9 10
M  V30 10 2 10 11
M  V30 11 1 11 12
M  V30 12 2 12 13
M  V30 13 1 12 14
M  V30 14 1 14 15
M  V30 15 1 15 16
M  V30 16 2 16 17
M  V30 17 1 17 18
M  V30 18 2 18 19
M  V30 19 1 19 20
M  V30 20 1 20 21
M  V30 21 2 21 22
M  V30 22 1 21 23
M  V30 23 1 23 24
M  V30 24 2 24 25
M  V30 25 1 25 26
M  V30 26 2 26 27
M  V30 27 1 27 28
M  V30 28 2 28 29
M  V30 29 1 28 30
M  V30 30 1 30 31
M  V30 31 1 31 32
M  V30 32 1 31 33
M  V30 33 1 33 34
M  V30 34 2 20 35
M  V30 35 1 11 36
M  V30 36 2 36 37
M  V30 37 1 37 3
M  V30 38 1 37 8
M  V30 39 1 35 16
M  V30 40 1 29 24
M  V30 41 1 34 27
M  V30 42 1 1 38
M  V30 43 1 1 39
M  V30 44 1 1 40
M  V30 45 1 2 41
M  V30 46 1 2 42
M  V30 47 1 6 43
M  V30 48 1 6 44
M  V30 49 1 9 45
M  V30 50 1 10 46
M  V30 51 1 14 47
M  V30 52 1 15 48
M  V30 53 1 15 49
M  V30 54 1 17 50
M  V30 55 1 18 51
M  V30 56 1 19 52
M  V30 57 1 23 53
M  V30 58 1 25 54
M  V30 59 1 26 55
M  V30 60 1 29 56
M  V30 61 1 30 57
M  V30 62 1 30 58
M  V30 63 1 32 59
M  V30 64 1 32 60
M  V30 65 1 32 61
M  V30 66 1 33 62
M  V30 67 1 33 63
M  V30 68 1 34 64
M  V30 69 1 34 65
M  V30 70 1 35 66
M  V30 71 1 36 67
M  V30 END BOND
M  V30 END CTAB
M  END
>  <Dataset>  (540) 
ChEMBL_Kinases

>  <Ligand_Instance>  (540) 
nan

>  <PDB_ID>  (540) 
nan

>  <Standardized_SMILES>  (540) 
CCN1C(=O)CSc2ccc(C(=O)NCc3cccc(C(=O)Nc4ccc5c(c4)CN(C)CC5)c3)cc21

>  <Name>  (540) 
nan

>  <Pocket>  (540) 
nan

>  <ATP_Site>  (540) 
nan

>  <Peripheral>  (540) 
nan

>  <Num_H_Atoms_ProtBoundConf>  (540) 
nan

>  <Num_Resolved_Atoms>  (540) 
nan

>  <Num_Not_Resolved_Atoms>  (540) 
nan

$$$$
CHEMBL3681028
     RDKit          3D

  0  0  0  0  0  0  0  0  0  0999 V3000
M  V30 BEGIN CTAB
M  V30 COUNTS 50 52 0 0 0
M  V30 BEGIN ATOM
M  V30 1 C -0.195611 -3.511234 3.509311 0
M  V30 2 N 0.355578 -4.748584 2.989817 0
M  V30 3 C 0.929417 -4.847437 1.668984 0
M  V30 4 N 0.975877 -3.782044 0.861053 0
M  V30 5 C 1.480507 -3.747717 -0.377753 0
M  V30 6 N 1.506918 -2.587543 -1.198889 0
M  V30 7 C 1.040601 -1.274778 -0.925421 0
M  V30 8 C 0.455464 -0.883887 0.243833 0
M  V30 9 C -0.002787 0.384857 0.527485 0
M  V30 10 O -0.590592 0.762502 1.712001 0
M  V30 11 C -0.828329 -0.039052 2.818223 0
M  V30 12 C 0.129158 1.364010 -0.436997 0
M  V30 13 C -0.309845 2.745272 -0.274147 0
M  V30 14 C 0.474758 3.763286 0.232318 0
M  V30 15 C 1.898134 3.631704 0.698537 0
M  V30 16 N -0.262913 4.904423 0.236118 0
M  V30 17 N -1.467776 4.638438 -0.244876 0
M  V30 18 C -2.609013 5.509035 -0.443745 0
M  V30 19 C -1.534310 3.316162 -0.570535 0
M  V30 20 C -2.658032 2.535230 -1.141026 0
M  V30 21 C 0.711562 1.018424 -1.629332 0
M  V30 22 C 1.150996 -0.262687 -1.859011 0
M  V30 23 Cl 1.886966 -0.610838 -3.423618 0
M  V30 24 N 1.979824 -4.877142 -0.843538 0
M  V30 25 C 1.971296 -5.988887 -0.096783 0
M  V30 26 C 1.450559 -6.017269 1.176925 0
M  V30 27 C 1.437099 -7.247097 2.010346 0
M  V30 28 F 2.162637 -6.972709 3.153143 0
M  V30 29 F 2.036096 -8.303758 1.352931 0
M  V30 30 F 0.129139 -7.531719 2.348344 0
M  V30 31 H -0.727896 -2.934735 2.727081 0
M  V30 32 H 0.586288 -2.843066 3.931827 0
M  V30 33 H -0.887389 -3.762755 4.327093 0
M  V30 34 H 0.346009 -5.610199 3.579103 0
M  V30 35 H 1.934721 -2.697434 -2.163983 0
M  V30 36 H 0.308837 -1.566436 1.049445 0
M  V30 37 H 0.041443 -0.646018 3.136878 0
M  V30 38 H -1.685863 -0.708260 2.651631 0
M  V30 39 H -1.092276 0.625846 3.690486 0
M  V30 40 H 1.892958 3.448315 1.783779 0
M  V30 41 H 2.458963 4.546716 0.470975 0
M  V30 42 H 2.386409 2.815127 0.117772 0
M  V30 43 H -2.416799 6.463529 0.123927 0
M  V30 44 H -2.755761 5.805305 -1.487206 0
M  V30 45 H -3.510027 5.079981 0.033598 0
M  V30 46 H -2.765997 1.540738 -0.706677 0
M  V30 47 H -3.613408 3.074839 -0.973653 0
M  V30 48 H -2.528324 2.522149 -2.261410 0
M  V30 49 H 0.829494 1.761794 -2.404976 0
M  V30 50 H 2.396764 -6.895835 -0.530121 0
M  V30 END ATOM
M  V30 BEGIN BOND
M  V30 1 1 1 2
M  V30 2 1 2 3
M  V30 3 2 3 4
M  V30 4 1 4 5
M  V30 5 1 5 6
M  V30 6 1 6 7
M  V30 7 2 7 8
M  V30 8 1 8 9
M  V30 9 1 9 10
M  V30 10 1 10 11
M  V30 11 2 9 12
M  V30 12 1 12 13
M  V30 13 1 13 14
M  V30 14 1 14 15
M  V30 15 2 14 16
M  V30 16 1 16 17
M  V30 17 1 17 18
M  V30 18 1 17 19
M  V30 19 1 19 20
M  V30 20 1 12 21
M  V30 21 2 21 22
M  V30 22 1 22 23
M  V30 23 2 5 24
M  V30 24 1 24 25
M  V30 25 2 25 26
M  V30 26 1 26 27
M  V30 27 1 27 28
M  V30 28 1 27 29
M  V30 29 1 27 30
M  V30 30 1 26 3
M  V30 31 1 22 7
M  V30 32 2 19 13
M  V30 33 1 1 31
M  V30 34 1 1 32
M  V30 35 1 1 33
M  V30 36 1 2 34
M  V30 37 1 6 35
M  V30 38 1 8 36
M  V30 39 1 11 37
M  V30 40 1 11 38
M  V30 41 1 11 39
M  V30 42 1 15 40
M  V30 43 1 15 41
M  V30 44 1 15 42
M  V30 45 1 18 43
M  V30 46 1 18 44
M  V30 47 1 18 45
M  V30 48 1 20 46
M  V30 49 1 20 47
M  V30 50 1 20 48
M  V30 51 1 21 49
M  V30 52 1 25 50
M  V30 END BOND
M  V30 END CTAB
M  END
>  <Dataset>  (541) 
ChEMBL_Kinases

>  <Ligand_Instance>  (541) 
nan

>  <PDB_ID>  (541) 
nan

>  <Standardized_SMILES>  (541) 
CNc1nc(Nc2cc(OC)c(-c3c(C)nn(C)c3C)cc2Cl)ncc1C(F)(F)F

>  <Name>  (541) 
nan

>  <Pocket>  (541) 
nan

>  <ATP_Site>  (541) 
nan

>  <Peripheral>  (541) 
nan

>  <Num_H_Atoms_ProtBoundConf>  (541) 
nan

>  <Num_Resolved_Atoms>  (541) 
nan

>  <Num_Not_Resolved_Atoms>  (541) 
nan

$$$$
CHEMBL3681029
     RDKit          3D

  0  0  0  0  0  0  0  0  0  0999 V3000
M  V30 BEGIN CTAB
M  V30 COUNTS 44 46 0 0 0
M  V30 BEGIN ATOM
M  V30 1 C -0.538101 -4.970939 3.703025 0
M  V30 2 N -1.877749 -4.828305 3.142626 0
M  V30 3 C -2.187353 -3.824927 2.187033 0
M  V30 4 N -1.170669 -3.023108 1.825200 0
M  V30 5 C -1.330058 -2.035929 0.915516 0
M  V30 6 N -0.386398 -1.115668 0.507409 0
M  V30 7 C 0.543165 -0.160240 0.120620 0
M  V30 8 C -0.035775 0.999727 0.673136 0
M  V30 9 C 0.538806 2.272106 0.516734 0
M  V30 10 C 1.705037 2.303296 -0.213364 0
M  V30 11 C 2.524986 3.464255 -0.513071 0
M  V30 12 C 3.075012 3.946603 -1.703200 0
M  V30 13 C 3.776408 5.069075 -1.379464 0
M  V30 14 N 3.648993 5.247358 -0.050956 0
M  V30 15 N 2.914908 4.309081 0.469775 0
M  V30 16 C 2.709513 4.375400 1.903605 0
M  V30 17 C 2.272153 1.175943 -0.753257 0
M  V30 18 C 1.707977 -0.062988 -0.597480 0
M  V30 19 O 2.060876 -1.313420 -1.019039 0
M  V30 20 C 3.212604 -1.589504 -1.780103 0
M  V30 21 N -2.548319 -1.834021 0.338239 0
M  V30 22 C -3.625290 -2.573604 0.627512 0
M  V30 23 C -3.373450 -3.538117 1.549082 0
M  V30 24 C -4.493470 -4.417697 1.965877 0
M  V30 25 F -4.724168 -4.274748 3.341032 0
M  V30 26 F -5.634940 -4.122467 1.249389 0
M  V30 27 F -4.198895 -5.757206 1.773229 0
M  V30 28 H -0.064362 -5.869658 3.288638 0
M  V30 29 H -0.549983 -5.097481 4.798965 0
M  V30 30 H 0.130325 -4.116259 3.416165 0
M  V30 31 H -2.526508 -5.541020 3.531763 0
M  V30 32 H 0.042420 -1.894146 -0.095719 0
M  V30 33 H -0.939988 1.213572 1.277370 0
M  V30 34 H 0.249763 3.255632 0.846400 0
M  V30 35 H 2.888480 3.424850 -2.610076 0
M  V30 36 H 4.279923 5.589741 -2.185431 0
M  V30 37 H 2.107684 3.512675 2.281597 0
M  V30 38 H 2.290977 5.358838 2.187850 0
M  V30 39 H 3.709116 4.309766 2.425852 0
M  V30 40 H 3.180434 1.083078 -1.341196 0
M  V30 41 H 3.367082 -0.926639 -2.646023 0
M  V30 42 H 3.162625 -2.646360 -2.178008 0
M  V30 43 H 4.120303 -1.572946 -1.132416 0
M  V30 44 H -4.616212 -2.474417 0.212750 0
M  V30 END ATOM
M  V30 BEGIN BOND
M  V30 1 1 1 2
M  V30 2 1 2 3
M  V30 3 2 3 4
M  V30 4 1 4 5
M  V30 5 1 5 6
M  V30 6 1 6 7
M  V30 7 2 7 8
M  V30 8 1 8 9
M  V30 9 2 9 10
M  V30 10 1 10 11
M  V30 11 2 11 12
M  V30 12 1 12 13
M  V30 13 2 13 14
M  V30 14 1 14 15
M  V30 15 1 15 16
M  V30 16 1 10 17
M  V30 17 2 17 18
M  V30 18 1 18 19
M  V30 19 1 19 20
M  V30 20 2 5 21
M  V30 21 1 21 22
M  V30 22 2 22 23
M  V30 23 1 23 24
M  V30 24 1 24 25
M  V30 25 1 24 26
M  V30 26 1 24 27
M  V30 27 1 23 3
M  V30 28 1 18 7
M  V30 29 1 15 11
M  V30 30 1 1 28
M  V30 31 1 1 29
M  V30 32 1 1 30
M  V30 33 1 2 31
M  V30 34 1 6 32
M  V30 35 1 8 33
M  V30 36 1 9 34
M  V30 37 1 12 35
M  V30 38 1 13 36
M  V30 39 1 16 37
M  V30 40 1 16 38
M  V30 41 1 16 39
M  V30 42 1 17 40
M  V30 43 1 20 41
M  V30 44 1 20 42
M  V30 45 1 20 43
M  V30 46 1 22 44
M  V30 END BOND
M  V30 END CTAB
M  END
>  <Dataset>  (542) 
ChEMBL_Kinases

>  <Ligand_Instance>  (542) 
nan

>  <PDB_ID>  (542) 
nan

>  <Standardized_SMILES>  (542) 
CNc1nc(Nc2ccc(-c3ccnn3C)cc2OC)ncc1C(F)(F)F

>  <Name>  (542) 
nan

>  <Pocket>  (542) 
nan

>  <ATP_Site>  (542) 
nan

>  <Peripheral>  (542) 
nan

>  <Num_H_Atoms_ProtBoundConf>  (542) 
nan

>  <Num_Resolved_Atoms>  (542) 
nan

>  <Num_Not_Resolved_Atoms>  (542) 
nan

$$$$
CHEMBL3681030
     RDKit          3D

  0  0  0  0  0  0  0  0  0  0999 V3000
M  V30 BEGIN CTAB
M  V30 COUNTS 46 48 0 0 0
M  V30 BEGIN ATOM
M  V30 1 C -4.443084 -1.603006 3.038655 0
M  V30 2 N -3.803833 -2.851535 2.775289 0
M  V30 3 C -2.792570 -3.083018 1.830239 0
M  V30 4 N -2.252917 -2.141438 1.018712 0
M  V30 5 C -1.284230 -2.420686 0.147987 0
M  V30 6 N -0.696214 -1.456185 -0.698545 0
M  V30 7 C 0.335440 -0.413698 -0.549678 0
M  V30 8 C 0.511377 -0.544854 0.874287 0
M  V30 9 C 1.418931 0.306715 1.520664 0
M  V30 10 C 2.113495 1.240322 0.781089 0
M  V30 11 C 3.068332 2.249607 1.073001 0
M  V30 12 C 2.863825 3.595542 1.403596 0
M  V30 13 C 1.485738 4.151379 1.491021 0
M  V30 14 N 4.041433 4.198818 1.602484 0
M  V30 15 O 4.989640 3.318173 1.418183 0
M  V30 16 C 4.452940 2.152295 1.102945 0
M  V30 17 C 5.333261 0.995805 0.843501 0
M  V30 18 C 1.769862 1.156893 -0.517882 0
M  V30 19 C 1.011463 0.537944 -1.468729 0
M  V30 20 O 0.276068 -0.062636 -2.388930 0
M  V30 21 C 0.371646 0.337421 -3.735914 0
M  V30 22 N -0.744067 -3.665189 -0.013809 0
M  V30 23 C -1.221225 -4.683625 0.758983 0
M  V30 24 C -2.204957 -4.333378 1.623967 0
M  V30 25 C -2.746556 -5.422431 2.471799 0
M  V30 26 F -4.105225 -5.575315 2.204281 0
M  V30 27 F -2.127908 -6.610400 2.150663 0
M  V30 28 F -2.548255 -5.213981 3.810175 0
M  V30 29 H -3.807523 -1.001806 3.750454 0
M  V30 30 H -4.493248 -0.998055 2.099935 0
M  V30 31 H -5.413738 -1.696533 3.548930 0
M  V30 32 H -4.151388 -3.635362 3.363716 0
M  V30 33 H -1.219945 -1.644513 -1.599218 0
M  V30 34 H 0.119988 -1.168893 1.705654 0
M  V30 35 H 1.706199 0.383406 2.553932 0
M  V30 36 H 1.475964 5.114937 2.037073 0
M  V30 37 H 0.777872 3.480175 1.969689 0
M  V30 38 H 1.220865 4.421507 0.440559 0
M  V30 39 H 4.826874 0.060702 0.625352 0
M  V30 40 H 5.932930 0.778938 1.779525 0
M  V30 41 H 6.153075 1.264516 0.109692 0
M  V30 42 H 2.197652 1.813724 -1.324490 0
M  V30 43 H 0.429641 -0.554437 -4.422562 0
M  V30 44 H 1.346747 0.877388 -3.916002 0
M  V30 45 H -0.444827 0.987779 -4.082983 0
M  V30 46 H -0.841250 -5.689481 0.680611 0
M  V30 END ATOM
M  V30 BEGIN BOND
M  V30 1 1 1 2
M  V30 2 1 2 3
M  V30 3 2 3 4
M  V30 4 1 4 5
M  V30 5 1 5 6
M  V30 6 1 6 7
M  V30 7 2 7 8
M  V30 8 1 8 9
M  V30 9 2 9 10
M  V30 10 1 10 11
M  V30 11 1 11 12
M  V30 12 1 12 13
M  V30 13 2 12 14
M  V30 14 1 14 15
M  V30 15 1 15 16
M  V30 16 1 16 17
M  V30 17 1 10 18
M  V30 18 2 18 19
M  V30 19 1 19 20
M  V30 20 1 20 21
M  V30 21 2 5 22
M  V30 22 1 22 23
M  V30 23 2 23 24
M  V30 24 1 24 25
M  V30 25 1 25 26
M  V30 26 1 25 27
M  V30 27 1 25 28
M  V30 28 1 24 3
M  V30 29 1 19 7
M  V30 30 2 16 11
M  V30 31 1 1 29
M  V30 32 1 1 30
M  V30 33 1 1 31
M  V30 34 1 2 32
M  V30 35 1 6 33
M  V30 36 1 8 34
M  V30 37 1 9 35
M  V30 38 1 13 36
M  V30 39 1 13 37
M  V30 40 1 13 38
M  V30 41 1 17 39
M  V30 42 1 17 40
M  V30 43 1 17 41
M  V30 44 1 18 42
M  V30 45 1 21 43
M  V30 46 1 21 44
M  V30 47 1 21 45
M  V30 48 1 23 46
M  V30 END BOND
M  V30 END CTAB
M  END
>  <Dataset>  (543) 
ChEMBL_Kinases

>  <Ligand_Instance>  (543) 
nan

>  <PDB_ID>  (543) 
nan

>  <Standardized_SMILES>  (543) 
CNc1nc(Nc2ccc(-c3c(C)noc3C)cc2OC)ncc1C(F)(F)F

>  <Name>  (543) 
nan

>  <Pocket>  (543) 
nan

>  <ATP_Site>  (543) 
nan

>  <Peripheral>  (543) 
nan

>  <Num_H_Atoms_ProtBoundConf>  (543) 
nan

>  <Num_Resolved_Atoms>  (543) 
nan

>  <Num_Not_Resolved_Atoms>  (543) 
nan

$$$$
CHEMBL3681031
     RDKit          3D

  0  0  0  0  0  0  0  0  0  0999 V3000
M  V30 BEGIN CTAB
M  V30 COUNTS 39 41 0 0 0
M  V30 BEGIN ATOM
M  V30 1 C -0.868600 -3.564428 4.021398 0
M  V30 2 N -1.941282 -3.644786 3.026132 0
M  V30 3 C -1.845384 -3.152040 1.690418 0
M  V30 4 N -0.678213 -2.568227 1.325339 0
M  V30 5 C -0.482330 -2.065188 0.072734 0
M  V30 6 N 0.774472 -1.467607 -0.218121 0
M  V30 7 C 1.121085 -0.098245 -0.112801 0
M  V30 8 C 0.158132 0.827797 0.303503 0
M  V30 9 C 0.384010 2.201447 0.437203 0
M  V30 10 C 1.674438 2.648394 0.124561 0
M  V30 11 N 1.824432 4.051400 0.282493 0
M  V30 12 C 1.771484 4.592510 1.513360 0
M  V30 13 N 1.923691 5.906468 1.496473 0
M  V30 14 N 2.079416 6.218352 0.208650 0
M  V30 15 N 2.017460 5.098052 -0.498263 0
M  V30 16 C 2.633406 1.748378 -0.286462 0
M  V30 17 C 2.372894 0.402390 -0.405727 0
M  V30 18 O 3.307057 -0.508486 -0.810659 0
M  V30 19 C 4.637264 -0.267158 -1.165347 0
M  V30 20 N -1.484886 -2.153794 -0.827894 0
M  V30 21 C -2.670118 -2.723090 -0.526080 0
M  V30 22 C -2.864487 -3.230501 0.741729 0
M  V30 23 C -4.126417 -3.893114 1.231899 0
M  V30 24 F -3.854810 -5.195264 1.629753 0
M  V30 25 F -4.664847 -3.219536 2.306521 0
M  V30 26 F -5.040598 -3.946025 0.215913 0
M  V30 27 H 0.063517 -3.344803 3.462758 0
M  V30 28 H -0.707798 -4.544901 4.535563 0
M  V30 29 H -1.075625 -2.746521 4.711854 0
M  V30 30 H -2.818226 -4.106627 3.376870 0
M  V30 31 H 1.534904 -2.103613 -0.546806 0
M  V30 32 H -0.845408 0.464563 0.544234 0
M  V30 33 H -0.418180 2.841224 0.765012 0
M  V30 34 H 1.627404 4.139589 2.508173 0
M  V30 35 H 3.607233 2.156099 -0.511323 0
M  V30 36 H 4.718019 0.468890 -1.972117 0
M  V30 37 H 5.112938 -1.252788 -1.422486 0
M  V30 38 H 5.121796 0.203405 -0.269283 0
M  V30 39 H -3.490879 -2.813020 -1.213062 0
M  V30 END ATOM
M  V30 BEGIN BOND
M  V30 1 1 1 2
M  V30 2 1 2 3
M  V30 3 2 3 4
M  V30 4 1 4 5
M  V30 5 1 5 6
M  V30 6 1 6 7
M  V30 7 2 7 8
M  V30 8 1 8 9
M  V30 9 2 9 10
M  V30 10 1 10 11
M  V30 11 1 11 12
M  V30 12 2 12 13
M  V30 13 1 13 14
M  V30 14 2 14 15
M  V30 15 1 10 16
M  V30 16 2 16 17
M  V30 17 1 17 18
M  V30 18 1 18 19
M  V30 19 2 5 20
M  V30 20 1 20 21
M  V30 21 2 21 22
M  V30 22 1 22 23
M  V30 23 1 23 24
M  V30 24 1 23 25
M  V30 25 1 23 26
M  V30 26 1 22 3
M  V30 27 1 17 7
M  V30 28 1 15 11
M  V30 29 1 1 27
M  V30 30 1 1 28
M  V30 31 1 1 29
M  V30 32 1 2 30
M  V30 33 1 6 31
M  V30 34 1 8 32
M  V30 35 1 9 33
M  V30 36 1 12 34
M  V30 37 1 16 35
M  V30 38 1 19 36
M  V30 39 1 19 37
M  V30 40 1 19 38
M  V30 41 1 21 39
M  V30 END BOND
M  V30 END CTAB
M  END
>  <Dataset>  (544) 
ChEMBL_Kinases

>  <Ligand_Instance>  (544) 
nan

>  <PDB_ID>  (544) 
nan

>  <Standardized_SMILES>  (544) 
CNc1nc(Nc2ccc(-n3cnnn3)cc2OC)ncc1C(F)(F)F

>  <Name>  (544) 
nan

>  <Pocket>  (544) 
nan

>  <ATP_Site>  (544) 
nan

>  <Peripheral>  (544) 
nan

>  <Num_H_Atoms_ProtBoundConf>  (544) 
nan

>  <Num_Resolved_Atoms>  (544) 
nan

>  <Num_Not_Resolved_Atoms>  (544) 
nan

$$$$
CHEMBL3680803
     RDKit          3D

  0  0  0  0  0  0  0  0  0  0999 V3000
M  V30 BEGIN CTAB
M  V30 COUNTS 60 64 0 0 0
M  V30 BEGIN ATOM
M  V30 1 C 6.498573 0.779615 6.068026 0
M  V30 2 N 5.745340 -0.033597 5.103320 0
M  V30 3 C 6.592952 -0.191255 3.958702 0
M  V30 4 C 5.928103 -0.982873 2.847413 0
M  V30 5 C 4.742787 -0.173802 2.456153 0
M  V30 6 C 4.315179 -0.207026 1.146764 0
M  V30 7 C 3.197065 0.565257 0.810832 0
M  V30 8 C 2.555888 1.334025 1.789342 0
M  V30 9 N 1.452246 2.029678 1.216393 0
M  V30 10 C 0.283956 1.253767 1.295072 0
M  V30 11 O 0.439401 0.124444 1.843582 0
M  V30 12 C -1.038903 1.686928 0.788915 0
M  V30 13 C -1.216032 2.920732 0.201108 0
M  V30 14 C -2.500451 3.209944 -0.235163 0
M  V30 15 C -3.554163 2.330347 -0.099494 0
M  V30 16 C -3.369244 1.098415 0.489270 0
M  V30 17 C -4.395273 0.043670 0.702338 0
M  V30 18 N -4.454271 -0.892584 -0.419109 0
M  V30 19 C -5.075812 -0.580430 -1.638393 0
M  V30 20 O -5.637996 0.506813 -1.897104 0
M  V30 21 C -5.043329 -1.626030 -2.654778 0
M  V30 22 N -4.618767 -2.715575 -2.749407 0
M  V30 23 C -4.712673 -3.505146 -3.818328 0
M  V30 24 C -4.162870 -4.852681 -3.880319 0
M  V30 25 C -4.264337 -5.661579 -4.987704 0
M  V30 26 C -3.721598 -6.926666 -4.984127 0
M  V30 27 C -3.050138 -7.458123 -3.885421 0
M  V30 28 N -2.952498 -6.660844 -2.799785 0
M  V30 29 C -3.489566 -5.434446 -2.830376 0
M  V30 30 C -5.407614 -2.946701 -4.958282 0
M  V30 31 S -5.860249 -1.264322 -4.306667 0
M  V30 32 C -2.092031 0.806391 0.925232 0
M  V30 33 C 3.009058 1.345777 3.092601 0
M  V30 34 C 4.115520 0.581476 3.424906 0
M  V30 35 C 4.516421 0.667535 4.849580 0
M  V30 36 H 6.428549 1.817788 5.698060 0
M  V30 37 H 5.913734 0.714135 7.010837 0
M  V30 38 H 7.529036 0.428116 6.189618 0
M  V30 39 H 6.740118 0.838061 3.518124 0
M  V30 40 H 7.538811 -0.634834 4.291400 0
M  V30 41 H 5.666625 -1.982909 3.196434 0
M  V30 42 H 6.681681 -0.999516 2.011876 0
M  V30 43 H 4.844417 -0.819410 0.420700 0
M  V30 44 H 2.931411 0.481280 -0.230193 0
M  V30 45 H 1.405089 2.974930 0.777089 0
M  V30 46 H -0.401447 3.610940 0.091822 0
M  V30 47 H -2.670826 4.179740 -0.704639 0
M  V30 48 H -4.550198 2.549085 -0.433421 0
M  V30 49 H -4.149483 -0.532834 1.608302 0
M  V30 50 H -5.375034 0.537083 0.862963 0
M  V30 51 H -3.999062 -1.846216 -0.283615 0
M  V30 52 H -4.763198 -5.330973 -5.872288 0
M  V30 53 H -3.791197 -7.578105 -5.846429 0
M  V30 54 H -2.610987 -8.434569 -3.833032 0
M  V30 55 H -3.369118 -4.848805 -1.912398 0
M  V30 56 H -5.565352 -3.473310 -5.908194 0
M  V30 57 H -1.887614 -0.162672 1.402462 0
M  V30 58 H 2.409673 1.989663 3.737644 0
M  V30 59 H 3.648582 0.260291 5.438399 0
M  V30 60 H 4.577792 1.746944 5.168254 0
M  V30 END ATOM
M  V30 BEGIN BOND
M  V30 1 1 1 2
M  V30 2 1 2 3
M  V30 3 1 3 4
M  V30 4 1 4 5
M  V30 5 2 5 6
M  V30 6 1 6 7
M  V30 7 2 7 8
M  V30 8 1 8 9
M  V30 9 1 9 10
M  V30 10 2 10 11
M  V30 11 1 10 12
M  V30 12 2 12 13
M  V30 13 1 13 14
M  V30 14 2 14 15
M  V30 15 1 15 16
M  V30 16 1 16 17
M  V30 17 1 17 18
M  V30 18 1 18 19
M  V30 19 2 19 20
M  V30 20 1 19 21
M  V30 21 2 21 22
M  V30 22 1 22 23
M  V30 23 1 23 24
M  V30 24 2 24 25
M  V30 25 1 25 26
M  V30 26 2 26 27
M  V30 27 1 27 28
M  V30 28 2 28 29
M  V30 29 2 23 30
M  V30 30 1 30 31
M  V30 31 2 16 32
M  V30 32 1 8 33
M  V30 33 2 33 34
M  V30 34 1 34 35
M  V30 35 1 35 2
M  V30 36 1 34 5
M  V30 37 1 32 12
M  V30 38 1 31 21
M  V30 39 1 29 24
M  V30 40 1 1 36
M  V30 41 1 1 37
M  V30 42 1 1 38
M  V30 43 1 3 39
M  V30 44 1 3 40
M  V30 45 1 4 41
M  V30 46 1 4 42
M  V30 47 1 6 43
M  V30 48 1 7 44
M  V30 49 1 9 45
M  V30 50 1 13 46
M  V30 51 1 14 47
M  V30 52 1 15 48
M  V30 53 1 17 49
M  V30 54 1 17 50
M  V30 55 1 18 51
M  V30 56 1 25 52
M  V30 57 1 26 53
M  V30 58 1 27 54
M  V30 59 1 29 55
M  V30 60 1 30 56
M  V30 61 1 32 57
M  V30 62 1 33 58
M  V30 63 1 35 59
M  V30 64 1 35 60
M  V30 END BOND
M  V30 END CTAB
M  END
>  <Dataset>  (545) 
ChEMBL_Kinases

>  <Ligand_Instance>  (545) 
nan

>  <PDB_ID>  (545) 
nan

>  <Standardized_SMILES>  (545) 
CN1CCc2ccc(NC(=O)c3cccc(CNC(=O)c4nc(-c5cccnc5)cs4)c3)cc2C1

>  <Name>  (545) 
nan

>  <Pocket>  (545) 
nan

>  <ATP_Site>  (545) 
nan

>  <Peripheral>  (545) 
nan

>  <Num_H_Atoms_ProtBoundConf>  (545) 
nan

>  <Num_Resolved_Atoms>  (545) 
nan

>  <Num_Not_Resolved_Atoms>  (545) 
nan

$$$$
CHEMBL3144948
     RDKit          3D

  0  0  0  0  0  0  0  0  0  0999 V3000
M  V30 BEGIN CTAB
M  V30 COUNTS 32 33 0 0 0
M  V30 BEGIN ATOM
M  V30 1 C -3.782765 -2.763191 3.427709 0
M  V30 2 S -2.114603 -3.260511 3.930018 0
M  V30 3 C -0.977381 -2.885756 2.605799 0
M  V30 4 C 0.339935 -3.229287 2.887595 0
M  V30 5 C 1.318742 -2.990029 1.942320 0
M  V30 6 C 1.061869 -2.414520 0.700004 0
M  V30 7 N 2.111185 -2.204628 -0.204547 0
M  V30 8 N 2.484084 -1.153038 -0.748174 0
M  V30 9 C 1.963397 0.139517 -0.616938 0
M  V30 10 C 1.059224 0.707902 -1.504475 0
M  V30 11 C 0.454778 0.118080 -2.743171 0
M  V30 12 N 0.739777 1.961378 -1.117524 0
M  V30 13 N 1.422676 2.210765 0.004452 0
M  V30 14 C 1.357158 3.462682 0.745850 0
M  V30 15 C 2.161795 1.131267 0.320792 0
M  V30 16 O 2.937970 0.994801 1.316571 0
M  V30 17 C -0.260579 -2.092649 0.470813 0
M  V30 18 C -1.265222 -2.315688 1.388419 0
M  V30 19 H -3.897079 -2.743812 2.323252 0
M  V30 20 H -4.036555 -1.733949 3.783670 0
M  V30 21 H -4.552984 -3.478433 3.784573 0
M  V30 22 H 0.686232 -3.687991 3.821858 0
M  V30 23 H 2.365750 -3.254721 2.146795 0
M  V30 24 H 0.884463 0.586189 -3.655586 0
M  V30 25 H -0.635459 0.299061 -2.781479 0
M  V30 26 H 0.670497 -0.964428 -2.848135 0
M  V30 27 H 0.091042 2.652901 -1.565520 0
M  V30 28 H 2.158184 3.475132 1.501939 0
M  V30 29 H 0.369714 3.465144 1.256358 0
M  V30 30 H 1.396715 4.345828 0.067641 0
M  V30 31 H -0.519580 -1.642161 -0.478744 0
M  V30 32 H -2.295092 -2.080152 1.245241 0
M  V30 END ATOM
M  V30 BEGIN BOND
M  V30 1 1 1 2
M  V30 2 1 2 3
M  V30 3 2 3 4
M  V30 4 1 4 5
M  V30 5 2 5 6
M  V30 6 1 6 7
M  V30 7 2 7 8 CFG=2
M  V30 8 1 8 9
M  V30 9 2 9 10
M  V30 10 1 10 11
M  V30 11 1 10 12
M  V30 12 1 12 13
M  V30 13 1 13 14
M  V30 14 1 13 15
M  V30 15 2 15 16
M  V30 16 1 6 17
M  V30 17 2 17 18
M  V30 18 1 18 3
M  V30 19 1 15 9
M  V30 20 1 1 19
M  V30 21 1 1 20
M  V30 22 1 1 21
M  V30 23 1 4 22
M  V30 24 1 5 23
M  V30 25 1 11 24
M  V30 26 1 11 25
M  V30 27 1 11 26
M  V30 28 1 12 27
M  V30 29 1 14 28
M  V30 30 1 14 29
M  V30 31 1 14 30
M  V30 32 1 17 31
M  V30 33 1 18 32
M  V30 END BOND
M  V30 END CTAB
M  END
>  <Dataset>  (546) 
ChEMBL_Kinases

>  <Ligand_Instance>  (546) 
nan

>  <PDB_ID>  (546) 
nan

>  <Standardized_SMILES>  (546) 
CSc1ccc(N=Nc2c(C)[nH]n(C)c2=O)cc1

>  <Name>  (546) 
nan

>  <Pocket>  (546) 
nan

>  <ATP_Site>  (546) 
nan

>  <Peripheral>  (546) 
nan

>  <Num_H_Atoms_ProtBoundConf>  (546) 
nan

>  <Num_Resolved_Atoms>  (546) 
nan

>  <Num_Not_Resolved_Atoms>  (546) 
nan

$$$$
CHEMBL3144868
     RDKit          3D

  0  0  0  0  0  0  0  0  0  0999 V3000
M  V30 BEGIN CTAB
M  V30 COUNTS 45 49 0 0 0
M  V30 BEGIN ATOM
M  V30 1 O 0.834376 -2.837686 3.079226 0
M  V30 2 C 0.370418 -1.749657 2.682521 0
M  V30 3 C 1.203022 -0.763658 2.209039 0
M  V30 4 C 2.566711 -0.640371 2.035400 0
M  V30 5 O 3.383073 -1.697200 2.387569 0
M  V30 6 C 3.045163 0.544296 1.514159 0
M  V30 7 C 2.244464 1.624149 1.151569 0
M  V30 8 C 2.963790 2.791394 0.616347 0
M  V30 9 S 3.179871 2.758832 -1.174741 0
M  V30 10 C 1.588221 2.905890 -1.971304 0
M  V30 11 N 1.227460 4.195553 -2.211355 0
M  V30 12 N 0.027734 4.186415 -2.807971 0
M  V30 13 N -0.362325 2.929054 -2.943294 0
M  V30 14 N 0.575728 2.149222 -2.439823 0
M  V30 15 C 0.799952 0.735346 -2.261272 0
M  V30 16 C 1.940351 0.092372 -2.692641 0
M  V30 17 C 2.107846 -1.262557 -2.498038 0
M  V30 18 C 1.103696 -1.951728 -1.861379 0
M  V30 19 C -0.027436 -1.286291 -1.439202 0
M  V30 20 C -0.226182 0.062852 -1.617199 0
M  V30 21 N 0.911392 1.485226 1.328685 0
M  V30 22 C 0.413049 0.330214 1.839650 0
M  V30 23 N -0.856556 -0.028060 2.099659 0
M  V30 24 N -0.896267 -1.257301 2.599189 0
M  V30 25 C -1.939894 -2.123879 3.043615 0
M  V30 26 C -2.415846 -3.131422 2.213820 0
M  V30 27 C -3.438509 -4.005019 2.608514 0
M  V30 28 C -3.978719 -3.831401 3.887850 0
M  V30 29 C -3.515730 -2.830599 4.729863 0
M  V30 30 C -2.504242 -1.979267 4.318187 0
M  V30 31 H 3.335659 -2.575505 1.888933 0
M  V30 32 H 4.130762 0.555707 1.411058 0
M  V30 33 H 3.938815 2.895078 1.144294 0
M  V30 34 H 2.374387 3.712827 0.838094 0
M  V30 35 H 2.675351 0.718099 -3.183801 0
M  V30 36 H 3.028993 -1.713003 -2.860465 0
M  V30 37 H 1.239137 -3.013943 -1.711065 0
M  V30 38 H -0.759790 -1.931560 -0.945645 0
M  V30 39 H -1.151576 0.456766 -1.241197 0
M  V30 40 H -1.756054 0.506801 1.965597 0
M  V30 41 H -1.999315 -3.265668 1.227035 0
M  V30 42 H -3.780068 -4.776572 1.931655 0
M  V30 43 H -4.769806 -4.500382 4.204680 0
M  V30 44 H -3.922697 -2.682962 5.722119 0
M  V30 45 H -2.079577 -1.173403 4.902211 0
M  V30 END ATOM
M  V30 BEGIN BOND
M  V30 1 2 1 2
M  V30 2 1 2 3
M  V30 3 2 3 4
M  V30 4 1 4 5
M  V30 5 1 4 6
M  V30 6 2 6 7
M  V30 7 1 7 8
M  V30 8 1 8 9
M  V30 9 1 9 10
M  V30 10 2 10 11
M  V30 11 1 11 12
M  V30 12 2 12 13
M  V30 13 1 13 14
M  V30 14 1 14 15
M  V30 15 2 15 16
M  V30 16 1 16 17
M  V30 17 2 17 18
M  V30 18 1 18 19
M  V30 19 2 19 20
M  V30 20 1 7 21
M  V30 21 2 21 22
M  V30 22 1 22 23
M  V30 23 1 23 24
M  V30 24 1 24 25
M  V30 25 2 25 26
M  V30 26 1 26 27
M  V30 27 2 27 28
M  V30 28 1 28 29
M  V30 29 2 29 30
M  V30 30 1 24 2
M  V30 31 1 30 25
M  V30 32 1 22 3
M  V30 33 1 14 10
M  V30 34 1 20 15
M  V30 35 1 5 31
M  V30 36 1 6 32
M  V30 37 1 8 33
M  V30 38 1 8 34
M  V30 39 1 16 35
M  V30 40 1 17 36
M  V30 41 1 18 37
M  V30 42 1 19 38
M  V30 43 1 20 39
M  V30 44 1 23 40
M  V30 45 1 26 41
M  V30 46 1 27 42
M  V30 47 1 28 43
M  V30 48 1 29 44
M  V30 49 1 30 45
M  V30 END BOND
M  V30 END CTAB
M  END
>  <Dataset>  (547) 
ChEMBL_Kinases

>  <Ligand_Instance>  (547) 
nan

>  <PDB_ID>  (547) 
nan

>  <Standardized_SMILES>  (547) 
O=c1c2c(O)cc(CSc3nnnn3-c3ccccc3)nc2[nH]n1-c1ccccc1

>  <Name>  (547) 
nan

>  <Pocket>  (547) 
nan

>  <ATP_Site>  (547) 
nan

>  <Peripheral>  (547) 
nan

>  <Num_H_Atoms_ProtBoundConf>  (547) 
nan

>  <Num_Resolved_Atoms>  (547) 
nan

>  <Num_Not_Resolved_Atoms>  (547) 
nan

$$$$
CHEMBL3143723
     RDKit          3D

  0  0  0  0  0  0  0  0  0  0999 V3000
M  V30 BEGIN CTAB
M  V30 COUNTS 77 83 0 0 0
M  V30 BEGIN ATOM
M  V30 1 O 4.187118 -4.796197 2.600168 0
M  V30 2 C 3.849487 -3.715200 2.016096 0
M  V30 3 N 2.622313 -3.652540 1.413681 0
M  V30 4 C 2.268518 -2.491826 0.790646 0
M  V30 5 C 0.952108 -2.590313 0.191901 0
M  V30 6 C 0.872346 -2.484465 -1.180503 0
M  V30 7 C -0.365435 -2.592961 -1.807668 0
M  V30 8 C -1.572275 -2.807887 -1.132236 0
M  V30 9 C -2.813074 -2.910639 -1.928059 0
M  V30 10 N -3.496974 -1.693495 -2.025088 0
M  V30 11 C -2.848920 -0.557237 -2.555023 0
M  V30 12 C -3.419395 0.722078 -1.916302 0
M  V30 13 C -4.658524 0.305771 -1.160356 0
M  V30 14 N -5.299478 1.339034 -0.429484 0
M  V30 15 C -5.409035 2.663692 -0.645398 0
M  V30 16 O -4.904763 3.233463 -1.642786 0
M  V30 17 N -6.132243 3.212357 0.375557 0
M  V30 18 C -6.485278 2.263317 1.237737 0
M  V30 19 C -7.199461 2.190018 2.429381 0
M  V30 20 C -7.406553 1.012435 3.119370 0
M  V30 21 C -6.892782 -0.170191 2.628799 0
M  V30 22 C -6.185445 -0.099456 1.449067 0
M  V30 23 C -5.964940 1.082126 0.736412 0
M  V30 24 C -5.529775 -0.435612 -2.151451 0
M  V30 25 C -4.885436 -1.800155 -2.418011 0
M  V30 26 C -1.461179 -2.907816 0.233393 0
M  V30 27 C -0.248042 -2.802436 0.859533 0
M  V30 28 C 3.128348 -1.417908 0.774128 0
M  V30 29 C 2.776129 -0.171795 0.121462 0
M  V30 30 C 2.816833 0.261663 -1.190600 0
M  V30 31 C 2.411869 1.524216 -1.517654 0
M  V30 32 C 1.943803 2.433487 -0.576670 0
M  V30 33 C 1.896616 2.011175 0.751339 0
M  V30 34 C 2.312016 0.717058 1.083686 0
M  V30 35 N 4.343742 -1.490178 1.374613 0
M  V30 36 C 4.712803 -2.640153 1.999821 0
M  V30 37 C 6.032315 -2.823535 2.691016 0
M  V30 38 C 6.962134 -1.740189 2.299216 0
M  V30 39 C 7.115244 -0.505595 2.904228 0
M  V30 40 C 8.035544 0.406856 2.419815 0
M  V30 41 C 8.827731 0.127155 1.328073 0
M  V30 42 O 9.770246 1.038002 0.817786 0
M  V30 43 C 8.714441 -1.094225 0.685319 0
M  V30 44 C 7.785450 -1.968005 1.204572 0
M  V30 45 H 2.040918 -4.511430 1.478580 0
M  V30 46 H 1.704207 -2.329559 -1.818361 0
M  V30 47 H -0.412770 -2.507014 -2.897326 0
M  V30 48 H -3.403599 -3.745814 -1.494930 0
M  V30 49 H -2.520280 -3.249713 -2.964741 0
M  V30 50 H -3.071229 -0.464111 -3.650424 0
M  V30 51 H -1.761874 -0.592758 -2.458961 0
M  V30 52 H -3.657509 1.486065 -2.666627 0
M  V30 53 H -2.687496 1.071774 -1.164959 0
M  V30 54 H -4.288848 -0.514446 -0.468014 0
M  V30 55 H -6.377349 4.216441 0.479088 0
M  V30 56 H -7.619202 3.113050 2.841055 0
M  V30 57 H -7.957564 0.935150 4.045797 0
M  V30 58 H -7.029371 -1.101773 3.126907 0
M  V30 59 H -5.784093 -1.051941 1.072863 0
M  V30 60 H -6.574869 -0.530928 -1.854378 0
M  V30 61 H -5.499972 0.180324 -3.096742 0
M  V30 62 H -5.015005 -1.985758 -3.523292 0
M  V30 63 H -5.343762 -2.608425 -1.824821 0
M  V30 64 H -2.363820 -3.071753 0.776235 0
M  V30 65 H -0.179255 -2.885507 1.935889 0
M  V30 66 H 3.197341 -0.511206 -1.830713 0
M  V30 67 H 2.479015 1.769365 -2.559278 0
M  V30 68 H 1.651419 3.401713 -0.952976 0
M  V30 69 H 1.526682 2.767068 1.410618 0
M  V30 70 H 2.196734 0.588605 2.162335 0
M  V30 71 H 6.493684 -3.788218 2.412623 0
M  V30 72 H 5.900505 -2.849084 3.792481 0
M  V30 73 H 6.484632 -0.319336 3.748596 0
M  V30 74 H 8.154682 1.372829 2.894854 0
M  V30 75 H 9.388744 1.890345 0.381023 0
M  V30 76 H 9.317000 -1.351742 -0.169235 0
M  V30 77 H 7.715900 -2.919096 0.682983 0
M  V30 END ATOM
M  V30 BEGIN BOND
M  V30 1 2 1 2
M  V30 2 1 2 3
M  V30 3 1 3 4
M  V30 4 1 4 5
M  V30 5 2 5 6
M  V30 6 1 6 7
M  V30 7 2 7 8
M  V30 8 1 8 9
M  V30 9 1 9 10
M  V30 10 1 10 11
M  V30 11 1 11 12
M  V30 12 1 12 13
M  V30 13 1 13 14
M  V30 14 1 14 15
M  V30 15 2 15 16
M  V30 16 1 15 17
M  V30 17 1 17 18
M  V30 18 2 18 19
M  V30 19 1 19 20
M  V30 20 2 20 21
M  V30 21 1 21 22
M  V30 22 2 22 23
M  V30 23 1 13 24
M  V30 24 1 24 25
M  V30 25 1 8 26
M  V30 26 2 26 27
M  V30 27 2 4 28
M  V30 28 1 28 29
M  V30 29 2 29 30
M  V30 30 1 30 31
M  V30 31 2 31 32
M  V30 32 1 32 33
M  V30 33 2 33 34
M  V30 34 1 28 35
M  V30 35 2 35 36
M  V30 36 1 36 37
M  V30 37 1 37 38
M  V30 38 2 38 39
M  V30 39 1 39 40
M  V30 40 2 40 41
M  V30 41 1 41 42
M  V30 42 1 41 43
M  V30 43 2 43 44
M  V30 44 1 36 2
M  V30 45 1 44 38
M  V30 46 1 27 5
M  V30 47 1 34 29
M  V30 48 1 25 10
M  V30 49 1 23 14
M  V30 50 1 23 18
M  V30 51 1 3 45
M  V30 52 1 6 46
M  V30 53 1 7 47
M  V30 54 1 9 48
M  V30 55 1 9 49
M  V30 56 1 11 50
M  V30 57 1 11 51
M  V30 58 1 12 52
M  V30 59 1 12 53
M  V30 60 1 13 54
M  V30 61 1 17 55
M  V30 62 1 19 56
M  V30 63 1 20 57
M  V30 64 1 21 58
M  V30 65 1 22 59
M  V30 66 1 24 60
M  V30 67 1 24 61
M  V30 68 1 25 62
M  V30 69 1 25 63
M  V30 70 1 26 64
M  V30 71 1 27 65
M  V30 72 1 30 66
M  V30 73 1 31 67
M  V30 74 1 32 68
M  V30 75 1 33 69
M  V30 76 1 34 70
M  V30 77 1 37 71
M  V30 78 1 37 72
M  V30 79 1 39 73
M  V30 80 1 40 74
M  V30 81 1 42 75
M  V30 82 1 43 76
M  V30 83 1 44 77
M  V30 END BOND
M  V30 END CTAB
M  END
>  <Dataset>  (548) 
ChEMBL_Kinases

>  <Ligand_Instance>  (548) 
nan

>  <PDB_ID>  (548) 
nan

>  <Standardized_SMILES>  (548) 
O=c1[nH]c(-c2ccc(CN3CCC(n4c(=O)[nH]c5ccccc54)CC3)cc2)c(-c2ccccc2)nc1Cc1ccc(O)cc1

>  <Name>  (548) 
nan

>  <Pocket>  (548) 
nan

>  <ATP_Site>  (548) 
nan

>  <Peripheral>  (548) 
nan

>  <Num_H_Atoms_ProtBoundConf>  (548) 
nan

>  <Num_Resolved_Atoms>  (548) 
nan

>  <Num_Not_Resolved_Atoms>  (548) 
nan

$$$$
CHEMBL3143721
     RDKit          3D

  0  0  0  0  0  0  0  0  0  0999 V3000
M  V30 BEGIN CTAB
M  V30 COUNTS 75 80 0 0 0
M  V30 BEGIN ATOM
M  V30 1 C 5.305600 2.015532 6.185135 0
M  V30 2 C 4.082654 2.803054 6.593235 0
M  V30 3 C 2.839539 1.982103 6.544432 0
M  V30 4 C 1.615837 2.785082 6.958420 0
M  V30 5 C 2.543221 1.410796 5.204566 0
M  V30 6 N 1.828831 2.179516 4.361722 0
M  V30 7 C 1.502261 1.768475 3.120534 0
M  V30 8 C 0.732169 2.539214 2.145709 0
M  V30 9 C 1.166310 3.773115 1.657895 0
M  V30 10 C 0.419691 4.467780 0.744737 0
M  V30 11 C -0.779844 3.940690 0.299719 0
M  V30 12 C -1.252579 2.713755 0.758315 0
M  V30 13 C -0.470606 2.028003 1.688702 0
M  V30 14 C 1.913120 0.506606 2.685281 0
M  V30 15 C 1.624364 -0.063377 1.356262 0
M  V30 16 C 2.067940 0.435034 0.149424 0
M  V30 17 C 1.687186 -0.242211 -0.992818 0
M  V30 18 C 0.892187 -1.380664 -0.968762 0
M  V30 19 C 0.610869 -1.953063 -2.306148 0
M  V30 20 N -0.539102 -1.345625 -2.877758 0
M  V30 21 C -1.765229 -1.466061 -2.196342 0
M  V30 22 C -2.985612 -1.550245 -3.062416 0
M  V30 23 C -2.804254 -2.276606 -4.365863 0
M  V30 24 N -3.610556 -3.494824 -4.428639 0
M  V30 25 C -4.731482 -3.750580 -5.156487 0
M  V30 26 O -5.278997 -2.927117 -5.935509 0
M  V30 27 N -5.192266 -4.986669 -4.950625 0
M  V30 28 C -4.364593 -5.578331 -4.064590 0
M  V30 29 C -4.357422 -6.843103 -3.494127 0
M  V30 30 C -3.381453 -7.221590 -2.591829 0
M  V30 31 C -2.382679 -6.300880 -2.252774 0
M  V30 32 C -2.457210 -5.065179 -2.860887 0
M  V30 33 C -3.397879 -4.642201 -3.756462 0
M  V30 34 C -1.398800 -2.447460 -4.817618 0
M  V30 35 C -0.594573 -1.268966 -4.291403 0
M  V30 36 C 0.483194 -1.826952 0.265544 0
M  V30 37 C 0.830566 -1.194536 1.431171 0
M  V30 38 N 2.628820 -0.269666 3.522740 0
M  V30 39 C 2.939557 0.168474 4.756443 0
M  V30 40 O 3.595717 -0.543758 5.524285 0
M  V30 41 H 5.351392 1.101639 6.838908 0
M  V30 42 H 5.310996 1.674648 5.149718 0
M  V30 43 H 6.246508 2.576395 6.427814 0
M  V30 44 H 4.237989 3.082578 7.664588 0
M  V30 45 H 4.008193 3.760419 6.049631 0
M  V30 46 H 2.941605 1.162068 7.311842 0
M  V30 47 H 0.719071 2.230153 6.595394 0
M  V30 48 H 1.663358 3.801052 6.516674 0
M  V30 49 H 1.627640 2.829002 8.067096 0
M  V30 50 H 2.104237 4.185069 2.006140 0
M  V30 51 H 0.694791 5.425654 0.326280 0
M  V30 52 H -1.403956 4.472675 -0.433766 0
M  V30 53 H -2.196417 2.332541 0.387354 0
M  V30 54 H -0.886840 1.084552 2.007342 0
M  V30 55 H 2.675930 1.312454 0.190488 0
M  V30 56 H 2.085874 0.226008 -1.905992 0
M  V30 57 H 1.468795 -1.852749 -2.990971 0
M  V30 58 H 0.408691 -3.039026 -2.143980 0
M  V30 59 H -1.708644 -2.282772 -1.449769 0
M  V30 60 H -1.872059 -0.542494 -1.555565 0
M  V30 61 H -3.733098 -2.138614 -2.466710 0
M  V30 62 H -3.449273 -0.547021 -3.159743 0
M  V30 63 H -3.283147 -1.593930 -5.132767 0
M  V30 64 H -6.026768 -5.441387 -5.374509 0
M  V30 65 H -5.110351 -7.583434 -3.728817 0
M  V30 66 H -3.346877 -8.199188 -2.129003 0
M  V30 67 H -1.606340 -6.566729 -1.550117 0
M  V30 68 H -1.663638 -4.393684 -2.564821 0
M  V30 69 H -1.332289 -2.338302 -5.941376 0
M  V30 70 H -0.921211 -3.407347 -4.609906 0
M  V30 71 H 0.434295 -1.349862 -4.703625 0
M  V30 72 H -1.122689 -0.349674 -4.608363 0
M  V30 73 H -0.124711 -2.708922 0.257562 0
M  V30 74 H 0.441405 -1.649738 2.337939 0
M  V30 75 H 2.959156 -1.230716 3.232671 0
M  V30 END ATOM
M  V30 BEGIN BOND
M  V30 1 1 1 2
M  V30 2 1 2 3
M  V30 3 1 3 4
M  V30 4 1 3 5
M  V30 5 2 5 6
M  V30 6 1 6 7
M  V30 7 1 7 8
M  V30 8 2 8 9
M  V30 9 1 9 10
M  V30 10 2 10 11
M  V30 11 1 11 12
M  V30 12 2 12 13
M  V30 13 2 7 14
M  V30 14 1 14 15
M  V30 15 2 15 16
M  V30 16 1 16 17
M  V30 17 2 17 18
M  V30 18 1 18 19
M  V30 19 1 19 20
M  V30 20 1 20 21
M  V30 21 1 21 22
M  V30 22 1 22 23
M  V30 23 1 23 24
M  V30 24 1 24 25
M  V30 25 2 25 26
M  V30 26 1 25 27
M  V30 27 1 27 28
M  V30 28 2 28 29
M  V30 29 1 29 30
M  V30 30 2 30 31
M  V30 31 1 31 32
M  V30 32 2 32 33
M  V30 33 1 23 34
M  V30 34 1 34 35
M  V30 35 1 18 36
M  V30 36 2 36 37
M  V30 37 1 14 38
M  V30 38 1 38 39
M  V30 39 2 39 40
M  V30 40 1 39 5
M  V30 41 1 13 8
M  V30 42 1 37 15
M  V30 43 1 35 20
M  V30 44 1 33 24
M  V30 45 1 33 28
M  V30 46 1 1 41
M  V30 47 1 1 42
M  V30 48 1 1 43
M  V30 49 1 2 44
M  V30 50 1 2 45
M  V30 51 1 3 46
M  V30 52 1 4 47
M  V30 53 1 4 48
M  V30 54 1 4 49
M  V30 55 1 9 50
M  V30 56 1 10 51
M  V30 57 1 11 52
M  V30 58 1 12 53
M  V30 59 1 13 54
M  V30 60 1 16 55
M  V30 61 1 17 56
M  V30 62 1 19 57
M  V30 63 1 19 58
M  V30 64 1 21 59
M  V30 65 1 21 60
M  V30 66 1 22 61
M  V30 67 1 22 62
M  V30 68 1 23 63
M  V30 69 1 27 64
M  V30 70 1 29 65
M  V30 71 1 30 66
M  V30 72 1 31 67
M  V30 73 1 32 68
M  V30 74 1 34 69
M  V30 75 1 34 70
M  V30 76 1 35 71
M  V30 77 1 35 72
M  V30 78 1 36 73
M  V30 79 1 37 74
M  V30 80 1 38 75
M  V30 END BOND
M  V30 END CTAB
M  END
>  <Dataset>  (549) 
ChEMBL_Kinases

>  <Ligand_Instance>  (549) 
nan

>  <PDB_ID>  (549) 
nan

>  <Standardized_SMILES>  (549) 
CCC(C)c1nc(-c2ccccc2)c(-c2ccc(CN3CCC(n4c(=O)[nH]c5ccccc54)CC3)cc2)[nH]c1=O

>  <Name>  (549) 
nan

>  <Pocket>  (549) 
nan

>  <ATP_Site>  (549) 
nan

>  <Peripheral>  (549) 
nan

>  <Num_H_Atoms_ProtBoundConf>  (549) 
nan

>  <Num_Resolved_Atoms>  (549) 
nan

>  <Num_Not_Resolved_Atoms>  (549) 
nan

$$$$
CHEMBL313842
     RDKit          3D

  0  0  0  0  0  0  0  0  0  0999 V3000
M  V30 BEGIN CTAB
M  V30 COUNTS 29 30 0 0 0
M  V30 BEGIN ATOM
M  V30 1 C -2.923580 -2.430051 1.030341 0
M  V30 2 O -2.698133 -1.037837 1.026384 0
M  V30 3 C -1.464364 -0.425919 0.933107 0
M  V30 4 C -0.332290 -1.205679 0.834088 0
M  V30 5 C 0.914639 -0.622940 0.739115 0
M  V30 6 C 2.174991 -1.343728 0.627333 0
M  V30 7 C 2.266844 -2.728775 0.600707 0
M  V30 8 C 3.461658 -3.415006 0.492296 0
M  V30 9 C 4.621737 -2.675229 0.406189 0
M  V30 10 O 5.782799 -3.169271 0.302865 0
M  V30 11 N 4.531604 -1.333586 0.432026 0
M  V30 12 N 3.366119 -0.718939 0.537173 0
M  V30 13 C 0.987968 0.755718 0.746724 0
M  V30 14 C -0.171322 1.494782 0.847508 0
M  V30 15 C -1.440773 0.975545 0.944921 0
M  V30 16 O -2.636292 1.636442 1.048170 0
M  V30 17 C -2.706590 3.035758 1.069462 0
M  V30 18 F -3.457470 3.437425 2.186280 0
M  V30 19 F -3.511906 3.390546 -0.023045 0
M  V30 20 H -2.197999 -2.936387 0.390069 0
M  V30 21 H -2.918561 -2.851271 2.060474 0
M  V30 22 H -3.941270 -2.558837 0.554519 0
M  V30 23 H -0.334877 -2.273470 0.825621 0
M  V30 24 H 1.386259 -3.322776 0.665139 0
M  V30 25 H 3.548453 -4.479004 0.469932 0
M  V30 26 H 5.311770 -0.645164 0.376695 0
M  V30 27 H 1.938933 1.255815 0.674360 0
M  V30 28 H -0.065613 2.562860 0.849505 0
M  V30 29 H -1.769838 3.576580 1.000740 0
M  V30 END ATOM
M  V30 BEGIN BOND
M  V30 1 1 1 2
M  V30 2 1 2 3
M  V30 3 2 3 4
M  V30 4 1 4 5
M  V30 5 1 5 6
M  V30 6 1 6 7
M  V30 7 2 7 8
M  V30 8 1 8 9
M  V30 9 2 9 10
M  V30 10 1 9 11
M  V30 11 1 11 12
M  V30 12 2 5 13
M  V30 13 1 13 14
M  V30 14 2 14 15
M  V30 15 1 15 16
M  V30 16 1 16 17
M  V30 17 1 17 18
M  V30 18 1 17 19
M  V30 19 1 15 3
M  V30 20 2 12 6
M  V30 21 1 1 20
M  V30 22 1 1 21
M  V30 23 1 1 22
M  V30 24 1 4 23
M  V30 25 1 7 24
M  V30 26 1 8 25
M  V30 27 1 11 26
M  V30 28 1 13 27
M  V30 29 1 14 28
M  V30 30 1 17 29
M  V30 END BOND
M  V30 END CTAB
M  END
>  <Dataset>  (550) 
ChEMBL_Kinases

>  <Ligand_Instance>  (550) 
nan

>  <PDB_ID>  (550) 
nan

>  <Standardized_SMILES>  (550) 
COc1cc(-c2ccc(=O)[nH]n2)ccc1OC(F)F

>  <Name>  (550) 
ZARDAVERINE

>  <Pocket>  (550) 
nan

>  <ATP_Site>  (550) 
nan

>  <Peripheral>  (550) 
nan

>  <Num_H_Atoms_ProtBoundConf>  (550) 
nan

>  <Num_Resolved_Atoms>  (550) 
nan

>  <Num_Not_Resolved_Atoms>  (550) 
nan

$$$$
CHEMBL313417
     RDKit          3D

  0  0  0  0  0  0  0  0  0  0999 V3000
M  V30 BEGIN CTAB
M  V30 COUNTS 33 36 0 0 0
M  V30 BEGIN ATOM
M  V30 1 F -1.165755 0.800369 6.025523 0
M  V30 2 C -0.946187 0.210144 4.815093 0
M  V30 3 C 0.073307 -0.736967 4.682269 0
M  V30 4 C 0.293658 -1.338940 3.438961 0
M  V30 5 C -0.507137 -0.980261 2.365673 0
M  V30 6 C -0.292454 -1.598044 1.064934 0
M  V30 7 N -0.420321 -2.919392 0.881739 0
M  V30 8 C -0.169141 -3.212474 -0.395195 0
M  V30 9 N 0.132448 -2.109171 -1.104162 0
M  V30 10 C 0.050505 -1.117161 -0.179449 0
M  V30 11 C 0.282718 0.320635 -0.392584 0
M  V30 12 C 1.285843 1.020532 0.222356 0
M  V30 13 C 1.409140 2.370211 -0.053845 0
M  V30 14 N 0.590490 3.016384 -0.894574 0
M  V30 15 C -0.394280 2.313680 -1.493858 0
M  V30 16 C -0.581903 0.952846 -1.266517 0
M  V30 17 C 0.428572 -2.247094 -2.503631 0
M  V30 18 C 0.968993 -3.610892 -2.781009 0
M  V30 19 S -0.068946 -4.563905 -1.597594 0
M  V30 20 C -1.523675 -0.039673 2.486319 0
M  V30 21 C -1.742112 0.558007 3.721633 0
M  V30 22 H 0.705149 -1.021496 5.524424 0
M  V30 23 H 1.087024 -2.079316 3.326028 0
M  V30 24 H 1.944067 0.486175 0.902356 0
M  V30 25 H 2.219596 2.890713 0.455200 0
M  V30 26 H -1.019860 2.874142 -2.154827 0
M  V30 27 H -1.406154 0.486362 -1.801833 0
M  V30 28 H -0.460283 -2.111953 -3.153545 0
M  V30 29 H 1.134227 -1.455792 -2.806942 0
M  V30 30 H 0.677778 -3.946183 -3.803020 0
M  V30 31 H 2.041938 -3.732121 -2.572662 0
M  V30 32 H -2.149146 0.232811 1.625158 0
M  V30 33 H -2.537119 1.305751 3.852688 0
M  V30 END ATOM
M  V30 BEGIN BOND
M  V30 1 1 1 2
M  V30 2 2 2 3
M  V30 3 1 3 4
M  V30 4 2 4 5
M  V30 5 1 5 6
M  V30 6 1 6 7
M  V30 7 2 7 8
M  V30 8 1 8 9
M  V30 9 1 9 10
M  V30 10 1 10 11
M  V30 11 2 11 12
M  V30 12 1 12 13
M  V30 13 2 13 14
M  V30 14 1 14 15
M  V30 15 2 15 16
M  V30 16 1 9 17
M  V30 17 1 17 18
M  V30 18 1 18 19
M  V30 19 1 5 20
M  V30 20 2 20 21
M  V30 21 1 21 2
M  V30 22 2 10 6
M  V30 23 1 16 11
M  V30 24 1 19 8
M  V30 25 1 3 22
M  V30 26 1 4 23
M  V30 27 1 12 24
M  V30 28 1 13 25
M  V30 29 1 15 26
M  V30 30 1 16 27
M  V30 31 1 17 28
M  V30 32 1 17 29
M  V30 33 1 18 30
M  V30 34 1 18 31
M  V30 35 1 20 32
M  V30 36 1 21 33
M  V30 END BOND
M  V30 END CTAB
M  END
>  <Dataset>  (551) 
ChEMBL_Kinases

>  <Ligand_Instance>  (551) 
nan

>  <PDB_ID>  (551) 
nan

>  <Standardized_SMILES>  (551) 
Fc1ccc(-c2nc3n(c2-c2ccncc2)CCS3)cc1

>  <Name>  (551) 
nan

>  <Pocket>  (551) 
nan

>  <ATP_Site>  (551) 
nan

>  <Peripheral>  (551) 
nan

>  <Num_H_Atoms_ProtBoundConf>  (551) 
nan

>  <Num_Resolved_Atoms>  (551) 
nan

>  <Num_Not_Resolved_Atoms>  (551) 
nan

$$$$
CHEMBL3133837
     RDKit          3D

  0  0  0  0  0  0  0  0  0  0999 V3000
M  V30 BEGIN CTAB
M  V30 COUNTS 47 50 0 0 0
M  V30 BEGIN ATOM
M  V30 1 C 2.640599 -3.853330 1.348387 0
M  V30 2 N 1.367988 -3.236098 1.395847 0
M  V30 3 C 0.279754 -3.872198 0.791745 0
M  V30 4 C -0.160645 -3.422632 -0.558784 0
M  V30 5 C -0.222149 -1.909310 -0.561863 0
M  V30 6 C 1.140170 -1.450434 -0.119348 0
M  V30 7 C 1.406006 -1.767110 1.329597 0
M  V30 8 C 0.436244 -1.316881 2.329426 0
M  V30 9 C 0.171778 0.068728 2.678773 0
M  V30 10 N -0.262633 0.919414 1.629544 0
M  V30 11 C 0.678414 1.713270 0.928366 0
M  V30 12 C 2.022013 1.664180 1.240575 0
M  V30 13 C 3.024564 2.386988 0.629122 0
M  V30 14 C 2.683021 3.246529 -0.392610 0
M  V30 15 C 1.357947 3.347636 -0.759510 0
M  V30 16 C 0.433702 2.591611 -0.095736 0
M  V30 17 S -1.235457 2.823078 -0.665540 0
M  V30 18 C -2.249384 1.742851 0.327852 0
M  V30 19 C -3.561332 1.774700 0.025566 0
M  V30 20 C -4.432986 0.973432 0.732636 0
M  V30 21 C -3.906341 0.166759 1.730184 0
M  V30 22 Br -5.156978 -0.916193 2.670919 0
M  V30 23 C -2.553673 0.202531 1.966020 0
M  V30 24 C -1.638853 0.981837 1.292443 0
M  V30 25 H 2.868175 -4.207226 2.396044 0
M  V30 26 H 2.530792 -4.808216 0.761600 0
M  V30 27 H 3.476544 -3.256450 0.981223 0
M  V30 28 H -0.628922 -3.782712 1.457817 0
M  V30 29 H 0.492030 -4.978853 0.815305 0
M  V30 30 H 0.565226 -3.728418 -1.348670 0
M  V30 31 H -1.163806 -3.839573 -0.762080 0
M  V30 32 H -0.344988 -1.579476 -1.616597 0
M  V30 33 H -1.048688 -1.537776 0.044601 0
M  V30 34 H 1.856517 -2.161902 -0.674953 0
M  V30 35 H 1.375229 -0.491897 -0.501681 0
M  V30 36 H 2.433683 -1.449342 1.568181 0
M  V30 37 H 0.756933 -1.834947 3.312195 0
M  V30 38 H -0.523574 -1.901155 2.108334 0
M  V30 39 H -0.649299 0.138894 3.479928 0
M  V30 40 H 1.055175 0.495097 3.243463 0
M  V30 41 H 2.434279 1.030454 2.012434 0
M  V30 42 H 4.073206 2.341971 0.880646 0
M  V30 43 H 3.436928 3.830661 -0.897645 0
M  V30 44 H 1.133707 4.023980 -1.555129 0
M  V30 45 H -3.996273 2.393860 -0.746511 0
M  V30 46 H -5.489938 0.982718 0.507329 0
M  V30 47 H -2.314619 -0.483320 2.762152 0
M  V30 END ATOM
M  V30 BEGIN BOND
M  V30 1 1 1 2
M  V30 2 1 2 3
M  V30 3 1 3 4
M  V30 4 1 4 5
M  V30 5 1 5 6
M  V30 6 1 6 7
M  V30 7 1 7 8
M  V30 8 1 8 9
M  V30 9 1 9 10
M  V30 10 1 10 11
M  V30 11 2 11 12
M  V30 12 1 12 13
M  V30 13 2 13 14
M  V30 14 1 14 15
M  V30 15 2 15 16
M  V30 16 1 16 17
M  V30 17 1 17 18
M  V30 18 2 18 19
M  V30 19 1 19 20
M  V30 20 2 20 21
M  V30 21 1 21 22
M  V30 22 1 21 23
M  V30 23 2 23 24
M  V30 24 1 7 2
M  V30 25 1 24 10
M  V30 26 1 16 11
M  V30 27 1 24 18
M  V30 28 1 1 25
M  V30 29 1 1 26
M  V30 30 1 1 27
M  V30 31 1 3 28
M  V30 32 1 3 29
M  V30 33 1 4 30
M  V30 34 1 4 31
M  V30 35 1 5 32
M  V30 36 1 5 33
M  V30 37 1 6 34
M  V30 38 1 6 35
M  V30 39 1 7 36
M  V30 40 1 8 37
M  V30 41 1 8 38
M  V30 42 1 9 39
M  V30 43 1 9 40
M  V30 44 1 12 41
M  V30 45 1 13 42
M  V30 46 1 14 43
M  V30 47 1 15 44
M  V30 48 1 19 45
M  V30 49 1 20 46
M  V30 50 1 23 47
M  V30 END BOND
M  V30 END CTAB
M  END
>  <Dataset>  (552) 
ChEMBL_Kinases

>  <Ligand_Instance>  (552) 
nan

>  <PDB_ID>  (552) 
nan

>  <Standardized_SMILES>  (552) 
CN1CCCCC1CCN1c2ccccc2Sc2ccc(Br)cc21

>  <Name>  (552) 
nan

>  <Pocket>  (552) 
nan

>  <ATP_Site>  (552) 
nan

>  <Peripheral>  (552) 
nan

>  <Num_H_Atoms_ProtBoundConf>  (552) 
nan

>  <Num_Resolved_Atoms>  (552) 
nan

>  <Num_Not_Resolved_Atoms>  (552) 
nan

$$$$
CHEMBL3133836
     RDKit          3D

  0  0  0  0  0  0  0  0  0  0999 V3000
M  V30 BEGIN CTAB
M  V30 COUNTS 47 50 0 0 0
M  V30 BEGIN ATOM
M  V30 1 C 2.123609 -3.870807 2.085556 0
M  V30 2 N 1.484273 -3.239300 1.002625 0
M  V30 3 C 0.366746 -3.854008 0.440788 0
M  V30 4 C -0.112463 -3.326438 -0.862255 0
M  V30 5 C -0.217492 -1.820132 -0.772066 0
M  V30 6 C 1.169767 -1.357622 -0.372074 0
M  V30 7 C 1.513733 -1.770883 1.028066 0
M  V30 8 C 0.619378 -1.394442 2.121549 0
M  V30 9 C 0.365156 -0.041571 2.579998 0
M  V30 10 N -0.156954 0.863382 1.622925 0
M  V30 11 C 0.711751 1.712958 0.913996 0
M  V30 12 C 2.076886 1.676092 1.129000 0
M  V30 13 C 3.011749 2.463351 0.488320 0
M  V30 14 C 2.591461 3.373667 -0.450163 0
M  V30 15 C 1.242432 3.463086 -0.714423 0
M  V30 16 C 0.379814 2.646660 -0.035624 0
M  V30 17 S -1.326513 2.876732 -0.477608 0
M  V30 18 C -2.245664 1.715611 0.517348 0
M  V30 19 C -3.574340 1.738463 0.309021 0
M  V30 20 C -4.382662 0.880739 1.022449 0
M  V30 21 C -3.784533 0.029483 1.926666 0
M  V30 22 Cl -4.848237 -1.041850 2.809776 0
M  V30 23 C -2.414612 0.076995 2.072856 0
M  V30 24 C -1.556472 0.910799 1.389772 0
M  V30 25 H 1.324732 -4.424552 2.662866 0
M  V30 26 H 2.805457 -4.690826 1.713916 0
M  V30 27 H 2.715615 -3.234376 2.741181 0
M  V30 28 H -0.507494 -3.793727 1.154147 0
M  V30 29 H 0.572513 -4.957722 0.405380 0
M  V30 30 H 0.631430 -3.572169 -1.660436 0
M  V30 31 H -1.102591 -3.725056 -1.134389 0
M  V30 32 H -0.393973 -1.453357 -1.795803 0
M  V30 33 H -1.010735 -1.518427 -0.083569 0
M  V30 34 H 1.856645 -2.014775 -1.019872 0
M  V30 35 H 1.350955 -0.373682 -0.708868 0
M  V30 36 H 2.559305 -1.485368 1.230585 0
M  V30 37 H 0.980505 -1.992408 3.043181 0
M  V30 38 H -0.360286 -1.972617 1.917734 0
M  V30 39 H -0.401637 -0.048801 3.434683 0
M  V30 40 H 1.292147 0.343635 3.095462 0
M  V30 41 H 2.557671 1.014432 1.822913 0
M  V30 42 H 4.078753 2.431080 0.659884 0
M  V30 43 H 3.294088 4.006385 -0.971619 0
M  V30 44 H 0.944669 4.185986 -1.455292 0
M  V30 45 H -4.077608 2.391390 -0.390984 0
M  V30 46 H -5.452296 0.878888 0.874469 0
M  V30 47 H -2.104592 -0.649165 2.809531 0
M  V30 END ATOM
M  V30 BEGIN BOND
M  V30 1 1 1 2
M  V30 2 1 2 3
M  V30 3 1 3 4
M  V30 4 1 4 5
M  V30 5 1 5 6
M  V30 6 1 6 7
M  V30 7 1 7 8
M  V30 8 1 8 9
M  V30 9 1 9 10
M  V30 10 1 10 11
M  V30 11 2 11 12
M  V30 12 1 12 13
M  V30 13 2 13 14
M  V30 14 1 14 15
M  V30 15 2 15 16
M  V30 16 1 16 17
M  V30 17 1 17 18
M  V30 18 2 18 19
M  V30 19 1 19 20
M  V30 20 2 20 21
M  V30 21 1 21 22
M  V30 22 1 21 23
M  V30 23 2 23 24
M  V30 24 1 7 2
M  V30 25 1 24 10
M  V30 26 1 16 11
M  V30 27 1 24 18
M  V30 28 1 1 25
M  V30 29 1 1 26
M  V30 30 1 1 27
M  V30 31 1 3 28
M  V30 32 1 3 29
M  V30 33 1 4 30
M  V30 34 1 4 31
M  V30 35 1 5 32
M  V30 36 1 5 33
M  V30 37 1 6 34
M  V30 38 1 6 35
M  V30 39 1 7 36
M  V30 40 1 8 37
M  V30 41 1 8 38
M  V30 42 1 9 39
M  V30 43 1 9 40
M  V30 44 1 12 41
M  V30 45 1 13 42
M  V30 46 1 14 43
M  V30 47 1 15 44
M  V30 48 1 19 45
M  V30 49 1 20 46
M  V30 50 1 23 47
M  V30 END BOND
M  V30 END CTAB
M  END
>  <Dataset>  (553) 
ChEMBL_Kinases

>  <Ligand_Instance>  (553) 
nan

>  <PDB_ID>  (553) 
nan

>  <Standardized_SMILES>  (553) 
CN1CCCCC1CCN1c2ccccc2Sc2ccc(Cl)cc21

>  <Name>  (553) 
nan

>  <Pocket>  (553) 
nan

>  <ATP_Site>  (553) 
nan

>  <Peripheral>  (553) 
nan

>  <Num_H_Atoms_ProtBoundConf>  (553) 
nan

>  <Num_Resolved_Atoms>  (553) 
nan

>  <Num_Not_Resolved_Atoms>  (553) 
nan

$$$$
CHEMBL3133835
     RDKit          3D

  0  0  0  0  0  0  0  0  0  0999 V3000
M  V30 BEGIN CTAB
M  V30 COUNTS 51 54 0 0 0
M  V30 BEGIN ATOM
M  V30 1 C 3.072547 -3.741388 4.139868 0
M  V30 2 S 3.885138 -3.203809 2.606278 0
M  V30 3 C 2.770049 -3.544862 1.259535 0
M  V30 4 C 2.837778 -4.763338 0.630143 0
M  V30 5 C 1.979799 -5.030532 -0.408869 0
M  V30 6 C 1.090977 -4.057690 -0.767957 0
M  V30 7 C 0.914651 -2.809477 -0.233374 0
M  V30 8 C 1.838241 -2.657244 0.807166 0
M  V30 9 N -0.037822 -1.795927 -0.636045 0
M  V30 10 C 0.138519 -0.671128 0.196274 0
M  V30 11 C -0.601148 0.579872 0.119696 0
M  V30 12 C -0.106398 1.605085 1.169073 0 CFG=2
M  V30 13 C -0.252533 1.167209 2.579739 0
M  V30 14 C 0.562589 2.179778 3.409829 0
M  V30 15 C 0.037619 3.553495 3.179918 0
M  V30 16 C -0.147115 3.886835 1.720083 0
M  V30 17 N -0.778539 2.855836 0.972544 0
M  V30 18 C -2.200508 2.811731 1.015892 0
M  V30 19 C -0.895374 -2.080921 -1.686745 0
M  V30 20 C -1.795864 -1.132129 -2.069958 0
M  V30 21 C -2.724512 -1.216547 -3.076591 0
M  V30 22 C -2.788641 -2.401045 -3.824102 0
M  V30 23 C -1.892682 -3.416356 -3.483780 0
M  V30 24 C -1.029491 -3.183111 -2.459088 0
M  V30 25 S 0.052350 -4.534463 -2.120006 0
M  V30 26 H 2.352107 -3.007099 4.527692 0
M  V30 27 H 2.525129 -4.684747 3.934597 0
M  V30 28 H 3.807593 -3.905118 4.952100 0
M  V30 29 H 3.558855 -5.488691 0.958211 0
M  V30 30 H 2.048579 -5.989792 -0.888490 0
M  V30 31 H 1.874396 -1.734973 1.370441 0
M  V30 32 H 0.103276 -1.024346 1.310423 0
M  V30 33 H 1.264578 -0.384381 0.135464 0
M  V30 34 H -1.694058 0.430319 0.366217 0
M  V30 35 H -0.535896 1.179081 -0.805056 0
M  V30 36 H 0.954289 1.743748 0.936021 0
M  V30 37 H -1.323954 1.276079 2.925977 0
M  V30 38 H 0.068615 0.157935 2.800796 0
M  V30 39 H 0.438167 1.953967 4.492352 0
M  V30 40 H 1.627267 2.091037 3.094172 0
M  V30 41 H 0.793534 4.274959 3.577926 0
M  V30 42 H -0.870295 3.722977 3.773507 0
M  V30 43 H -0.772892 4.801699 1.665346 0
M  V30 44 H 0.823561 4.165124 1.252607 0
M  V30 45 H -2.650666 3.658517 1.591662 0
M  V30 46 H -2.670019 2.892429 -0.007490 0
M  V30 47 H -2.604530 1.886989 1.463566 0
M  V30 48 H -1.921661 -0.173180 -1.646940 0
M  V30 49 H -3.450110 -0.485342 -3.404573 0
M  V30 50 H -3.482158 -2.567643 -4.635428 0
M  V30 51 H -1.945635 -4.316134 -4.055961 0
M  V30 END ATOM
M  V30 BEGIN BOND
M  V30 1 1 1 2
M  V30 2 1 2 3
M  V30 3 2 3 4
M  V30 4 1 4 5
M  V30 5 2 5 6
M  V30 6 1 6 7
M  V30 7 2 7 8
M  V30 8 1 7 9
M  V30 9 1 9 10
M  V30 10 1 10 11
M  V30 11 1 11 12
M  V30 12 1 12 13
M  V30 13 1 13 14
M  V30 14 1 14 15
M  V30 15 1 15 16
M  V30 16 1 16 17
M  V30 17 1 17 18
M  V30 18 1 9 19
M  V30 19 2 19 20
M  V30 20 1 20 21
M  V30 21 2 21 22
M  V30 22 1 22 23
M  V30 23 2 23 24
M  V30 24 1 24 25
M  V30 25 1 8 3
M  V30 26 1 17 12
M  V30 27 1 24 19
M  V30 28 1 25 6
M  V30 29 1 1 26
M  V30 30 1 1 27
M  V30 31 1 1 28
M  V30 32 1 4 29
M  V30 33 1 5 30
M  V30 34 1 8 31
M  V30 35 1 10 32
M  V30 36 1 10 33
M  V30 37 1 11 34
M  V30 38 1 11 35
M  V30 39 1 12 36 CFG=3
M  V30 40 1 13 37
M  V30 41 1 13 38
M  V30 42 1 14 39
M  V30 43 1 14 40
M  V30 44 1 15 41
M  V30 45 1 15 42
M  V30 46 1 16 43
M  V30 47 1 16 44
M  V30 48 1 18 45
M  V30 49 1 18 46
M  V30 50 1 18 47
M  V30 51 1 20 48
M  V30 52 1 21 49
M  V30 53 1 22 50
M  V30 54 1 23 51
M  V30 END BOND
M  V30 END CTAB
M  END
>  <Dataset>  (554) 
ChEMBL_Kinases

>  <Ligand_Instance>  (554) 
nan

>  <PDB_ID>  (554) 
nan

>  <Standardized_SMILES>  (554) 
CSc1ccc2c(c1)N(CC[C@@H]1CCCCN1C)c1ccccc1S2

>  <Name>  (554) 
nan

>  <Pocket>  (554) 
nan

>  <ATP_Site>  (554) 
nan

>  <Peripheral>  (554) 
nan

>  <Num_H_Atoms_ProtBoundConf>  (554) 
nan

>  <Num_Resolved_Atoms>  (554) 
nan

>  <Num_Not_Resolved_Atoms>  (554) 
nan

$$$$
CHEMBL3133776
     RDKit          3D

  0  0  0  0  0  0  0  0  0  0999 V3000
M  V30 BEGIN CTAB
M  V30 COUNTS 36 38 0 0 0
M  V30 BEGIN ATOM
M  V30 1 C -2.219489 -1.632065 2.815883 0
M  V30 2 O -1.485385 -2.519574 3.527452 0
M  V30 3 C -0.427649 -3.152812 3.043588 0
M  V30 4 C 0.807540 -2.484915 2.577319 0
M  V30 5 N 0.738551 -1.587762 1.468748 0
M  V30 6 C 0.638646 -0.263743 1.291406 0
M  V30 7 C 0.657193 0.106411 -0.032377 0
M  V30 8 C 0.564530 1.504049 -0.367391 0
M  V30 9 C 0.399549 2.100928 -1.578597 0
M  V30 10 C 0.298131 3.436779 -1.847738 0
M  V30 11 N 0.369670 4.278160 -0.777514 0
M  V30 12 C 0.531826 3.746089 0.445241 0
M  V30 13 N 0.618633 4.546571 1.637582 0
M  V30 14 N 0.621380 2.421519 0.609674 0
M  V30 15 C 0.778248 -1.089726 -0.678738 0
M  V30 16 C 0.853369 -1.319303 -2.017099 0
M  V30 17 C 0.979921 -2.586816 -2.519454 0
M  V30 18 Br 1.088183 -2.955270 -4.384638 0
M  V30 19 C 1.034476 -3.667435 -1.664573 0
M  V30 20 C 0.958362 -3.421802 -0.315391 0
M  V30 21 C 0.829029 -2.132475 0.216363 0
M  V30 22 H -3.105973 -1.308144 3.468270 0
M  V30 23 H -2.609430 -2.049109 1.872016 0
M  V30 24 H -1.638342 -0.686609 2.654121 0
M  V30 25 H -0.789110 -3.773397 2.137616 0
M  V30 26 H -0.140377 -4.020794 3.747699 0
M  V30 27 H 1.555818 -3.307042 2.364598 0
M  V30 28 H 1.258986 -1.966292 3.485789 0
M  V30 29 H 0.561529 0.268161 2.231082 0
M  V30 30 H 0.322863 1.499830 -2.452555 0
M  V30 31 H 0.168040 3.825155 -2.845076 0
M  V30 32 H 1.429080 5.020949 2.115216 0
M  V30 33 H -0.395464 4.542327 1.937043 0
M  V30 34 H 0.828437 -0.553294 -2.739417 0
M  V30 35 H 1.134042 -4.701367 -1.994157 0
M  V30 36 H 0.998849 -4.244054 0.362992 0
M  V30 END ATOM
M  V30 BEGIN BOND
M  V30 1 1 1 2
M  V30 2 1 2 3
M  V30 3 1 3 4
M  V30 4 1 4 5
M  V30 5 1 5 6
M  V30 6 2 6 7
M  V30 7 1 7 8
M  V30 8 2 8 9
M  V30 9 1 9 10
M  V30 10 2 10 11
M  V30 11 1 11 12
M  V30 12 1 12 13
M  V30 13 2 12 14
M  V30 14 1 7 15
M  V30 15 2 15 16
M  V30 16 1 16 17
M  V30 17 1 17 18
M  V30 18 2 17 19
M  V30 19 1 19 20
M  V30 20 2 20 21
M  V30 21 1 21 5
M  V30 22 1 14 8
M  V30 23 1 21 15
M  V30 24 1 1 22
M  V30 25 1 1 23
M  V30 26 1 1 24
M  V30 27 1 3 25
M  V30 28 1 3 26
M  V30 29 1 4 27
M  V30 30 1 4 28
M  V30 31 1 6 29
M  V30 32 1 9 30
M  V30 33 1 10 31
M  V30 34 1 13 32
M  V30 35 1 13 33
M  V30 36 1 16 34
M  V30 37 1 19 35
M  V30 38 1 20 36
M  V30 END BOND
M  V30 END CTAB
M  END
>  <Dataset>  (555) 
ChEMBL_Kinases

>  <Ligand_Instance>  (555) 
nan

>  <PDB_ID>  (555) 
nan

>  <Standardized_SMILES>  (555) 
COCCn1cc(-c2ccnc(N)n2)c2cc(Br)ccc21

>  <Name>  (555) 
nan

>  <Pocket>  (555) 
nan

>  <ATP_Site>  (555) 
nan

>  <Peripheral>  (555) 
nan

>  <Num_H_Atoms_ProtBoundConf>  (555) 
nan

>  <Num_Resolved_Atoms>  (555) 
nan

>  <Num_Not_Resolved_Atoms>  (555) 
nan

$$$$
CHEMBL3133771
     RDKit          3D

  0  0  0  0  0  0  0  0  0  0999 V3000
M  V30 BEGIN CTAB
M  V30 COUNTS 41 44 0 0 0
M  V30 BEGIN ATOM
M  V30 1 C -1.092845 -4.547577 0.756772 0
M  V30 2 C 0.368985 -4.449874 0.533005 0
M  V30 3 N 1.338407 -5.252794 1.016972 0
M  V30 4 O 2.486998 -4.802912 0.562982 0
M  V30 5 C 2.266099 -3.741789 -0.191050 0
M  V30 6 C 3.385457 -2.995852 -0.859268 0
M  V30 7 C 0.910853 -3.459957 -0.250741 0
M  V30 8 C 0.411672 -2.314311 -1.030547 0
M  V30 9 N 0.051621 -1.163953 -0.237114 0
M  V30 10 C 1.012774 -0.240473 0.065093 0
M  V30 11 C 0.486459 0.774489 0.834207 0
M  V30 12 C 1.139145 1.957319 1.380080 0
M  V30 13 C 2.475092 2.232144 1.176294 0
M  V30 14 C 3.154236 3.326402 1.660402 0
M  V30 15 N 2.411798 4.174845 2.390014 0
M  V30 16 C 1.104420 3.967027 2.626848 0
M  V30 17 N 0.372718 4.902874 3.408165 0
M  V30 18 N 0.488007 2.870189 2.123676 0
M  V30 19 C -0.846933 0.483810 1.024133 0
M  V30 20 C -1.917851 1.055752 1.668193 0
M  V30 21 C -3.184403 0.512625 1.679707 0
M  V30 22 Br -4.655417 1.328808 2.582531 0
M  V30 23 C -3.350172 -0.688256 0.986027 0
M  V30 24 C -2.302161 -1.298044 0.325386 0
M  V30 25 C -1.062246 -0.701036 0.354824 0
M  V30 26 H -1.602544 -4.428164 -0.223493 0
M  V30 27 H -1.326524 -5.610559 1.060783 0
M  V30 28 H -1.449430 -3.840642 1.530187 0
M  V30 29 H 4.256686 -3.666746 -1.000103 0
M  V30 30 H 3.687648 -2.140796 -0.235676 0
M  V30 31 H 3.088827 -2.696414 -1.891289 0
M  V30 32 H -0.537233 -2.620373 -1.564892 0
M  V30 33 H 1.096584 -2.014588 -1.831235 0
M  V30 34 H 2.066005 -0.196492 -0.199397 0
M  V30 35 H 3.034239 1.507699 0.574385 0
M  V30 36 H 4.200975 3.489227 1.469127 0
M  V30 37 H 0.447029 5.043695 4.458687 0
M  V30 38 H -0.275390 5.463728 2.807073 0
M  V30 39 H -1.741292 1.990672 2.195158 0
M  V30 40 H -4.353716 -1.088166 1.013650 0
M  V30 41 H -2.491743 -2.217586 -0.194474 0
M  V30 END ATOM
M  V30 BEGIN BOND
M  V30 1 1 1 2
M  V30 2 2 2 3
M  V30 3 1 3 4
M  V30 4 1 4 5
M  V30 5 1 5 6
M  V30 6 2 5 7
M  V30 7 1 7 8
M  V30 8 1 8 9
M  V30 9 1 9 10
M  V30 10 2 10 11
M  V30 11 1 11 12
M  V30 12 2 12 13
M  V30 13 1 13 14
M  V30 14 2 14 15
M  V30 15 1 15 16
M  V30 16 1 16 17
M  V30 17 2 16 18
M  V30 18 1 11 19
M  V30 19 2 19 20
M  V30 20 1 20 21
M  V30 21 1 21 22
M  V30 22 2 21 23
M  V30 23 1 23 24
M  V30 24 2 24 25
M  V30 25 1 7 2
M  V30 26 1 25 9
M  V30 27 1 18 12
M  V30 28 1 25 19
M  V30 29 1 1 26
M  V30 30 1 1 27
M  V30 31 1 1 28
M  V30 32 1 6 29
M  V30 33 1 6 30
M  V30 34 1 6 31
M  V30 35 1 8 32
M  V30 36 1 8 33
M  V30 37 1 10 34
M  V30 38 1 13 35
M  V30 39 1 14 36
M  V30 40 1 17 37
M  V30 41 1 17 38
M  V30 42 1 20 39
M  V30 43 1 23 40
M  V30 44 1 24 41
M  V30 END BOND
M  V30 END CTAB
M  END
>  <Dataset>  (556) 
ChEMBL_Kinases

>  <Ligand_Instance>  (556) 
nan

>  <PDB_ID>  (556) 
nan

>  <Standardized_SMILES>  (556) 
Cc1noc(C)c1Cn1cc(-c2ccnc(N)n2)c2cc(Br)ccc21

>  <Name>  (556) 
nan

>  <Pocket>  (556) 
nan

>  <ATP_Site>  (556) 
nan

>  <Peripheral>  (556) 
nan

>  <Num_H_Atoms_ProtBoundConf>  (556) 
nan

>  <Num_Resolved_Atoms>  (556) 
nan

>  <Num_Not_Resolved_Atoms>  (556) 
nan

$$$$
CHEMBL3133768
     RDKit          3D

  0  0  0  0  0  0  0  0  0  0999 V3000
M  V30 BEGIN CTAB
M  V30 COUNTS 38 41 0 0 0
M  V30 BEGIN ATOM
M  V30 1 N 0.588858 -6.054309 3.335111 0
M  V30 2 C 1.467940 -5.060654 2.793865 0
M  V30 3 N 2.809189 -5.178454 2.752822 0
M  V30 4 C 3.613946 -4.242264 2.244585 0
M  V30 5 C 2.995463 -3.113949 1.747660 0
M  V30 6 C 1.628769 -2.945593 1.766271 0
M  V30 7 C 0.945853 -1.755585 1.244404 0
M  V30 8 C 1.579710 -0.659466 0.671983 0
M  V30 9 N 0.581339 0.202873 0.332051 0
M  V30 10 C 0.930976 1.395747 -0.297773 0
M  V30 11 O 2.163711 1.533313 -0.543846 0
M  V30 12 C 0.374336 2.610487 -0.806362 0
M  V30 13 C 0.923605 3.214242 -1.934284 0
M  V30 14 C 0.452622 4.426353 -2.461232 0
M  V30 15 C -0.601051 5.025011 -1.813653 0
M  V30 16 C -1.224058 4.525577 -0.691877 0
M  V30 17 C -0.668512 3.338855 -0.280069 0
M  V30 18 C -0.580032 -0.360874 0.685405 0
M  V30 19 C -1.882160 0.052097 0.558082 0
M  V30 20 C -2.966605 -0.677902 0.969614 0
M  V30 21 C -2.784579 -1.919006 1.556346 0
M  V30 22 Br -4.255655 -2.959055 2.140405 0
M  V30 23 C -1.487239 -2.352174 1.690930 0
M  V30 24 C -0.424204 -1.597348 1.268042 0
M  V30 25 N 0.928065 -3.939820 2.294810 0
M  V30 26 H -0.181403 -5.791940 4.009437 0
M  V30 27 H 0.488537 -7.086096 3.234701 0
M  V30 28 H 4.692242 -4.353302 2.219436 0
M  V30 29 H 3.615042 -2.335217 1.328529 0
M  V30 30 H 2.668967 -0.683461 0.603723 0
M  V30 31 H 1.754425 2.797616 -2.494693 0
M  V30 32 H 0.904104 4.864413 -3.339444 0
M  V30 33 H -0.945356 5.957152 -2.241143 0
M  V30 34 H -2.050761 4.997977 -0.185511 0
M  V30 35 H -1.139813 2.949653 0.634962 0
M  V30 36 H -2.101429 0.986719 0.089700 0
M  V30 37 H -3.992410 -0.321685 0.855487 0
M  V30 38 H -1.347712 -3.311064 2.143709 0
M  V30 END ATOM
M  V30 BEGIN BOND
M  V30 1 1 1 2
M  V30 2 2 2 3
M  V30 3 1 3 4
M  V30 4 2 4 5
M  V30 5 1 5 6
M  V30 6 1 6 7
M  V30 7 2 7 8
M  V30 8 1 8 9
M  V30 9 1 9 10
M  V30 10 2 10 11
M  V30 11 1 10 12
M  V30 12 2 12 13
M  V30 13 1 13 14
M  V30 14 2 14 15
M  V30 15 1 15 16
M  V30 16 2 16 17
M  V30 17 1 9 18
M  V30 18 2 18 19
M  V30 19 1 19 20
M  V30 20 2 20 21
M  V30 21 1 21 22
M  V30 22 1 21 23
M  V30 23 2 23 24
M  V30 24 2 6 25
M  V30 25 1 25 2
M  V30 26 1 24 7
M  V30 27 1 17 12
M  V30 28 1 24 18
M  V30 29 1 1 26
M  V30 30 1 1 27
M  V30 31 1 4 28
M  V30 32 1 5 29
M  V30 33 1 8 30
M  V30 34 1 13 31
M  V30 35 1 14 32
M  V30 36 1 15 33
M  V30 37 1 16 34
M  V30 38 1 17 35
M  V30 39 1 19 36
M  V30 40 1 20 37
M  V30 41 1 23 38
M  V30 END BOND
M  V30 END CTAB
M  END
>  <Dataset>  (557) 
ChEMBL_Kinases

>  <Ligand_Instance>  (557) 
nan

>  <PDB_ID>  (557) 
nan

>  <Standardized_SMILES>  (557) 
Nc1nccc(-c2cn(C(=O)c3ccccc3)c3ccc(Br)cc23)n1

>  <Name>  (557) 
nan

>  <Pocket>  (557) 
nan

>  <ATP_Site>  (557) 
nan

>  <Peripheral>  (557) 
nan

>  <Num_H_Atoms_ProtBoundConf>  (557) 
nan

>  <Num_Resolved_Atoms>  (557) 
nan

>  <Num_Not_Resolved_Atoms>  (557) 
nan

$$$$
CHEMBL3133767
     RDKit          3D

  0  0  0  0  0  0  0  0  0  0999 V3000
M  V30 BEGIN CTAB
M  V30 COUNTS 38 41 0 0 0
M  V30 BEGIN ATOM
M  V30 1 N 1.082416 -6.184631 2.969732 0
M  V30 2 C 1.854066 -5.081529 2.463479 0
M  V30 3 N 3.196956 -5.164295 2.406107 0
M  V30 4 C 3.886178 -4.110322 1.925676 0
M  V30 5 C 3.208423 -2.965429 1.500903 0
M  V30 6 C 1.834028 -2.900675 1.567828 0
M  V30 7 C 1.041743 -1.742939 1.145568 0
M  V30 8 C 1.576715 -0.557749 0.621344 0
M  V30 9 N 0.488689 0.231070 0.369424 0
M  V30 10 C 0.723452 1.507449 -0.142080 0
M  V30 11 O 1.959454 1.816897 -0.266131 0
M  V30 12 C 0.048773 2.677249 -0.610792 0
M  V30 13 C 0.614469 3.937410 -0.383104 0
M  V30 14 C 0.032565 5.126149 -0.846407 0
M  V30 15 C -1.142216 5.017032 -1.551329 0
M  V30 16 C -1.786789 3.835621 -1.835946 0
M  V30 17 C -1.120489 2.754055 -1.331342 0
M  V30 18 C -0.610146 -0.446070 0.724787 0
M  V30 19 C -1.939853 -0.106955 0.698846 0
M  V30 20 C -2.950251 -0.933403 1.125302 0
M  V30 21 C -2.643203 -2.185266 1.615585 0
M  V30 22 C -1.308192 -2.544902 1.652155 0
M  V30 23 C -0.334035 -1.698643 1.221194 0
M  V30 24 N 1.223579 -3.989383 2.057184 0
M  V30 25 H 1.120140 -6.039426 4.007866 0
M  V30 26 H 0.605796 -6.942131 2.395655 0
M  V30 27 H 4.962107 -4.092727 1.845205 0
M  V30 28 H 3.750338 -2.113657 1.113673 0
M  V30 29 H 2.661580 -0.499084 0.523789 0
M  V30 30 H 1.546606 4.097080 0.171026 0
M  V30 31 H 0.497784 6.081217 -0.650803 0
M  V30 32 H -1.555181 5.957970 -1.887317 0
M  V30 33 H -2.701240 3.767716 -2.386637 0
M  V30 34 H -1.606822 1.803213 -1.579339 0
M  V30 35 H -2.239868 0.850116 0.359039 0
M  V30 36 H -3.983088 -0.633645 1.089197 0
M  V30 37 H -3.429384 -2.836125 1.949590 0
M  V30 38 H -1.090380 -3.512393 2.033254 0
M  V30 END ATOM
M  V30 BEGIN BOND
M  V30 1 1 1 2
M  V30 2 2 2 3
M  V30 3 1 3 4
M  V30 4 2 4 5
M  V30 5 1 5 6
M  V30 6 1 6 7
M  V30 7 2 7 8
M  V30 8 1 8 9
M  V30 9 1 9 10
M  V30 10 2 10 11
M  V30 11 1 10 12
M  V30 12 2 12 13
M  V30 13 1 13 14
M  V30 14 2 14 15
M  V30 15 1 15 16
M  V30 16 2 16 17
M  V30 17 1 9 18
M  V30 18 2 18 19
M  V30 19 1 19 20
M  V30 20 2 20 21
M  V30 21 1 21 22
M  V30 22 2 22 23
M  V30 23 2 6 24
M  V30 24 1 24 2
M  V30 25 1 23 7
M  V30 26 1 17 12
M  V30 27 1 23 18
M  V30 28 1 1 25
M  V30 29 1 1 26
M  V30 30 1 4 27
M  V30 31 1 5 28
M  V30 32 1 8 29
M  V30 33 1 13 30
M  V30 34 1 14 31
M  V30 35 1 15 32
M  V30 36 1 16 33
M  V30 37 1 17 34
M  V30 38 1 19 35
M  V30 39 1 20 36
M  V30 40 1 21 37
M  V30 41 1 22 38
M  V30 END BOND
M  V30 END CTAB
M  END
>  <Dataset>  (558) 
ChEMBL_Kinases

>  <Ligand_Instance>  (558) 
nan

>  <PDB_ID>  (558) 
nan

>  <Standardized_SMILES>  (558) 
Nc1nccc(-c2cn(C(=O)c3ccccc3)c3ccccc23)n1

>  <Name>  (558) 
nan

>  <Pocket>  (558) 
nan

>  <ATP_Site>  (558) 
nan

>  <Peripheral>  (558) 
nan

>  <Num_H_Atoms_ProtBoundConf>  (558) 
nan

>  <Num_Resolved_Atoms>  (558) 
nan

>  <Num_Not_Resolved_Atoms>  (558) 
nan

$$$$
CHEMBL31293
     RDKit          3D

  0  0  0  0  0  0  0  0  0  0999 V3000
M  V30 BEGIN CTAB
M  V30 COUNTS 39 41 0 0 0
M  V30 BEGIN ATOM
M  V30 1 C -0.604493 -3.136661 2.320490 0
M  V30 2 C 0.195494 -1.868536 2.362142 0
M  V30 3 C 1.441937 -1.831714 1.968726 0
M  V30 4 C 2.129502 -3.042880 1.455694 0
M  V30 5 O 3.288259 -3.157902 1.046414 0
M  V30 6 O 1.547263 -4.318742 1.348427 0
M  V30 7 N 2.290409 -0.691794 1.992632 0
M  V30 8 C 3.489566 0.042852 1.731485 0
M  V30 9 O 4.696812 -0.284732 1.776043 0
M  V30 10 C 2.679207 1.204253 1.430256 0
M  V30 11 N 1.891490 1.120392 0.205884 0
M  V30 12 C 0.997280 2.123609 -0.254690 0
M  V30 13 O 0.800074 3.202265 0.355768 0
M  V30 14 C 0.347335 1.672777 -1.537704 0
M  V30 15 C -0.915157 0.959046 -1.164053 0
M  V30 16 C -2.079334 1.453136 -0.683288 0
M  V30 17 C -3.115282 0.592566 -0.370801 0
M  V30 18 C -3.005422 -0.778411 -0.533425 0
M  V30 19 C -1.838050 -1.319454 -1.020464 0
M  V30 20 C -0.827686 -0.430874 -1.322049 0
M  V30 21 C 1.855098 0.529941 2.592918 0
M  V30 22 S 0.111585 0.860429 2.314067 0
M  V30 23 C -0.553161 -0.724982 2.860942 0
M  V30 24 H -0.070274 -3.881875 2.973248 0
M  V30 25 H -1.645478 -3.007827 2.628965 0
M  V30 26 H -0.598999 -3.478619 1.268276 0
M  V30 27 H 1.541144 -4.746491 0.411726 0
M  V30 28 H 2.952299 2.203279 1.748011 0
M  V30 29 H 2.071156 0.212149 -0.303088 0
M  V30 30 H 0.085401 2.581624 -2.085146 0
M  V30 31 H 0.996236 1.037507 -2.111105 0
M  V30 32 H -2.083293 2.529694 -0.581371 0
M  V30 33 H -4.003232 1.068365 0.016576 0
M  V30 34 H -3.839579 -1.436154 -0.269653 0
M  V30 35 H -1.712465 -2.392122 -1.164300 0
M  V30 36 H 0.074750 -0.915036 -1.709564 0
M  V30 37 H 2.276649 0.842622 3.543264 0
M  V30 38 H -0.640829 -0.719955 3.976482 0
M  V30 39 H -1.639247 -0.712551 2.528378 0
M  V30 END ATOM
M  V30 BEGIN BOND
M  V30 1 1 1 2
M  V30 2 2 2 3
M  V30 3 1 3 4
M  V30 4 2 4 5
M  V30 5 1 4 6
M  V30 6 1 3 7
M  V30 7 1 7 8
M  V30 8 2 8 9
M  V30 9 1 8 10
M  V30 10 1 10 11
M  V30 11 1 11 12
M  V30 12 2 12 13
M  V30 13 1 12 14
M  V30 14 1 14 15
M  V30 15 2 15 16
M  V30 16 1 16 17
M  V30 17 2 17 18
M  V30 18 1 18 19
M  V30 19 2 19 20
M  V30 20 1 10 21
M  V30 21 1 21 22
M  V30 22 1 22 23
M  V30 23 1 23 2
M  V30 24 1 21 7
M  V30 25 1 20 15
M  V30 26 1 1 24
M  V30 27 1 1 25
M  V30 28 1 1 26
M  V30 29 1 6 27
M  V30 30 1 10 28
M  V30 31 1 11 29
M  V30 32 1 14 30
M  V30 33 1 14 31
M  V30 34 1 16 32
M  V30 35 1 17 33
M  V30 36 1 18 34
M  V30 37 1 19 35
M  V30 38 1 20 36
M  V30 39 1 21 37
M  V30 40 1 23 38
M  V30 41 1 23 39
M  V30 END BOND
M  V30 END CTAB
M  END
>  <Dataset>  (559) 
ChEMBL_Kinases

>  <Ligand_Instance>  (559) 
nan

>  <PDB_ID>  (559) 
nan

>  <Standardized_SMILES>  (559) 
CC1=C(C(=O)O)N2C(=O)C(NC(=O)Cc3ccccc3)C2SC1

>  <Name>  (559) 
nan

>  <Pocket>  (559) 
nan

>  <ATP_Site>  (559) 
nan

>  <Peripheral>  (559) 
nan

>  <Num_H_Atoms_ProtBoundConf>  (559) 
nan

>  <Num_Resolved_Atoms>  (559) 
nan

>  <Num_Not_Resolved_Atoms>  (559) 
nan

$$$$
CHEMBL3128057
     RDKit          3D

  0  0  0  0  0  0  0  0  0  0999 V3000
M  V30 BEGIN CTAB
M  V30 COUNTS 37 39 0 0 0
M  V30 BEGIN ATOM
M  V30 1 C 0.434999 -4.792519 1.956545 0
M  V30 2 C 1.821026 -4.305601 1.615995 0
M  V30 3 C 2.610320 -4.198565 2.911964 0
M  V30 4 O 2.417295 -5.259548 0.801926 0
M  V30 5 C 1.813484 -3.027789 0.928472 0
M  V30 6 C 1.809162 -1.945363 0.370048 0
M  V30 7 C 1.795252 -0.657455 -0.269275 0
M  V30 8 C 2.796434 -0.254199 -1.133697 0
M  V30 9 C 2.703333 1.015317 -1.711440 0
M  V30 10 C 1.641053 1.853409 -1.431718 0
M  V30 11 C 1.300667 3.124526 -1.846908 0
M  V30 12 N 0.135695 3.453439 -1.242963 0
M  V30 13 N -0.275296 2.459630 -0.471055 0
M  V30 14 C -1.422542 2.310235 0.362022 0
M  V30 15 C -1.850031 3.109181 1.404698 0
M  V30 16 C -3.004467 2.758320 2.071207 0
M  V30 17 N -3.698862 1.661916 1.713522 0
M  V30 18 C -3.289255 0.863040 0.685880 0
M  V30 19 N -4.019014 -0.298480 0.301990 0
M  V30 20 N -2.178708 1.224988 0.065642 0
M  V30 21 C 0.633060 1.467181 -0.571373 0
M  V30 22 C 0.747249 0.201594 -0.009541 0
M  V30 23 H -0.109439 -4.104936 2.627823 0
M  V30 24 H 0.556183 -5.746150 2.511182 0
M  V30 25 H -0.163842 -5.029368 1.057126 0
M  V30 26 H 3.588345 -3.694536 2.697986 0
M  V30 27 H 2.068029 -3.512351 3.615161 0
M  V30 28 H 2.745677 -5.194430 3.358541 0
M  V30 29 H 2.093182 -5.202137 -0.131201 0
M  V30 30 H 3.617782 -0.927666 -1.337147 0
M  V30 31 H 3.502621 1.331403 -2.398617 0
M  V30 32 H 1.859096 3.761591 -2.536578 0
M  V30 33 H -1.198660 3.957942 1.586236 0
M  V30 34 H -3.291315 3.419320 2.877849 0
M  V30 35 H -3.617248 -1.233800 0.537655 0
M  V30 36 H -4.941019 -0.401606 -0.204096 0
M  V30 37 H -0.032598 -0.142956 0.679110 0
M  V30 END ATOM
M  V30 BEGIN BOND
M  V30 1 1 1 2
M  V30 2 1 2 3
M  V30 3 1 2 4
M  V30 4 1 2 5
M  V30 5 3 5 6
M  V30 6 1 6 7
M  V30 7 2 7 8
M  V30 8 1 8 9
M  V30 9 2 9 10
M  V30 10 1 10 11
M  V30 11 2 11 12
M  V30 12 1 12 13
M  V30 13 1 13 14
M  V30 14 2 14 15
M  V30 15 1 15 16
M  V30 16 2 16 17
M  V30 17 1 17 18
M  V30 18 1 18 19
M  V30 19 2 18 20
M  V30 20 1 13 21
M  V30 21 2 21 22
M  V30 22 1 22 7
M  V30 23 1 21 10
M  V30 24 1 20 14
M  V30 25 1 1 23
M  V30 26 1 1 24
M  V30 27 1 1 25
M  V30 28 1 3 26
M  V30 29 1 3 27
M  V30 30 1 3 28
M  V30 31 1 4 29
M  V30 32 1 8 30
M  V30 33 1 9 31
M  V30 34 1 11 32
M  V30 35 1 15 33
M  V30 36 1 16 34
M  V30 37 1 19 35
M  V30 38 1 19 36
M  V30 39 1 22 37
M  V30 END BOND
M  V30 END CTAB
M  END
>  <Dataset>  (560) 
ChEMBL_Kinases

>  <Ligand_Instance>  (560) 
nan

>  <PDB_ID>  (560) 
nan

>  <Standardized_SMILES>  (560) 
CC(C)(O)C#Cc1ccc2cnn(-c3ccnc(N)n3)c2c1

>  <Name>  (560) 
nan

>  <Pocket>  (560) 
nan

>  <ATP_Site>  (560) 
nan

>  <Peripheral>  (560) 
nan

>  <Num_H_Atoms_ProtBoundConf>  (560) 
nan

>  <Num_Resolved_Atoms>  (560) 
nan

>  <Num_Not_Resolved_Atoms>  (560) 
nan

$$$$
CHEMBL3644830
     RDKit          3D

  0  0  0  0  0  0  0  0  0  0999 V3000
M  V30 BEGIN CTAB
M  V30 COUNTS 38 40 0 0 0
M  V30 BEGIN ATOM
M  V30 1 C 1.501761 -3.238314 1.811773 0
M  V30 2 C 0.315834 -2.341889 1.858887 0
M  V30 3 C 0.510427 -1.024725 1.426355 0
M  V30 4 N 1.726788 -0.495851 0.957867 0
M  V30 5 C 2.277062 -0.429765 -0.327552 0
M  V30 6 C 1.557262 -0.957089 -1.379280 0
M  V30 7 C 2.149227 -0.865848 -2.637082 0
M  V30 8 C 3.401216 -0.266533 -2.778373 0
M  V30 9 I 4.369675 -0.085462 -4.639063 0
M  V30 10 C 4.098339 0.256256 -1.684903 0
M  V30 11 C 3.516943 0.172432 -0.413656 0
M  V30 12 F 4.158532 0.664918 0.663092 0
M  V30 13 C -0.601508 -0.201253 1.475473 0
M  V30 14 C -0.513352 1.110971 1.071946 0
M  V30 15 O 0.594430 1.579747 0.649003 0
M  V30 16 N -1.568767 1.953656 1.100855 0
M  V30 17 C -1.432225 3.318092 0.669639 0
M  V30 18 C -2.735855 1.451098 1.548962 0
M  V30 19 N -2.886793 0.158598 1.963026 0
M  V30 20 C -1.834829 -0.655306 1.926661 0
M  V30 21 N -1.980814 -1.941733 2.337686 0
M  V30 22 C -3.291295 -2.371282 2.801755 0
M  V30 23 C -0.914952 -2.786159 2.306580 0
M  V30 24 O -1.055210 -3.980255 2.689335 0
M  V30 25 H 1.351469 -4.012569 2.605875 0
M  V30 26 H 1.420032 -3.799830 0.846904 0
M  V30 27 H 2.448142 -2.700242 1.908573 0
M  V30 28 H 2.150502 -0.143942 1.834095 0
M  V30 29 H 0.604350 -1.414914 -1.282160 0
M  V30 30 H 1.708100 -1.230806 -3.540733 0
M  V30 31 H 5.065735 0.721415 -1.781208 0
M  V30 32 H -1.570823 3.381285 -0.438079 0
M  V30 33 H -2.187170 3.948429 1.153470 0
M  V30 34 H -0.415602 3.723526 0.924517 0
M  V30 35 H -3.608186 2.116056 1.582001 0
M  V30 36 H -4.063432 -1.806279 2.239335 0
M  V30 37 H -3.388005 -2.158549 3.903449 0
M  V30 38 H -3.402287 -3.469020 2.727150 0
M  V30 END ATOM
M  V30 BEGIN BOND
M  V30 1 1 1 2
M  V30 2 2 2 3
M  V30 3 1 3 4
M  V30 4 1 4 5
M  V30 5 2 5 6
M  V30 6 1 6 7
M  V30 7 2 7 8
M  V30 8 1 8 9
M  V30 9 1 8 10
M  V30 10 2 10 11
M  V30 11 1 11 12
M  V30 12 1 3 13
M  V30 13 1 13 14
M  V30 14 2 14 15
M  V30 15 1 14 16
M  V30 16 1 16 17
M  V30 17 1 16 18
M  V30 18 2 18 19
M  V30 19 1 19 20
M  V30 20 1 20 21
M  V30 21 1 21 22
M  V30 22 1 21 23
M  V30 23 2 23 24
M  V30 24 1 23 2
M  V30 25 1 11 5
M  V30 26 2 20 13
M  V30 27 1 1 25
M  V30 28 1 1 26
M  V30 29 1 1 27
M  V30 30 1 4 28
M  V30 31 1 6 29
M  V30 32 1 7 30
M  V30 33 1 10 31
M  V30 34 1 17 32
M  V30 35 1 17 33
M  V30 36 1 17 34
M  V30 37 1 18 35
M  V30 38 1 22 36
M  V30 39 1 22 37
M  V30 40 1 22 38
M  V30 END BOND
M  V30 END CTAB
M  END
>  <Dataset>  (561) 
ChEMBL_Kinases

>  <Ligand_Instance>  (561) 
nan

>  <PDB_ID>  (561) 
nan

>  <Standardized_SMILES>  (561) 
Cc1c(Nc2ccc(I)cc2F)c2c(=O)n(C)cnc2n(C)c1=O

>  <Name>  (561) 
nan

>  <Pocket>  (561) 
nan

>  <ATP_Site>  (561) 
nan

>  <Peripheral>  (561) 
nan

>  <Num_H_Atoms_ProtBoundConf>  (561) 
nan

>  <Num_Resolved_Atoms>  (561) 
nan

>  <Num_Not_Resolved_Atoms>  (561) 
nan

$$$$
CHEMBL3128053
     RDKit          3D

  0  0  0  0  0  0  0  0  0  0999 V3000
M  V30 BEGIN CTAB
M  V30 COUNTS 42 45 0 0 0
M  V30 BEGIN ATOM
M  V30 1 C -0.368295 -5.641883 3.067266 0
M  V30 2 C 0.273011 -4.342905 2.729963 0
M  V30 3 N 1.373813 -3.878651 3.341872 0
M  V30 4 C 1.739705 -2.684245 2.843669 0
M  V30 5 C 2.732331 -1.743529 3.043276 0
M  V30 6 C 2.790097 -0.567175 2.298314 0
M  V30 7 C 1.832362 -0.320266 1.326918 0
M  V30 8 C 1.856942 0.889908 0.531262 0
M  V30 9 C 1.856917 1.903628 -0.130596 0
M  V30 10 C 1.841678 3.135463 -0.923431 0 CFG=1
M  V30 11 C 3.246252 3.332536 -1.442796 0
M  V30 12 O 1.037359 2.944750 -2.044907 0
M  V30 13 C 1.400669 4.293986 -0.087761 0
M  V30 14 N 1.426129 4.627025 1.012456 0
M  V30 15 C 0.936981 5.760981 1.517080 0
M  V30 16 C 0.308770 6.659503 0.562433 0
M  V30 17 S 0.534306 5.662853 -1.031589 0
M  V30 18 C 0.813399 -1.215633 1.074588 0
M  V30 19 C 0.805280 -2.375220 1.849961 0
M  V30 20 N -0.082553 -3.407529 1.800203 0
M  V30 21 C -1.239737 -3.623649 0.973534 0
M  V30 22 N -2.363721 -2.912747 1.198926 0
M  V30 23 C -3.496923 -3.049046 0.473532 0
M  V30 24 N -3.471704 -3.940359 -0.509099 0
M  V30 25 C -2.372861 -4.667805 -0.765683 0
M  V30 26 N -2.358599 -5.618893 -1.820610 0
M  V30 27 N -1.255064 -4.518881 -0.033981 0
M  V30 28 H 0.235781 -6.513518 2.741658 0
M  V30 29 H -0.623307 -5.728655 4.157095 0
M  V30 30 H -1.351689 -5.750663 2.554635 0
M  V30 31 H 3.467409 -1.971876 3.815038 0
M  V30 32 H 3.573263 0.150976 2.472030 0
M  V30 33 H 3.386628 2.581322 -2.241198 0
M  V30 34 H 3.335512 4.334598 -1.924787 0
M  V30 35 H 4.020796 3.240906 -0.656971 0
M  V30 36 H 0.084532 3.116790 -1.887046 0
M  V30 37 H 1.043348 5.922551 2.580075 0
M  V30 38 H -0.094455 7.595646 0.982371 0
M  V30 39 H 0.054181 -1.067426 0.336598 0
M  V30 40 H -4.387259 -2.460423 0.680547 0
M  V30 41 H -1.448870 -5.847982 -2.299581 0
M  V30 42 H -3.227519 -6.097010 -2.133551 0
M  V30 END ATOM
M  V30 BEGIN BOND
M  V30 1 1 1 2
M  V30 2 2 2 3
M  V30 3 1 3 4
M  V30 4 2 4 5
M  V30 5 1 5 6
M  V30 6 2 6 7
M  V30 7 1 7 8
M  V30 8 3 8 9
M  V30 9 1 10 9 CFG=1
M  V30 10 1 10 11
M  V30 11 1 10 12
M  V30 12 1 10 13
M  V30 13 2 13 14
M  V30 14 1 14 15
M  V30 15 2 15 16
M  V30 16 1 16 17
M  V30 17 1 7 18
M  V30 18 2 18 19
M  V30 19 1 19 20
M  V30 20 1 20 21
M  V30 21 2 21 22
M  V30 22 1 22 23
M  V30 23 2 23 24
M  V30 24 1 24 25
M  V30 25 1 25 26
M  V30 26 2 25 27
M  V30 27 1 20 2
M  V30 28 1 27 21
M  V30 29 1 19 4
M  V30 30 1 17 13
M  V30 31 1 1 28
M  V30 32 1 1 29
M  V30 33 1 1 30
M  V30 34 1 5 31
M  V30 35 1 6 32
M  V30 36 1 11 33
M  V30 37 1 11 34
M  V30 38 1 11 35
M  V30 39 1 12 36
M  V30 40 1 15 37
M  V30 41 1 16 38
M  V30 42 1 18 39
M  V30 43 1 23 40
M  V30 44 1 26 41
M  V30 45 1 26 42
M  V30 END BOND
M  V30 END CTAB
M  END
>  <Dataset>  (562) 
ChEMBL_Kinases

>  <Ligand_Instance>  (562) 
nan

>  <PDB_ID>  (562) 
nan

>  <Standardized_SMILES>  (562) 
Cc1nc2ccc(C#C[C@@](C)(O)c3nccs3)cc2n1-c1ncnc(N)n1

>  <Name>  (562) 
nan

>  <Pocket>  (562) 
nan

>  <ATP_Site>  (562) 
nan

>  <Peripheral>  (562) 
nan

>  <Num_H_Atoms_ProtBoundConf>  (562) 
nan

>  <Num_Resolved_Atoms>  (562) 
nan

>  <Num_Not_Resolved_Atoms>  (562) 
nan

$$$$
CHEMBL3128052
     RDKit          3D

  0  0  0  0  0  0  0  0  0  0999 V3000
M  V30 BEGIN CTAB
M  V30 COUNTS 45 48 0 0 0
M  V30 BEGIN ATOM
M  V30 1 C 5.752749 -2.903972 2.604345 0
M  V30 2 C 5.446085 -2.962779 1.149312 0
M  V30 3 C 4.192663 -2.534442 0.723578 0
M  V30 4 C 4.193352 -2.701688 -0.655180 0
M  V30 5 C 3.028100 -2.364122 -1.551631 0 CFG=2
M  V30 6 C 2.135752 -3.585319 -1.684525 0
M  V30 7 O 3.469711 -1.903409 -2.777310 0
M  V30 8 C 2.277429 -1.244448 -0.944110 0
M  V30 9 C 1.668801 -0.329735 -0.434180 0
M  V30 10 C 0.957715 0.760927 0.187703 0
M  V30 11 C 1.596631 1.982708 0.265410 0
M  V30 12 C 0.877871 3.011704 0.872767 0
M  V30 13 C -0.405504 2.788539 1.361600 0
M  V30 14 N -1.289648 3.593325 1.975448 0
M  V30 15 C -2.391478 2.867521 2.240704 0
M  V30 16 C -3.606344 3.375058 2.911215 0
M  V30 17 N -2.203059 1.604576 1.794384 0
M  V30 18 C -3.137497 0.538634 1.889148 0
M  V30 19 N -3.336950 -0.260357 2.960808 0
M  V30 20 C -4.274354 -1.244565 2.899264 0
M  V30 21 N -5.011961 -1.440198 1.785918 0
M  V30 22 C -4.810121 -0.633070 0.704055 0
M  V30 23 N -5.591973 -0.847398 -0.463264 0
M  V30 24 N -3.873143 0.336884 0.790968 0
M  V30 25 C -0.974400 1.538001 1.245391 0
M  V30 26 C -0.308895 0.465632 0.648458 0
M  V30 27 N 5.380813 -3.195580 -0.979258 0
M  V30 28 O 6.118197 -3.348890 0.086000 0
M  V30 29 H 6.788933 -3.194595 2.853631 0
M  V30 30 H 5.594489 -1.845297 2.925420 0
M  V30 31 H 5.055370 -3.573089 3.160789 0
M  V30 32 H 3.329651 -2.137678 1.271358 0
M  V30 33 H 2.066631 -3.946615 -2.729269 0
M  V30 34 H 1.109519 -3.293547 -1.377499 0
M  V30 35 H 2.428266 -4.394892 -0.988824 0
M  V30 36 H 3.420817 -2.676484 -3.404177 0
M  V30 37 H 2.596597 2.085856 -0.135925 0
M  V30 38 H 1.362310 3.977706 0.943139 0
M  V30 39 H -4.029456 4.222826 2.328654 0
M  V30 40 H -3.411319 3.663748 3.964841 0
M  V30 41 H -4.397782 2.593309 2.915917 0
M  V30 42 H -4.338221 -1.816119 3.823293 0
M  V30 43 H -6.499627 -0.376890 -0.734519 0
M  V30 44 H -5.400480 -1.505336 -1.247848 0
M  V30 45 H -0.727407 -0.519443 0.544145 0
M  V30 END ATOM
M  V30 BEGIN BOND
M  V30 1 1 1 2
M  V30 2 2 2 3
M  V30 3 1 3 4
M  V30 4 1 4 5
M  V30 5 1 5 6
M  V30 6 1 5 7
M  V30 7 1 5 8 CFG=1
M  V30 8 3 8 9
M  V30 9 1 9 10
M  V30 10 2 10 11
M  V30 11 1 11 12
M  V30 12 2 12 13
M  V30 13 1 13 14
M  V30 14 2 14 15
M  V30 15 1 15 16
M  V30 16 1 15 17
M  V30 17 1 17 18
M  V30 18 2 18 19
M  V30 19 1 19 20
M  V30 20 2 20 21
M  V30 21 1 21 22
M  V30 22 1 22 23
M  V30 23 2 22 24
M  V30 24 1 17 25
M  V30 25 2 25 26
M  V30 26 2 4 27
M  V30 27 1 27 28
M  V30 28 1 28 2
M  V30 29 1 26 10
M  V30 30 1 25 13
M  V30 31 1 24 18
M  V30 32 1 1 29
M  V30 33 1 1 30
M  V30 34 1 1 31
M  V30 35 1 3 32
M  V30 36 1 6 33
M  V30 37 1 6 34
M  V30 38 1 6 35
M  V30 39 1 7 36
M  V30 40 1 11 37
M  V30 41 1 12 38
M  V30 42 1 16 39
M  V30 43 1 16 40
M  V30 44 1 16 41
M  V30 45 1 20 42
M  V30 46 1 23 43
M  V30 47 1 23 44
M  V30 48 1 26 45
M  V30 END BOND
M  V30 END CTAB
M  END
>  <Dataset>  (563) 
ChEMBL_Kinases

>  <Ligand_Instance>  (563) 
nan

>  <PDB_ID>  (563) 
nan

>  <Standardized_SMILES>  (563) 
Cc1cc([C@](C)(O)C#Cc2ccc3nc(C)n(-c4ncnc(N)n4)c3c2)no1

>  <Name>  (563) 
nan

>  <Pocket>  (563) 
nan

>  <ATP_Site>  (563) 
nan

>  <Peripheral>  (563) 
nan

>  <Num_H_Atoms_ProtBoundConf>  (563) 
nan

>  <Num_Resolved_Atoms>  (563) 
nan

>  <Num_Not_Resolved_Atoms>  (563) 
nan

$$$$
CHEMBL3128051
     RDKit          3D

  0  0  0  0  0  0  0  0  0  0999 V3000
M  V30 BEGIN CTAB
M  V30 COUNTS 47 51 0 0 0
M  V30 BEGIN ATOM
M  V30 1 C -2.045445 -6.111474 -0.406698 0
M  V30 2 C -0.994652 -5.075031 -0.610376 0
M  V30 3 N 0.151417 -5.078463 -1.345267 0
M  V30 4 C 0.775788 -3.895840 -1.209999 0
M  V30 5 C 1.939477 -3.345319 -1.705669 0
M  V30 6 C 2.343340 -2.054256 -1.380268 0
M  V30 7 C 1.541523 -1.316286 -0.533492 0
M  V30 8 C 1.841234 0.024877 -0.118807 0
M  V30 9 C 2.092473 1.148866 0.238786 0
M  V30 10 C 2.383437 2.530506 0.687703 0 CFG=1
M  V30 11 O 3.431621 2.982194 -0.104319 0
M  V30 12 C 1.149000 3.403957 0.540608 0
M  V30 13 C 0.783323 3.772972 1.939390 0 CFG=2
M  V30 14 C 1.807497 4.757185 2.452520 0
M  V30 15 C 3.090135 3.944808 2.543530 0
M  V30 16 C 2.685942 2.560162 2.167139 0 CFG=1
M  V30 17 C 1.247013 2.527007 2.707887 0
M  V30 18 C 0.379792 -1.881403 -0.045676 0
M  V30 19 C -0.038169 -3.173057 -0.362323 0
M  V30 20 N -1.124374 -3.878170 0.013855 0
M  V30 21 C -2.153964 -3.410773 0.884029 0
M  V30 22 N -2.025584 -3.434154 2.223002 0
M  V30 23 C -2.993665 -2.994149 3.063219 0
M  V30 24 N -4.129795 -2.513585 2.563637 0
M  V30 25 C -4.296189 -2.473273 1.243283 0
M  V30 26 N -5.513865 -1.958973 0.676554 0
M  V30 27 N -3.325141 -2.914759 0.394860 0
M  V30 28 H -1.732589 -7.017829 -0.970328 0
M  V30 29 H -3.039480 -5.745788 -0.732173 0
M  V30 30 H -2.043987 -6.407453 0.669338 0
M  V30 31 H 2.548106 -3.946437 -2.366941 0
M  V30 32 H 3.238071 -1.608622 -1.751267 0
M  V30 33 H 4.015553 2.211867 -0.285915 0
M  V30 34 H 0.384234 2.813413 -0.001343 0
M  V30 35 H 1.395887 4.325515 -0.034516 0
M  V30 36 H -0.255457 4.024288 2.132199 0
M  V30 37 H 1.463446 5.110776 3.445356 0
M  V30 38 H 1.938661 5.572485 1.731778 0
M  V30 39 H 3.589369 4.028088 3.519132 0
M  V30 40 H 3.834439 4.310571 1.796220 0
M  V30 41 H 3.292356 1.751955 2.540898 0
M  V30 42 H 0.703672 1.626700 2.424725 0
M  V30 43 H 1.256915 2.761991 3.771122 0
M  V30 44 H -0.260968 -1.318596 0.618835 0
M  V30 45 H -2.885291 -3.015600 4.122347 0
M  V30 46 H -5.778730 -2.257728 -0.292857 0
M  V30 47 H -6.076289 -1.307435 1.267878 0
M  V30 END ATOM
M  V30 BEGIN BOND
M  V30 1 1 1 2
M  V30 2 2 2 3
M  V30 3 1 3 4
M  V30 4 2 4 5
M  V30 5 1 5 6
M  V30 6 2 6 7
M  V30 7 1 7 8
M  V30 8 3 8 9
M  V30 9 1 10 9 CFG=3
M  V30 10 1 10 11
M  V30 11 1 10 12
M  V30 12 1 12 13
M  V30 13 1 13 14
M  V30 14 1 14 15
M  V30 15 1 15 16
M  V30 16 1 16 17
M  V30 17 1 7 18
M  V30 18 2 18 19
M  V30 19 1 19 20
M  V30 20 1 20 21
M  V30 21 2 21 22
M  V30 22 1 22 23
M  V30 23 2 23 24
M  V30 24 1 24 25
M  V30 25 1 25 26
M  V30 26 2 25 27
M  V30 27 1 20 2
M  V30 28 1 27 21
M  V30 29 1 19 4
M  V30 30 1 16 10
M  V30 31 1 17 13
M  V30 32 1 1 28
M  V30 33 1 1 29
M  V30 34 1 1 30
M  V30 35 1 5 31
M  V30 36 1 6 32
M  V30 37 1 11 33
M  V30 38 1 12 34
M  V30 39 1 12 35
M  V30 40 1 13 36 CFG=3
M  V30 41 1 14 37
M  V30 42 1 14 38
M  V30 43 1 15 39
M  V30 44 1 15 40
M  V30 45 1 16 41 CFG=1
M  V30 46 1 17 42
M  V30 47 1 17 43
M  V30 48 1 18 44
M  V30 49 1 23 45
M  V30 50 1 26 46
M  V30 51 1 26 47
M  V30 END BOND
M  V30 END CTAB
M  END
>  <Dataset>  (564) 
ChEMBL_Kinases

>  <Ligand_Instance>  (564) 
nan

>  <PDB_ID>  (564) 
nan

>  <Standardized_SMILES>  (564) 
Cc1nc2ccc(C#C[C@@]3(O)C[C@@H]4CC[C@H]3C4)cc2n1-c1ncnc(N)n1

>  <Name>  (564) 
nan

>  <Pocket>  (564) 
nan

>  <ATP_Site>  (564) 
nan

>  <Peripheral>  (564) 
nan

>  <Num_H_Atoms_ProtBoundConf>  (564) 
nan

>  <Num_Resolved_Atoms>  (564) 
nan

>  <Num_Not_Resolved_Atoms>  (564) 
nan

$$$$
CHEMBL3128050
     RDKit          3D

  0  0  0  0  0  0  0  0  0  0999 V3000
M  V30 BEGIN CTAB
M  V30 COUNTS 46 49 0 0 0
M  V30 BEGIN ATOM
M  V30 1 C -1.845474 -5.441461 3.303217 0
M  V30 2 C -1.026024 -4.215688 3.111311 0
M  V30 3 N -0.118055 -3.605772 3.897055 0
M  V30 4 C 0.333020 -2.524886 3.249536 0
M  V30 5 C 1.270118 -1.566012 3.621009 0
M  V30 6 C 1.579847 -0.510365 2.758156 0
M  V30 7 C 0.934527 -0.447804 1.537859 0
M  V30 8 C 1.207401 0.623549 0.589096 0
M  V30 9 C 1.415309 1.516916 -0.201646 0
M  V30 10 C 1.670584 2.580420 -1.175145 0
M  V30 11 O 0.954328 2.353440 -2.336491 0
M  V30 12 C 1.231354 3.877003 -0.543347 0
M  V30 13 C 1.991402 4.247633 0.667463 0
M  V30 14 C 3.388544 3.782282 0.791095 0
M  V30 15 C 3.829632 2.709846 -0.141362 0
M  V30 16 C 3.151618 2.730624 -1.473455 0
M  V30 17 C 0.011505 -1.397033 1.178316 0
M  V30 18 C -0.301515 -2.449881 2.031633 0
M  V30 19 N -1.139441 -3.499328 1.955719 0
M  V30 20 C -1.964531 -3.724345 0.802426 0
M  V30 21 N -1.433279 -4.013904 -0.401591 0
M  V30 22 C -2.234082 -4.224641 -1.486590 0
M  V30 23 N -3.562057 -4.139330 -1.337789 0
M  V30 24 C -4.116474 -3.853920 -0.156439 0
M  V30 25 N -5.508077 -3.745220 0.085958 0
M  V30 26 N -3.312530 -3.649486 0.900881 0
M  V30 27 H -1.338799 -6.327427 2.881446 0
M  V30 28 H -1.896344 -5.616561 4.413420 0
M  V30 29 H -2.879644 -5.322323 2.918276 0
M  V30 30 H 1.777805 -1.621416 4.589313 0
M  V30 31 H 2.305155 0.245457 3.027457 0
M  V30 32 H 0.823377 1.355057 -2.398364 0
M  V30 33 H 1.352067 4.663029 -1.329121 0
M  V30 34 H 0.143348 3.878946 -0.312530 0
M  V30 35 H 2.025596 5.376918 0.700741 0
M  V30 36 H 1.376445 3.997041 1.581000 0
M  V30 37 H 3.532984 3.375155 1.829514 0
M  V30 38 H 4.143954 4.602834 0.724932 0
M  V30 39 H 4.922208 2.763695 -0.325649 0
M  V30 40 H 3.657133 1.685516 0.292982 0
M  V30 41 H 3.464224 1.828265 -2.031721 0
M  V30 42 H 3.265647 3.664822 -2.028116 0
M  V30 43 H -0.497399 -1.349309 0.218144 0
M  V30 44 H -1.745748 -4.453863 -2.427820 0
M  V30 45 H -5.728862 -2.710683 0.135450 0
M  V30 46 H -6.222499 -4.494260 0.201673 0
M  V30 END ATOM
M  V30 BEGIN BOND
M  V30 1 1 1 2
M  V30 2 2 2 3
M  V30 3 1 3 4
M  V30 4 2 4 5
M  V30 5 1 5 6
M  V30 6 2 6 7
M  V30 7 1 7 8
M  V30 8 3 8 9
M  V30 9 1 9 10
M  V30 10 1 10 11
M  V30 11 1 10 12
M  V30 12 1 12 13
M  V30 13 1 13 14
M  V30 14 1 14 15
M  V30 15 1 15 16
M  V30 16 1 7 17
M  V30 17 2 17 18
M  V30 18 1 18 19
M  V30 19 1 19 20
M  V30 20 2 20 21
M  V30 21 1 21 22
M  V30 22 2 22 23
M  V30 23 1 23 24
M  V30 24 1 24 25
M  V30 25 2 24 26
M  V30 26 1 19 2
M  V30 27 1 26 20
M  V30 28 1 18 4
M  V30 29 1 16 10
M  V30 30 1 1 27
M  V30 31 1 1 28
M  V30 32 1 1 29
M  V30 33 1 5 30
M  V30 34 1 6 31
M  V30 35 1 11 32
M  V30 36 1 12 33
M  V30 37 1 12 34
M  V30 38 1 13 35
M  V30 39 1 13 36
M  V30 40 1 14 37
M  V30 41 1 14 38
M  V30 42 1 15 39
M  V30 43 1 15 40
M  V30 44 1 16 41
M  V30 45 1 16 42
M  V30 46 1 17 43
M  V30 47 1 22 44
M  V30 48 1 25 45
M  V30 49 1 25 46
M  V30 END BOND
M  V30 END CTAB
M  END
>  <Dataset>  (565) 
ChEMBL_Kinases

>  <Ligand_Instance>  (565) 
nan

>  <PDB_ID>  (565) 
nan

>  <Standardized_SMILES>  (565) 
Cc1nc2ccc(C#CC3(O)CCCCC3)cc2n1-c1ncnc(N)n1

>  <Name>  (565) 
nan

>  <Pocket>  (565) 
nan

>  <ATP_Site>  (565) 
nan

>  <Peripheral>  (565) 
nan

>  <Num_H_Atoms_ProtBoundConf>  (565) 
nan

>  <Num_Resolved_Atoms>  (565) 
nan

>  <Num_Not_Resolved_Atoms>  (565) 
nan

$$$$
CHEMBL3128047
     RDKit          3D

  0  0  0  0  0  0  0  0  0  0999 V3000
M  V30 BEGIN CTAB
M  V30 COUNTS 46 49 0 0 0
M  V30 BEGIN ATOM
M  V30 1 C -1.841772 -5.673883 2.841570 0
M  V30 2 C -1.001325 -4.498606 2.495768 0
M  V30 3 N 0.274263 -4.281124 2.860662 0
M  V30 4 C 0.709991 -3.098995 2.356005 0
M  V30 5 C 1.924408 -2.446515 2.450382 0
M  V30 6 C 2.044047 -1.231830 1.806203 0
M  V30 7 C 0.977091 -0.683230 1.086029 0
M  V30 8 C 1.190112 0.586830 0.446154 0
M  V30 9 C 1.384627 1.645720 -0.095057 0
M  V30 10 C 1.599262 2.919956 -0.763405 0
M  V30 11 C 1.129222 2.726943 -2.213697 0
M  V30 12 O 0.755667 3.851633 -0.156436 0
M  V30 13 C 3.007705 3.376220 -0.848818 0
M  V30 14 C 3.738536 3.596083 0.421629 0
M  V30 15 C 4.009382 2.598466 1.448794 0
M  V30 16 C 5.117604 2.918476 0.503913 0
M  V30 17 C -0.229835 -1.345454 1.000055 0
M  V30 18 C -0.354642 -2.568725 1.647133 0
M  V30 19 N -1.387261 -3.440057 1.746690 0
M  V30 20 C -2.656923 -3.205357 1.127202 0
M  V30 21 N -2.667380 -2.756125 -0.138444 0
M  V30 22 C -3.796838 -2.497502 -0.829975 0
M  V30 23 N -4.968957 -2.703294 -0.211317 0
M  V30 24 C -4.989985 -3.153064 1.056883 0
M  V30 25 N -6.258803 -3.354193 1.665585 0
M  V30 26 N -3.859831 -3.406946 1.735033 0
M  V30 27 H -1.239171 -6.619890 2.748100 0
M  V30 28 H -2.127342 -5.582140 3.903093 0
M  V30 29 H -2.682774 -5.783031 2.139833 0
M  V30 30 H 2.737122 -2.895618 3.016687 0
M  V30 31 H 3.002972 -0.711877 1.878029 0
M  V30 32 H 0.089426 3.084489 -2.338961 0
M  V30 33 H 1.764908 3.297067 -2.923965 0
M  V30 34 H 1.230049 1.665238 -2.491540 0
M  V30 35 H 1.206890 4.740198 -0.202823 0
M  V30 36 H 3.546175 2.620780 -1.498312 0
M  V30 37 H 3.019169 4.320929 -1.460956 0
M  V30 38 H 3.777927 4.674956 0.731859 0
M  V30 39 H 3.662041 1.570267 1.482745 0
M  V30 40 H 4.213434 2.993336 2.488449 0
M  V30 41 H 5.361650 2.154483 -0.232708 0
M  V30 42 H 5.984168 3.528697 0.814405 0
M  V30 43 H -1.057483 -0.918178 0.440431 0
M  V30 44 H -3.766851 -2.141794 -1.833392 0
M  V30 45 H -6.605605 -3.193734 2.648862 0
M  V30 46 H -7.076771 -3.726074 1.139523 0
M  V30 END ATOM
M  V30 BEGIN BOND
M  V30 1 1 1 2
M  V30 2 2 2 3
M  V30 3 1 3 4
M  V30 4 2 4 5
M  V30 5 1 5 6
M  V30 6 2 6 7
M  V30 7 1 7 8
M  V30 8 3 8 9
M  V30 9 1 9 10
M  V30 10 1 10 11
M  V30 11 1 10 12
M  V30 12 1 10 13
M  V30 13 1 13 14
M  V30 14 1 14 15
M  V30 15 1 15 16
M  V30 16 1 7 17
M  V30 17 2 17 18
M  V30 18 1 18 19
M  V30 19 1 19 20
M  V30 20 2 20 21
M  V30 21 1 21 22
M  V30 22 2 22 23
M  V30 23 1 23 24
M  V30 24 1 24 25
M  V30 25 2 24 26
M  V30 26 1 19 2
M  V30 27 1 26 20
M  V30 28 1 18 4
M  V30 29 1 16 14
M  V30 30 1 1 27
M  V30 31 1 1 28
M  V30 32 1 1 29
M  V30 33 1 5 30
M  V30 34 1 6 31
M  V30 35 1 11 32
M  V30 36 1 11 33
M  V30 37 1 11 34
M  V30 38 1 12 35
M  V30 39 1 13 36
M  V30 40 1 13 37
M  V30 41 1 14 38
M  V30 42 1 15 39
M  V30 43 1 15 40
M  V30 44 1 16 41
M  V30 45 1 16 42
M  V30 46 1 17 43
M  V30 47 1 22 44
M  V30 48 1 25 45
M  V30 49 1 25 46
M  V30 END BOND
M  V30 END CTAB
M  END
>  <Dataset>  (566) 
ChEMBL_Kinases

>  <Ligand_Instance>  (566) 
nan

>  <PDB_ID>  (566) 
nan

>  <Standardized_SMILES>  (566) 
Cc1nc2ccc(C#CC(C)(O)CC3CC3)cc2n1-c1ncnc(N)n1

>  <Name>  (566) 
nan

>  <Pocket>  (566) 
nan

>  <ATP_Site>  (566) 
nan

>  <Peripheral>  (566) 
nan

>  <Num_H_Atoms_ProtBoundConf>  (566) 
nan

>  <Num_Resolved_Atoms>  (566) 
nan

>  <Num_Not_Resolved_Atoms>  (566) 
nan

$$$$
CHEMBL3128044
     RDKit          3D

  0  0  0  0  0  0  0  0  0  0999 V3000
M  V30 BEGIN CTAB
M  V30 COUNTS 39 41 0 0 0
M  V30 BEGIN ATOM
M  V30 1 C -0.112497 -4.379673 4.340392 0
M  V30 2 C 0.640625 -3.532169 3.372905 0
M  V30 3 N 1.954804 -3.498085 3.053978 0
M  V30 4 C 2.175026 -2.557412 2.114454 0
M  V30 5 C 3.298162 -2.110358 1.445809 0
M  V30 6 C 3.252446 -1.104154 0.502179 0
M  V30 7 C 2.019122 -0.514778 0.212611 0
M  V30 8 C 1.901634 0.541278 -0.762601 0
M  V30 9 C 1.782233 1.424983 -1.577731 0
M  V30 10 C 1.610271 2.509925 -2.573606 0
M  V30 11 C 1.134843 1.964610 -3.909719 0
M  V30 12 C 0.524231 3.475596 -2.091034 0
M  V30 13 O 2.828300 3.141864 -2.672862 0
M  V30 14 C 0.897551 -0.958866 0.878106 0
M  V30 15 C 0.948391 -1.965944 1.821443 0
M  V30 16 N 0.032605 -2.595351 2.617675 0
M  V30 17 C -1.338945 -2.214932 2.556302 0
M  V30 18 N -2.295365 -2.866956 1.844535 0
M  V30 19 C -3.571544 -2.453826 1.830579 0
M  V30 20 N -3.924443 -1.375846 2.529554 0
M  V30 21 C -3.008818 -0.688395 3.257077 0
M  V30 22 N -3.302148 0.469492 4.029034 0
M  V30 23 N -1.718845 -1.130802 3.253093 0
M  V30 24 H -0.760355 -3.755814 4.977310 0
M  V30 25 H 0.587761 -5.001142 4.899917 0
M  V30 26 H -0.824551 -5.067581 3.799066 0
M  V30 27 H 4.263979 -2.560603 1.661879 0
M  V30 28 H 4.115525 -0.732511 -0.038267 0
M  V30 29 H 0.625146 0.993847 -3.721016 0
M  V30 30 H 2.003638 1.728193 -4.567898 0
M  V30 31 H 0.459580 2.702491 -4.384810 0
M  V30 32 H -0.487149 3.094364 -2.366716 0
M  V30 33 H 0.663306 4.422524 -2.677229 0
M  V30 34 H 0.614860 3.636743 -0.996000 0
M  V30 35 H 2.743722 3.842985 -3.392456 0
M  V30 36 H -0.041667 -0.500496 0.648550 0
M  V30 37 H -4.320479 -2.978177 1.263181 0
M  V30 38 H -3.039985 1.386772 3.578185 0
M  V30 39 H -3.744006 0.567403 4.990242 0
M  V30 END ATOM
M  V30 BEGIN BOND
M  V30 1 1 1 2
M  V30 2 2 2 3
M  V30 3 1 3 4
M  V30 4 2 4 5
M  V30 5 1 5 6
M  V30 6 2 6 7
M  V30 7 1 7 8
M  V30 8 3 8 9
M  V30 9 1 9 10
M  V30 10 1 10 11
M  V30 11 1 10 12
M  V30 12 1 10 13
M  V30 13 1 7 14
M  V30 14 2 14 15
M  V30 15 1 15 16
M  V30 16 1 16 17
M  V30 17 2 17 18
M  V30 18 1 18 19
M  V30 19 2 19 20
M  V30 20 1 20 21
M  V30 21 1 21 22
M  V30 22 2 21 23
M  V30 23 1 16 2
M  V30 24 1 23 17
M  V30 25 1 15 4
M  V30 26 1 1 24
M  V30 27 1 1 25
M  V30 28 1 1 26
M  V30 29 1 5 27
M  V30 30 1 6 28
M  V30 31 1 11 29
M  V30 32 1 11 30
M  V30 33 1 11 31
M  V30 34 1 12 32
M  V30 35 1 12 33
M  V30 36 1 12 34
M  V30 37 1 13 35
M  V30 38 1 14 36
M  V30 39 1 19 37
M  V30 40 1 22 38
M  V30 41 1 22 39
M  V30 END BOND
M  V30 END CTAB
M  END
>  <Dataset>  (567) 
ChEMBL_Kinases

>  <Ligand_Instance>  (567) 
nan

>  <PDB_ID>  (567) 
nan

>  <Standardized_SMILES>  (567) 
Cc1nc2ccc(C#CC(C)(C)O)cc2n1-c1ncnc(N)n1

>  <Name>  (567) 
nan

>  <Pocket>  (567) 
nan

>  <ATP_Site>  (567) 
nan

>  <Peripheral>  (567) 
nan

>  <Num_H_Atoms_ProtBoundConf>  (567) 
nan

>  <Num_Resolved_Atoms>  (567) 
nan

>  <Num_Not_Resolved_Atoms>  (567) 
nan

$$$$
CHEMBL3128041
     RDKit          3D

  0  0  0  0  0  0  0  0  0  0999 V3000
M  V30 BEGIN CTAB
M  V30 COUNTS 49 51 0 0 0
M  V30 BEGIN ATOM
M  V30 1 C 0.786592 -5.885811 3.028299 0
M  V30 2 O 0.962616 -4.509211 2.909616 0
M  V30 3 C 2.120504 -4.168430 2.266183 0
M  V30 4 C 2.271418 -4.642600 0.863368 0
M  V30 5 N 1.252464 -4.163784 -0.056414 0
M  V30 6 C 1.124340 -2.726959 -0.144803 0
M  V30 7 N 2.206638 -2.100201 -0.625732 0
M  V30 8 C 1.998663 -0.773466 -0.673769 0
M  V30 9 C 2.686912 0.353769 -1.050355 0
M  V30 10 C 2.142472 1.621690 -0.962662 0
M  V30 11 C 0.854629 1.690989 -0.470664 0
M  V30 12 C 0.273437 3.014851 -0.367108 0
M  V30 13 C -0.208396 4.123691 -0.301278 0
M  V30 14 C -0.786512 5.469108 -0.207622 0
M  V30 15 C -2.035553 5.478510 0.647819 0
M  V30 16 C 0.174117 6.441762 0.489652 0
M  V30 17 O -1.019875 5.871348 -1.514862 0
M  V30 18 C 0.174131 0.558442 -0.096695 0
M  V30 19 C 0.717728 -0.701481 -0.184558 0
M  V30 20 N 0.130749 -1.850353 0.154370 0
M  V30 21 C -1.080001 -2.303897 0.655719 0
M  V30 22 C -2.214654 -1.664039 1.029742 0
M  V30 23 C -3.372359 -2.196259 1.515164 0
M  V30 24 N -3.381618 -3.550089 1.637165 0
M  V30 25 C -2.305669 -4.250532 1.290955 0
M  V30 26 N -2.288357 -5.678189 1.405742 0
M  V30 27 N -1.222691 -3.629001 0.826040 0
M  V30 28 H 0.745809 -6.407835 2.059742 0
M  V30 29 H 1.559862 -6.363361 3.698648 0
M  V30 30 H -0.172341 -6.060093 3.599204 0
M  V30 31 H 2.355882 -3.074872 2.378219 0
M  V30 32 H 2.951939 -4.665956 2.849104 0
M  V30 33 H 2.285830 -5.773343 0.864832 0
M  V30 34 H 3.294094 -4.352565 0.516290 0
M  V30 35 H 0.544531 -4.598942 -0.710270 0
M  V30 36 H 3.684129 0.249177 -1.426503 0
M  V30 37 H 2.728497 2.462874 -1.271807 0
M  V30 38 H -1.962931 4.650527 1.387240 0
M  V30 39 H -2.181149 6.472651 1.114944 0
M  V30 40 H -2.898854 5.180073 -0.011805 0
M  V30 41 H 1.005391 6.688468 -0.211570 0
M  V30 42 H 0.658278 5.862948 1.327363 0
M  V30 43 H -0.369703 7.306249 0.876434 0
M  V30 44 H -1.589274 6.668987 -1.576258 0
M  V30 45 H -0.806060 0.757984 0.262615 0
M  V30 46 H -2.254069 -0.604876 0.951945 0
M  V30 47 H -4.223991 -1.600017 1.785346 0
M  V30 48 H -2.844605 -6.294050 0.752283 0
M  V30 49 H -1.880091 -6.441337 1.966290 0
M  V30 END ATOM
M  V30 BEGIN BOND
M  V30 1 1 1 2
M  V30 2 1 2 3
M  V30 3 1 3 4
M  V30 4 1 4 5
M  V30 5 1 5 6
M  V30 6 2 6 7
M  V30 7 1 7 8
M  V30 8 2 8 9
M  V30 9 1 9 10
M  V30 10 2 10 11
M  V30 11 1 11 12
M  V30 12 3 12 13
M  V30 13 1 13 14
M  V30 14 1 14 15
M  V30 15 1 14 16
M  V30 16 1 14 17
M  V30 17 1 11 18
M  V30 18 2 18 19
M  V30 19 1 19 20
M  V30 20 1 20 21
M  V30 21 2 21 22
M  V30 22 1 22 23
M  V30 23 2 23 24
M  V30 24 1 24 25
M  V30 25 1 25 26
M  V30 26 2 25 27
M  V30 27 1 20 6
M  V30 28 1 27 21
M  V30 29 1 19 8
M  V30 30 1 1 28
M  V30 31 1 1 29
M  V30 32 1 1 30
M  V30 33 1 3 31
M  V30 34 1 3 32
M  V30 35 1 4 33
M  V30 36 1 4 34
M  V30 37 1 5 35
M  V30 38 1 9 36
M  V30 39 1 10 37
M  V30 40 1 15 38
M  V30 41 1 15 39
M  V30 42 1 15 40
M  V30 43 1 16 41
M  V30 44 1 16 42
M  V30 45 1 16 43
M  V30 46 1 17 44
M  V30 47 1 18 45
M  V30 48 1 22 46
M  V30 49 1 23 47
M  V30 50 1 26 48
M  V30 51 1 26 49
M  V30 END BOND
M  V30 END CTAB
M  END
>  <Dataset>  (568) 
ChEMBL_Kinases

>  <Ligand_Instance>  (568) 
nan

>  <PDB_ID>  (568) 
nan

>  <Standardized_SMILES>  (568) 
COCCNc1nc2ccc(C#CC(C)(C)O)cc2n1-c1ccnc(N)n1

>  <Name>  (568) 
nan

>  <Pocket>  (568) 
nan

>  <ATP_Site>  (568) 
nan

>  <Peripheral>  (568) 
nan

>  <Num_H_Atoms_ProtBoundConf>  (568) 
nan

>  <Num_Resolved_Atoms>  (568) 
nan

>  <Num_Not_Resolved_Atoms>  (568) 
nan

$$$$
CHEMBL3127380
     RDKit          3D

  0  0  0  0  0  0  0  0  0  0999 V3000
M  V30 BEGIN CTAB
M  V30 COUNTS 46 48 0 0 0
M  V30 BEGIN ATOM
M  V30 1 N -0.756568 -6.143248 1.754997 0
M  V30 2 C -0.637307 -4.721642 1.968939 0
M  V30 3 N 0.021000 -4.150253 2.984180 0
M  V30 4 C 0.071821 -2.803626 3.092696 0
M  V30 5 N -0.543962 -2.029056 2.173266 0
M  V30 6 C -1.219644 -2.597674 1.131571 0
M  V30 7 N -1.778796 -1.553023 0.306807 0
M  V30 8 C -1.366935 -1.475666 -1.073859 0
M  V30 9 C -1.646089 -0.093270 -1.594414 0
M  V30 10 N -1.405692 0.831119 -0.508602 0
M  V30 11 C -0.322051 1.747582 -0.401254 0
M  V30 12 O -0.288561 2.489191 0.641871 0
M  V30 13 C 0.856644 2.602390 -0.491898 0
M  V30 14 N 0.945933 3.558021 0.594423 0
M  V30 15 C 2.173378 1.926284 -0.609237 0
M  V30 16 C 2.567702 1.043438 0.479598 0
M  V30 17 C 3.273431 1.619622 1.522148 0
M  V30 18 C 3.696597 0.860837 2.603425 0
M  V30 19 C 3.440783 -0.492564 2.697928 0
M  V30 20 C 2.744558 -1.083278 1.678011 0
M  V30 21 C 2.335279 -0.308170 0.615334 0
M  V30 22 C -2.416982 0.795070 0.562582 0
M  V30 23 C -2.725270 -0.644186 0.922382 0
M  V30 24 C -1.270274 -3.966367 1.022947 0
M  V30 25 Br -2.258238 -4.558036 -0.489312 0
M  V30 26 H -1.632496 -6.591821 2.149244 0
M  V30 27 H -0.139214 -6.862049 1.273580 0
M  V30 28 H 0.626273 -2.424024 3.945096 0
M  V30 29 H -0.252430 -1.582404 -1.083544 0
M  V30 30 H -1.846542 -2.264402 -1.697191 0
M  V30 31 H -2.712595 -0.029586 -1.918086 0
M  V30 32 H -1.051164 0.153091 -2.496539 0
M  V30 33 H 0.747221 3.225582 -1.434736 0
M  V30 34 H 1.265590 3.186480 1.489426 0
M  V30 35 H 1.390138 4.453524 0.302853 0
M  V30 36 H 2.944290 2.743465 -0.733298 0
M  V30 37 H 2.188556 1.356154 -1.564556 0
M  V30 38 H 3.578932 2.649380 1.644487 0
M  V30 39 H 4.258940 1.248895 3.464396 0
M  V30 40 H 3.737230 -1.137593 3.502257 0
M  V30 41 H 2.489119 -2.134376 1.645990 0
M  V30 42 H 1.787722 -0.763965 -0.196986 0
M  V30 43 H -3.334751 1.206913 0.069254 0
M  V30 44 H -2.159008 1.433395 1.409060 0
M  V30 45 H -3.727793 -0.962200 0.533324 0
M  V30 46 H -2.760475 -0.804426 1.999338 0
M  V30 END ATOM
M  V30 BEGIN BOND
M  V30 1 1 1 2
M  V30 2 2 2 3
M  V30 3 1 3 4
M  V30 4 2 4 5
M  V30 5 1 5 6
M  V30 6 1 6 7
M  V30 7 1 7 8
M  V30 8 1 8 9
M  V30 9 1 9 10
M  V30 10 1 10 11
M  V30 11 2 11 12
M  V30 12 1 11 13
M  V30 13 1 13 14
M  V30 14 1 13 15
M  V30 15 1 15 16
M  V30 16 2 16 17
M  V30 17 1 17 18
M  V30 18 2 18 19
M  V30 19 1 19 20
M  V30 20 2 20 21
M  V30 21 1 10 22
M  V30 22 1 22 23
M  V30 23 2 6 24
M  V30 24 1 24 25
M  V30 25 1 24 2
M  V30 26 1 23 7
M  V30 27 1 21 16
M  V30 28 1 1 26
M  V30 29 1 1 27
M  V30 30 1 4 28
M  V30 31 1 8 29
M  V30 32 1 8 30
M  V30 33 1 9 31
M  V30 34 1 9 32
M  V30 35 1 13 33
M  V30 36 1 14 34
M  V30 37 1 14 35
M  V30 38 1 15 36
M  V30 39 1 15 37
M  V30 40 1 17 38
M  V30 41 1 18 39
M  V30 42 1 19 40
M  V30 43 1 20 41
M  V30 44 1 21 42
M  V30 45 1 22 43
M  V30 46 1 22 44
M  V30 47 1 23 45
M  V30 48 1 23 46
M  V30 END BOND
M  V30 END CTAB
M  END
>  <Dataset>  (569) 
ChEMBL_Kinases

>  <Ligand_Instance>  (569) 
nan

>  <PDB_ID>  (569) 
nan

>  <Standardized_SMILES>  (569) 
Nc1ncnc(N2CCN(C(=O)C(N)Cc3ccccc3)CC2)c1Br

>  <Name>  (569) 
nan

>  <Pocket>  (569) 
nan

>  <ATP_Site>  (569) 
nan

>  <Peripheral>  (569) 
nan

>  <Num_H_Atoms_ProtBoundConf>  (569) 
nan

>  <Num_Resolved_Atoms>  (569) 
nan

>  <Num_Not_Resolved_Atoms>  (569) 
nan

$$$$
CHEMBL3127379
     RDKit          3D

  0  0  0  0  0  0  0  0  0  0999 V3000
M  V30 BEGIN CTAB
M  V30 COUNTS 46 48 0 0 0
M  V30 BEGIN ATOM
M  V30 1 N -1.642343 -5.881139 2.648191 0
M  V30 2 C -0.869012 -4.941422 1.921248 0
M  V30 3 N 0.465607 -5.098957 1.901384 0
M  V30 4 C 1.186274 -4.188365 1.199738 0
M  V30 5 N 0.627612 -3.160049 0.540243 0
M  V30 6 C -0.693922 -2.947370 0.520582 0
M  V30 7 N -1.348303 -1.877428 -0.158468 0
M  V30 8 C -2.174675 -0.855783 0.444574 0
M  V30 9 C -2.144967 0.418862 -0.348449 0
M  V30 10 N -0.837938 0.560330 -0.953176 0
M  V30 11 C 0.183938 1.536913 -0.802273 0
M  V30 12 O 1.312429 1.630076 -1.350728 0
M  V30 13 C 0.260382 2.740377 0.028802 0
M  V30 14 N 1.521270 3.403408 -0.279501 0
M  V30 15 C 0.289093 2.432494 1.507744 0
M  V30 16 C 1.439590 1.607709 1.894548 0
M  V30 17 C 2.604433 2.293193 2.262599 0
M  V30 18 C 3.771226 1.668290 2.651200 0
M  V30 19 C 3.818373 0.296843 2.687389 0
M  V30 20 Cl 5.260085 -0.573349 3.168935 0
M  V30 21 C 2.679581 -0.423130 2.328315 0
M  V30 22 C 1.530815 0.232658 1.945078 0
M  V30 23 C -0.454743 -0.479298 -1.912847 0
M  V30 24 C -1.193099 -1.769226 -1.606115 0
M  V30 25 C -1.451679 -3.873602 1.236643 0
M  V30 26 Br -3.345138 -3.766592 1.345326 0
M  V30 27 H -1.682886 -6.731541 2.026247 0
M  V30 28 H -2.155719 -6.003855 3.543479 0
M  V30 29 H 2.255202 -4.349738 1.208188 0
M  V30 30 H -3.206446 -1.254025 0.568670 0
M  V30 31 H -1.721756 -0.621136 1.451724 0
M  V30 32 H -2.377790 1.246923 0.348098 0
M  V30 33 H -2.951883 0.442232 -1.114121 0
M  V30 34 H -0.545705 3.459478 -0.156849 0
M  V30 35 H 1.536294 4.289466 0.254670 0
M  V30 36 H 1.575105 3.558374 -1.326734 0
M  V30 37 H 0.310705 3.377233 2.077794 0
M  V30 38 H -0.624649 1.901979 1.846695 0
M  V30 39 H 2.620379 3.386644 2.251060 0
M  V30 40 H 4.635979 2.261941 2.923096 0
M  V30 41 H 2.718953 -1.498001 2.357455 0
M  V30 42 H 0.638546 -0.292088 1.662823 0
M  V30 43 H -0.739273 -0.185504 -2.944832 0
M  V30 44 H 0.617370 -0.723242 -1.856487 0
M  V30 45 H -2.198412 -1.684684 -2.061557 0
M  V30 46 H -0.610606 -2.612371 -1.992501 0
M  V30 END ATOM
M  V30 BEGIN BOND
M  V30 1 1 1 2
M  V30 2 2 2 3
M  V30 3 1 3 4
M  V30 4 2 4 5
M  V30 5 1 5 6
M  V30 6 1 6 7
M  V30 7 1 7 8
M  V30 8 1 8 9
M  V30 9 1 9 10
M  V30 10 1 10 11
M  V30 11 2 11 12
M  V30 12 1 11 13
M  V30 13 1 13 14
M  V30 14 1 13 15
M  V30 15 1 15 16
M  V30 16 2 16 17
M  V30 17 1 17 18
M  V30 18 2 18 19
M  V30 19 1 19 20
M  V30 20 1 19 21
M  V30 21 2 21 22
M  V30 22 1 10 23
M  V30 23 1 23 24
M  V30 24 2 6 25
M  V30 25 1 25 26
M  V30 26 1 25 2
M  V30 27 1 24 7
M  V30 28 1 22 16
M  V30 29 1 1 27
M  V30 30 1 1 28
M  V30 31 1 4 29
M  V30 32 1 8 30
M  V30 33 1 8 31
M  V30 34 1 9 32
M  V30 35 1 9 33
M  V30 36 1 13 34
M  V30 37 1 14 35
M  V30 38 1 14 36
M  V30 39 1 15 37
M  V30 40 1 15 38
M  V30 41 1 17 39
M  V30 42 1 18 40
M  V30 43 1 21 41
M  V30 44 1 22 42
M  V30 45 1 23 43
M  V30 46 1 23 44
M  V30 47 1 24 45
M  V30 48 1 24 46
M  V30 END BOND
M  V30 END CTAB
M  END
>  <Dataset>  (570) 
ChEMBL_Kinases

>  <Ligand_Instance>  (570) 
nan

>  <PDB_ID>  (570) 
nan

>  <Standardized_SMILES>  (570) 
Nc1ncnc(N2CCN(C(=O)C(N)Cc3ccc(Cl)cc3)CC2)c1Br

>  <Name>  (570) 
nan

>  <Pocket>  (570) 
nan

>  <ATP_Site>  (570) 
nan

>  <Peripheral>  (570) 
nan

>  <Num_H_Atoms_ProtBoundConf>  (570) 
nan

>  <Num_Resolved_Atoms>  (570) 
nan

>  <Num_Not_Resolved_Atoms>  (570) 
nan

$$$$
CHEMBL3127378
     RDKit          3D

  0  0  0  0  0  0  0  0  0  0999 V3000
M  V30 BEGIN CTAB
M  V30 COUNTS 46 48 0 0 0
M  V30 BEGIN ATOM
M  V30 1 N -1.997906 -6.265942 2.312870 0
M  V30 2 C -1.133874 -5.341404 1.642422 0
M  V30 3 N 0.182844 -5.495554 1.460295 0
M  V30 4 C 0.911495 -4.566288 0.814815 0
M  V30 5 N 0.295755 -3.456702 0.343007 0
M  V30 6 C -1.027555 -3.269310 0.508619 0
M  V30 7 N -1.435368 -2.026372 -0.076094 0
M  V30 8 C -2.037297 -1.006664 0.740885 0
M  V30 9 C -2.089754 0.305089 -0.006474 0
M  V30 10 N -0.829306 0.471932 -0.699518 0
M  V30 11 C 0.152672 1.496734 -0.703577 0
M  V30 12 O 1.245342 1.679825 -1.287688 0
M  V30 13 C 0.245242 2.771274 0.008516 0
M  V30 14 N 1.458666 3.433454 -0.506025 0
M  V30 15 C 0.391636 2.624055 1.506951 0
M  V30 16 C 1.591566 1.885876 1.896093 0
M  V30 17 C 2.762992 2.625086 2.109508 0
M  V30 18 C 3.970940 2.070536 2.479785 0
M  V30 19 C 4.052103 0.707910 2.655855 0
M  V30 20 Cl 5.533501 -0.102102 3.124760 0
M  V30 21 C 2.914945 -0.081454 2.456883 0
M  V30 22 C 1.735168 0.527907 2.087512 0
M  V30 23 C -0.371244 -0.556781 -1.608956 0
M  V30 24 C -1.237030 -1.799852 -1.500965 0
M  V30 25 C -1.772408 -4.215187 1.166237 0
M  V30 26 Cl -3.476346 -3.817318 1.295104 0
M  V30 27 H -1.876242 -7.143891 1.777039 0
M  V30 28 H -2.605817 -6.110040 3.137684 0
M  V30 29 H 1.987843 -4.753503 0.698760 0
M  V30 30 H -3.043348 -1.313267 1.103138 0
M  V30 31 H -1.382603 -0.852453 1.635725 0
M  V30 32 H -2.288937 1.134336 0.696102 0
M  V30 33 H -2.949502 0.320663 -0.730618 0
M  V30 34 H -0.599325 3.453553 -0.205308 0
M  V30 35 H 1.566481 4.351149 0.006024 0
M  V30 36 H 1.318754 3.631100 -1.513939 0
M  V30 37 H 0.437554 3.638073 1.945694 0
M  V30 38 H -0.481890 2.112474 1.929840 0
M  V30 39 H 2.775437 3.716936 1.988183 0
M  V30 40 H 4.840720 2.670478 2.632315 0
M  V30 41 H 2.935144 -1.150946 2.584001 0
M  V30 42 H 0.848357 -0.056954 1.928688 0
M  V30 43 H -0.412475 -0.188134 -2.647912 0
M  V30 44 H 0.671202 -0.886790 -1.356341 0
M  V30 45 H -2.199729 -1.580163 -2.005749 0
M  V30 46 H -0.690105 -2.637837 -1.936244 0
M  V30 END ATOM
M  V30 BEGIN BOND
M  V30 1 1 1 2
M  V30 2 2 2 3
M  V30 3 1 3 4
M  V30 4 2 4 5
M  V30 5 1 5 6
M  V30 6 1 6 7
M  V30 7 1 7 8
M  V30 8 1 8 9
M  V30 9 1 9 10
M  V30 10 1 10 11
M  V30 11 2 11 12
M  V30 12 1 11 13
M  V30 13 1 13 14
M  V30 14 1 13 15
M  V30 15 1 15 16
M  V30 16 2 16 17
M  V30 17 1 17 18
M  V30 18 2 18 19
M  V30 19 1 19 20
M  V30 20 1 19 21
M  V30 21 2 21 22
M  V30 22 1 10 23
M  V30 23 1 23 24
M  V30 24 2 6 25
M  V30 25 1 25 26
M  V30 26 1 25 2
M  V30 27 1 24 7
M  V30 28 1 22 16
M  V30 29 1 1 27
M  V30 30 1 1 28
M  V30 31 1 4 29
M  V30 32 1 8 30
M  V30 33 1 8 31
M  V30 34 1 9 32
M  V30 35 1 9 33
M  V30 36 1 13 34
M  V30 37 1 14 35
M  V30 38 1 14 36
M  V30 39 1 15 37
M  V30 40 1 15 38
M  V30 41 1 17 39
M  V30 42 1 18 40
M  V30 43 1 21 41
M  V30 44 1 22 42
M  V30 45 1 23 43
M  V30 46 1 23 44
M  V30 47 1 24 45
M  V30 48 1 24 46
M  V30 END BOND
M  V30 END CTAB
M  END
>  <Dataset>  (571) 
ChEMBL_Kinases

>  <Ligand_Instance>  (571) 
nan

>  <PDB_ID>  (571) 
nan

>  <Standardized_SMILES>  (571) 
Nc1ncnc(N2CCN(C(=O)C(N)Cc3ccc(Cl)cc3)CC2)c1Cl

>  <Name>  (571) 
nan

>  <Pocket>  (571) 
nan

>  <ATP_Site>  (571) 
nan

>  <Peripheral>  (571) 
nan

>  <Num_H_Atoms_ProtBoundConf>  (571) 
nan

>  <Num_Resolved_Atoms>  (571) 
nan

>  <Num_Not_Resolved_Atoms>  (571) 
nan

$$$$
CHEMBL3127377
     RDKit          3D

  0  0  0  0  0  0  0  0  0  0999 V3000
M  V30 BEGIN CTAB
M  V30 COUNTS 46 48 0 0 0
M  V30 BEGIN ATOM
M  V30 1 N -1.356937 -6.267870 1.195686 0
M  V30 2 C -1.029934 -4.937620 1.574818 0
M  V30 3 N -0.254680 -4.677946 2.640692 0
M  V30 4 C 0.006187 -3.379143 2.929414 0
M  V30 5 N -0.494614 -2.359521 2.172327 0
M  V30 6 C -1.281220 -2.633836 1.091471 0
M  V30 7 N -1.698081 -1.437773 0.441249 0
M  V30 8 C -1.374346 -1.150764 -0.942994 0
M  V30 9 C -1.686111 0.284408 -1.252837 0
M  V30 10 N -1.175472 1.076336 -0.149692 0
M  V30 11 C -0.069515 1.883215 -0.439061 0
M  V30 12 O 0.177253 1.672816 -1.655028 0
M  V30 13 C 0.723100 2.808670 0.377388 0 CFG=1
M  V30 14 N 0.260939 2.894541 1.746354 0
M  V30 15 C 2.211457 2.649597 0.246230 0
M  V30 16 C 2.742525 1.343168 0.617009 0
M  V30 17 C 3.153547 1.040776 1.917394 0
M  V30 18 C 3.656961 -0.192258 2.276471 0
M  V30 19 C 3.773562 -1.194041 1.335492 0
M  V30 20 C 3.386090 -0.957842 0.039739 0
M  V30 21 C 2.883927 0.299119 -0.279849 0
M  V30 22 C -1.889454 0.916091 1.100708 0
M  V30 23 C -2.475816 -0.472998 1.196466 0
M  V30 24 C -1.562095 -3.947109 0.775692 0
M  V30 25 Cl -2.568464 -4.151167 -0.615601 0
M  V30 26 H -2.272145 -6.745138 1.438101 0
M  V30 27 H -0.494007 -6.526483 0.682529 0
M  V30 28 H 0.631043 -3.149469 3.787331 0
M  V30 29 H -0.253323 -1.250805 -0.989854 0
M  V30 30 H -1.807709 -1.880404 -1.655421 0
M  V30 31 H -2.813722 0.352272 -1.232169 0
M  V30 32 H -1.297883 0.581619 -2.237095 0
M  V30 33 H 0.514569 3.833996 -0.051249 0
M  V30 34 H -0.673258 3.376070 1.712529 0
M  V30 35 H 0.898073 3.549570 2.252385 0
M  V30 36 H 2.477395 2.921679 -0.781327 0
M  V30 37 H 2.665635 3.423895 0.900653 0
M  V30 38 H 3.071074 1.818646 2.682043 0
M  V30 39 H 3.973096 -0.418255 3.286034 0
M  V30 40 H 4.163728 -2.167017 1.589019 0
M  V30 41 H 3.474330 -1.736287 -0.701430 0
M  V30 42 H 2.599721 0.418704 -1.307045 0
M  V30 43 H -1.233271 1.056927 1.978799 0
M  V30 44 H -2.736205 1.629508 1.130903 0
M  V30 45 H -2.544112 -0.753322 2.266753 0
M  V30 46 H -3.513543 -0.491023 0.796877 0
M  V30 END ATOM
M  V30 BEGIN BOND
M  V30 1 1 1 2
M  V30 2 2 2 3
M  V30 3 1 3 4
M  V30 4 2 4 5
M  V30 5 1 5 6
M  V30 6 1 6 7
M  V30 7 1 7 8
M  V30 8 1 8 9
M  V30 9 1 9 10
M  V30 10 1 10 11
M  V30 11 2 11 12
M  V30 12 1 11 13
M  V30 13 1 13 14
M  V30 14 1 13 15
M  V30 15 1 15 16
M  V30 16 2 16 17
M  V30 17 1 17 18
M  V30 18 2 18 19
M  V30 19 1 19 20
M  V30 20 2 20 21
M  V30 21 1 10 22
M  V30 22 1 22 23
M  V30 23 2 6 24
M  V30 24 1 24 25
M  V30 25 1 24 2
M  V30 26 1 23 7
M  V30 27 1 21 16
M  V30 28 1 1 26
M  V30 29 1 1 27
M  V30 30 1 4 28
M  V30 31 1 8 29
M  V30 32 1 8 30
M  V30 33 1 9 31
M  V30 34 1 9 32
M  V30 35 1 13 33 CFG=3
M  V30 36 1 14 34
M  V30 37 1 14 35
M  V30 38 1 15 36
M  V30 39 1 15 37
M  V30 40 1 17 38
M  V30 41 1 18 39
M  V30 42 1 19 40
M  V30 43 1 20 41
M  V30 44 1 21 42
M  V30 45 1 22 43
M  V30 46 1 22 44
M  V30 47 1 23 45
M  V30 48 1 23 46
M  V30 END BOND
M  V30 END CTAB
M  END
>  <Dataset>  (572) 
ChEMBL_Kinases

>  <Ligand_Instance>  (572) 
nan

>  <PDB_ID>  (572) 
nan

>  <Standardized_SMILES>  (572) 
Nc1ncnc(N2CCN(C(=O)[C@@H](N)Cc3ccccc3)CC2)c1Cl

>  <Name>  (572) 
nan

>  <Pocket>  (572) 
nan

>  <ATP_Site>  (572) 
nan

>  <Peripheral>  (572) 
nan

>  <Num_H_Atoms_ProtBoundConf>  (572) 
nan

>  <Num_Resolved_Atoms>  (572) 
nan

>  <Num_Not_Resolved_Atoms>  (572) 
nan

$$$$
CHEMBL3127376
     RDKit          3D

  0  0  0  0  0  0  0  0  0  0999 V3000
M  V30 BEGIN CTAB
M  V30 COUNTS 42 44 0 0 0
M  V30 BEGIN ATOM
M  V30 1 N 0.433815 -2.665592 -2.915917 0
M  V30 2 C 0.372146 -3.117260 -1.551957 0
M  V30 3 C 0.282956 -1.974278 -0.567476 0
M  V30 4 C 1.479006 -1.146954 -0.740960 0
M  V30 5 C 2.610778 -1.472986 -0.005967 0
M  V30 6 C 3.782408 -0.746536 -0.104649 0
M  V30 7 C 3.879439 0.343880 -0.945260 0
M  V30 8 Cl 5.302372 1.339752 -1.156871 0
M  V30 9 C 2.770830 0.690768 -1.687569 0
M  V30 10 Cl 2.755644 2.064864 -2.804233 0
M  V30 11 C 1.616741 -0.053476 -1.567148 0
M  V30 12 C -0.992233 -1.197407 -0.817653 0
M  V30 13 C -1.126257 -0.049726 0.121227 0
M  V30 14 N -0.587903 -0.358510 1.450024 0
M  V30 15 C -0.882034 0.621532 2.462060 0
M  V30 16 C -0.447788 0.494326 3.760890 0
M  V30 17 C -0.685966 1.384195 4.785218 0
M  V30 18 N -0.202449 1.183718 6.106834 0
M  V30 19 N -1.421802 2.488523 4.466465 0
M  V30 20 C -1.867612 2.645057 3.187945 0
M  V30 21 N -1.598646 1.736669 2.235600 0
M  V30 22 C 0.190932 -1.505998 1.870381 0
M  V30 23 C 0.156894 -2.562867 0.819015 0
M  V30 24 H -0.436428 -2.205350 -3.262914 0
M  V30 25 H 0.503216 -3.553382 -3.497964 0
M  V30 26 H -0.459049 -3.853429 -1.433505 0
M  V30 27 H 1.309771 -3.685850 -1.369779 0
M  V30 28 H 2.708819 -2.284439 0.687939 0
M  V30 29 H 4.692436 -0.955721 0.443649 0
M  V30 30 H 0.752907 0.226227 -2.153293 0
M  V30 31 H -1.858857 -1.872764 -0.731710 0
M  V30 32 H -0.960281 -0.826252 -1.853773 0
M  V30 33 H -0.539395 0.826856 -0.222011 0
M  V30 34 H -2.210870 0.178513 0.259442 0
M  V30 35 H 0.138124 -0.362950 4.060300 0
M  V30 36 H 0.825709 1.419121 6.110174 0
M  V30 37 H -0.863319 0.852689 6.867056 0
M  V30 38 H -2.449646 3.534695 2.969928 0
M  V30 39 H 1.193775 -1.112106 2.116709 0
M  V30 40 H -0.321944 -1.887616 2.789716 0
M  V30 41 H 0.896196 -3.367584 0.999343 0
M  V30 42 H -0.877548 -3.004899 0.852411 0
M  V30 END ATOM
M  V30 BEGIN BOND
M  V30 1 1 1 2
M  V30 2 1 2 3
M  V30 3 1 3 4
M  V30 4 2 4 5
M  V30 5 1 5 6
M  V30 6 2 6 7
M  V30 7 1 7 8
M  V30 8 1 7 9
M  V30 9 1 9 10
M  V30 10 2 9 11
M  V30 11 1 3 12
M  V30 12 1 12 13
M  V30 13 1 13 14
M  V30 14 1 14 15
M  V30 15 2 15 16
M  V30 16 1 16 17
M  V30 17 1 17 18
M  V30 18 2 17 19
M  V30 19 1 19 20
M  V30 20 2 20 21
M  V30 21 1 14 22
M  V30 22 1 22 23
M  V30 23 1 23 3
M  V30 24 1 11 4
M  V30 25 1 21 15
M  V30 26 1 1 24
M  V30 27 1 1 25
M  V30 28 1 2 26
M  V30 29 1 2 27
M  V30 30 1 5 28
M  V30 31 1 6 29
M  V30 32 1 11 30
M  V30 33 1 12 31
M  V30 34 1 12 32
M  V30 35 1 13 33
M  V30 36 1 13 34
M  V30 37 1 16 35
M  V30 38 1 18 36
M  V30 39 1 18 37
M  V30 40 1 20 38
M  V30 41 1 22 39
M  V30 42 1 22 40
M  V30 43 1 23 41
M  V30 44 1 23 42
M  V30 END BOND
M  V30 END CTAB
M  END
>  <Dataset>  (573) 
ChEMBL_Kinases

>  <Ligand_Instance>  (573) 
nan

>  <PDB_ID>  (573) 
nan

>  <Standardized_SMILES>  (573) 
NCC1(c2ccc(Cl)c(Cl)c2)CCN(c2cc(N)ncn2)CC1

>  <Name>  (573) 
nan

>  <Pocket>  (573) 
nan

>  <ATP_Site>  (573) 
nan

>  <Peripheral>  (573) 
nan

>  <Num_H_Atoms_ProtBoundConf>  (573) 
nan

>  <Num_Resolved_Atoms>  (573) 
nan

>  <Num_Not_Resolved_Atoms>  (573) 
nan

$$$$
CHEMBL3125740
     RDKit          3D

  0  0  0  0  0  0  0  0  0  0999 V3000
M  V30 BEGIN CTAB
M  V30 COUNTS 38 41 0 0 0
M  V30 BEGIN ATOM
M  V30 1 C 0.999646 -7.716781 3.752912 0
M  V30 2 O 1.768192 -6.576737 4.131641 0
M  V30 3 C 1.485045 -5.365718 3.472589 0
M  V30 4 C 2.273948 -4.298903 3.894299 0
M  V30 5 C 2.018693 -3.087692 3.262108 0
M  V30 6 C 1.040034 -2.948863 2.273206 0
M  V30 7 C 0.844887 -1.639332 1.667708 0
M  V30 8 N -0.055620 -1.356109 0.708209 0
M  V30 9 C 0.041471 -0.034378 0.380902 0
M  V30 10 C -0.599902 0.810173 -0.507277 0
M  V30 11 C -0.190496 2.129094 -0.532225 0
M  V30 12 C -0.849089 3.046335 -1.460220 0
M  V30 13 C -0.558886 4.397742 -1.610589 0
M  V30 14 C -1.443063 4.797668 -2.591556 0
M  V30 15 C -1.537107 6.153076 -3.114143 0
M  V30 16 O -0.785760 7.064651 -2.679213 0
M  V30 17 O -2.451070 6.486011 -4.102529 0
M  V30 18 C -2.218512 3.732316 -3.000760 0
M  V30 19 O -1.807238 2.715544 -2.279809 0
M  V30 20 C 0.817033 2.594881 0.291994 0
M  V30 21 N 1.415848 1.733674 1.144397 0
M  V30 22 C 1.050966 0.427954 1.208117 0
M  V30 23 N 1.548687 -0.539763 1.996840 0
M  V30 24 C 0.298604 -4.036344 1.903904 0
M  V30 25 C 0.509336 -5.274291 2.501634 0
M  V30 26 H -0.094852 -7.514824 3.795537 0
M  V30 27 H 1.191653 -7.967174 2.668941 0
M  V30 28 H 1.277745 -8.572164 4.410360 0
M  V30 29 H 3.029998 -4.403257 4.657336 0
M  V30 30 H 2.617433 -2.244480 3.571478 0
M  V30 31 H -1.378782 0.416134 -1.133630 0
M  V30 32 H 0.190098 4.944046 -1.061578 0
M  V30 33 H -2.885134 7.420978 -4.093814 0
M  V30 34 H -2.980938 3.801677 -3.758883 0
M  V30 35 H 1.089121 3.638253 0.222268 0
M  V30 36 H 2.318771 -0.418982 2.701748 0
M  V30 37 H -0.469523 -3.971852 1.141904 0
M  V30 38 H -0.046516 -6.163696 2.248376 0
M  V30 END ATOM
M  V30 BEGIN BOND
M  V30 1 1 1 2
M  V30 2 1 2 3
M  V30 3 2 3 4
M  V30 4 1 4 5
M  V30 5 2 5 6
M  V30 6 1 6 7
M  V30 7 2 7 8
M  V30 8 1 8 9
M  V30 9 2 9 10
M  V30 10 1 10 11
M  V30 11 1 11 12
M  V30 12 2 12 13
M  V30 13 1 13 14
M  V30 14 1 14 15
M  V30 15 2 15 16
M  V30 16 1 15 17
M  V30 17 2 14 18
M  V30 18 1 18 19
M  V30 19 2 11 20
M  V30 20 1 20 21
M  V30 21 2 21 22
M  V30 22 1 22 23
M  V30 23 1 6 24
M  V30 24 2 24 25
M  V30 25 1 25 3
M  V30 26 1 23 7
M  V30 27 1 22 9
M  V30 28 1 19 12
M  V30 29 1 1 26
M  V30 30 1 1 27
M  V30 31 1 1 28
M  V30 32 1 4 29
M  V30 33 1 5 30
M  V30 34 1 10 31
M  V30 35 1 13 32
M  V30 36 1 17 33
M  V30 37 1 18 34
M  V30 38 1 20 35
M  V30 39 1 23 36
M  V30 40 1 24 37
M  V30 41 1 25 38
M  V30 END BOND
M  V30 END CTAB
M  END
>  <Dataset>  (574) 
ChEMBL_Kinases

>  <Ligand_Instance>  (574) 
nan

>  <PDB_ID>  (574) 
nan

>  <Standardized_SMILES>  (574) 
COc1ccc(-c2nc3cc(-c4cc(C(=O)O)co4)cnc3[nH]2)cc1

>  <Name>  (574) 
nan

>  <Pocket>  (574) 
nan

>  <ATP_Site>  (574) 
nan

>  <Peripheral>  (574) 
nan

>  <Num_H_Atoms_ProtBoundConf>  (574) 
nan

>  <Num_Resolved_Atoms>  (574) 
nan

>  <Num_Not_Resolved_Atoms>  (574) 
nan

$$$$
CHEMBL3125736
     RDKit          3D

  0  0  0  0  0  0  0  0  0  0999 V3000
M  V30 BEGIN CTAB
M  V30 COUNTS 46 49 0 0 0
M  V30 BEGIN ATOM
M  V30 1 C 1.621782 -1.529409 -0.940085 0
M  V30 2 N 2.070355 -0.339278 -0.261804 0
M  V30 3 C 1.195834 0.287052 0.655854 0
M  V30 4 C 1.637506 1.431627 1.288506 0
M  V30 5 C 2.916856 2.104873 1.088362 0
M  V30 6 C 3.546221 2.362571 2.313185 0
M  V30 7 C 4.768340 2.999889 2.399295 0
M  V30 8 C 5.395801 3.399046 1.238937 0
M  V30 9 C 6.681920 4.079390 1.164406 0
M  V30 10 O 7.289321 4.460670 0.126996 0
M  V30 11 O 7.426052 4.402536 2.299264 0
M  V30 12 C 4.783879 3.149434 0.035995 0
M  V30 13 C 3.564110 2.514188 -0.060433 0
M  V30 14 C 0.737806 1.999908 2.202100 0
M  V30 15 N -0.490447 1.479292 2.463869 0
M  V30 16 C -0.911498 0.353014 1.833154 0
M  V30 17 N -2.038106 -0.385113 1.874865 0
M  V30 18 C -1.926606 -1.423122 1.026435 0
M  V30 19 C -2.940597 -2.449869 0.788558 0
M  V30 20 C -4.126275 -2.348361 1.499912 0
M  V30 21 C -5.102996 -3.313928 1.288545 0
M  V30 22 C -4.857959 -4.342042 0.376133 0
M  V30 23 O -5.938485 -5.212248 0.292759 0
M  V30 24 C -5.992832 -6.343595 -0.537970 0
M  V30 25 C -3.667097 -4.418824 -0.319200 0
M  V30 26 C -2.685180 -3.460805 -0.116348 0
M  V30 27 N -0.710708 -1.313365 0.459461 0
M  V30 28 C -0.052935 -0.235875 0.926406 0
M  V30 29 H 1.352522 -2.340766 -0.215603 0
M  V30 30 H 2.326506 -1.898823 -1.707858 0
M  V30 31 H 0.671370 -1.242832 -1.475547 0
M  V30 32 H 3.029861 -0.033592 -0.506286 0
M  V30 33 H 3.152235 2.096257 3.304357 0
M  V30 34 H 5.276396 3.211874 3.321894 0
M  V30 35 H 8.442871 4.243364 2.307374 0
M  V30 36 H 5.217390 3.434896 -0.927467 0
M  V30 37 H 2.998856 2.278979 -0.951098 0
M  V30 38 H 0.952919 2.908196 2.777370 0
M  V30 39 H -2.831912 -0.124068 2.497836 0
M  V30 40 H -4.289629 -1.531945 2.207749 0
M  V30 41 H -5.999633 -3.182233 1.868230 0
M  V30 42 H -6.009746 -7.294071 0.038994 0
M  V30 43 H -6.996299 -6.296792 -1.049804 0
M  V30 44 H -5.250828 -6.383780 -1.338482 0
M  V30 45 H -3.584186 -5.255831 -0.999659 0
M  V30 46 H -1.764463 -3.542955 -0.671255 0
M  V30 END ATOM
M  V30 BEGIN BOND
M  V30 1 1 1 2
M  V30 2 1 2 3
M  V30 3 2 3 4
M  V30 4 1 4 5
M  V30 5 2 5 6
M  V30 6 1 6 7
M  V30 7 2 7 8
M  V30 8 1 8 9
M  V30 9 2 9 10
M  V30 10 1 9 11
M  V30 11 1 8 12
M  V30 12 2 12 13
M  V30 13 1 4 14
M  V30 14 2 14 15
M  V30 15 1 15 16
M  V30 16 1 16 17
M  V30 17 1 17 18
M  V30 18 1 18 19
M  V30 19 2 19 20
M  V30 20 1 20 21
M  V30 21 2 21 22
M  V30 22 1 22 23
M  V30 23 1 23 24
M  V30 24 1 22 25
M  V30 25 2 25 26
M  V30 26 2 18 27
M  V30 27 1 27 28
M  V30 28 1 28 3
M  V30 29 1 13 5
M  V30 30 2 28 16
M  V30 31 1 26 19
M  V30 32 1 1 29
M  V30 33 1 1 30
M  V30 34 1 1 31
M  V30 35 1 2 32
M  V30 36 1 6 33
M  V30 37 1 7 34
M  V30 38 1 11 35
M  V30 39 1 12 36
M  V30 40 1 13 37
M  V30 41 1 14 38
M  V30 42 1 17 39
M  V30 43 1 20 40
M  V30 44 1 21 41
M  V30 45 1 24 42
M  V30 46 1 24 43
M  V30 47 1 24 44
M  V30 48 1 25 45
M  V30 49 1 26 46
M  V30 END BOND
M  V30 END CTAB
M  END
>  <Dataset>  (575) 
ChEMBL_Kinases

>  <Ligand_Instance>  (575) 
nan

>  <PDB_ID>  (575) 
nan

>  <Standardized_SMILES>  (575) 
CNc1c(-c2ccc(C(=O)O)cc2)cnc2[nH]c(-c3ccc(OC)cc3)nc12

>  <Name>  (575) 
nan

>  <Pocket>  (575) 
nan

>  <ATP_Site>  (575) 
nan

>  <Peripheral>  (575) 
nan

>  <Num_H_Atoms_ProtBoundConf>  (575) 
nan

>  <Num_Resolved_Atoms>  (575) 
nan

>  <Num_Not_Resolved_Atoms>  (575) 
nan

$$$$
CHEMBL3125735
     RDKit          3D

  0  0  0  0  0  0  0  0  0  0999 V3000
M  V30 BEGIN CTAB
M  V30 COUNTS 59 63 0 0 0
M  V30 BEGIN ATOM
M  V30 1 O 10.983529 0.754076 -0.357078 0
M  V30 2 C 10.242301 1.454722 -1.128371 0
M  V30 3 O 11.308069 2.162027 -1.619098 0
M  V30 4 C 8.812759 1.410603 -1.315297 0
M  V30 5 C 8.196216 2.259424 -2.219345 0
M  V30 6 C 6.825297 2.147042 -2.328284 0
M  V30 7 C 6.132051 1.211359 -1.548502 0
M  V30 8 C 4.669690 1.147311 -1.719236 0
M  V30 9 C 4.027979 1.410439 -2.920927 0
M  V30 10 N 2.670891 1.337703 -2.999423 0
M  V30 11 C 1.923446 1.012786 -1.929208 0
M  V30 12 N 0.598600 0.887436 -1.773009 0
M  V30 13 C 0.293800 0.547483 -0.510150 0
M  V30 14 C -0.953971 0.292356 0.218697 0
M  V30 15 C -0.961619 -0.046256 1.548239 0
M  V30 16 C -2.148793 -0.267180 2.198852 0
M  V30 17 C -3.375185 -0.170395 1.591079 0
M  V30 18 O -4.670011 -0.330879 1.969022 0
M  V30 19 C -5.158437 -0.689238 3.206183 0
M  V30 20 C -4.833663 -2.047639 3.735707 0
M  V30 21 N -5.267119 -3.162220 3.037951 0
M  V30 22 C -6.624105 -3.501314 2.923179 0
M  V30 23 C -6.812955 -4.975466 2.534858 0
M  V30 24 C -6.242547 -5.138105 1.147610 0
M  V30 25 C -5.195395 -4.131054 0.800684 0
M  V30 26 C -4.434820 -3.655223 2.036094 0
M  V30 27 C -3.360602 0.176360 0.231940 0
M  V30 28 C -2.167079 0.410227 -0.468636 0
M  V30 29 N 1.494504 0.463543 0.125696 0
M  V30 30 C 2.510098 0.739809 -0.703989 0
M  V30 31 C 3.887391 0.815779 -0.632739 0
M  V30 32 C 6.782556 0.385856 -0.662586 0
M  V30 33 C 8.172163 0.477250 -0.530423 0
M  V30 34 H 11.734096 2.952497 -1.141964 0
M  V30 35 H 8.744155 2.975962 -2.815512 0
M  V30 36 H 6.333400 2.808254 -3.033279 0
M  V30 37 H 4.691429 1.663807 -3.732200 0
M  V30 38 H -0.174854 1.015977 -2.477164 0
M  V30 39 H -0.052071 -0.146767 2.112846 0
M  V30 40 H -2.193501 -0.517665 3.238649 0
M  V30 41 H -6.240316 -0.428809 3.342023 0
M  V30 42 H -4.662453 0.026725 3.944822 0
M  V30 43 H -3.709668 -2.117226 3.832725 0
M  V30 44 H -5.150544 -2.122755 4.828301 0
M  V30 45 H -7.250713 -3.255052 3.806945 0
M  V30 46 H -7.082755 -2.923514 2.090237 0
M  V30 47 H -6.266457 -5.583667 3.288634 0
M  V30 48 H -7.894888 -5.174353 2.498351 0
M  V30 49 H -5.816790 -6.172879 1.060349 0
M  V30 50 H -7.050951 -5.105360 0.373461 0
M  V30 51 H -5.583711 -3.247235 0.269905 0
M  V30 52 H -4.446914 -4.615348 0.143153 0
M  V30 53 H -3.667938 -2.963937 1.649304 0
M  V30 54 H -3.841620 -4.571074 2.355010 0
M  V30 55 H -4.202176 0.306551 -0.443257 0
M  V30 56 H -2.101098 0.678768 -1.508438 0
M  V30 57 H 4.364226 0.607581 0.304464 0
M  V30 58 H 6.189685 -0.322288 -0.084823 0
M  V30 59 H 8.676254 -0.171751 0.167517 0
M  V30 END ATOM
M  V30 BEGIN BOND
M  V30 1 2 1 2
M  V30 2 1 2 3
M  V30 3 1 2 4
M  V30 4 2 4 5
M  V30 5 1 5 6
M  V30 6 2 6 7
M  V30 7 1 7 8
M  V30 8 2 8 9
M  V30 9 1 9 10
M  V30 10 2 10 11
M  V30 11 1 11 12
M  V30 12 1 12 13
M  V30 13 1 13 14
M  V30 14 2 14 15
M  V30 15 1 15 16
M  V30 16 2 16 17
M  V30 17 1 17 18
M  V30 18 1 18 19
M  V30 19 1 19 20
M  V30 20 1 20 21
M  V30 21 1 21 22
M  V30 22 1 22 23
M  V30 23 1 23 24
M  V30 24 1 24 25
M  V30 25 1 25 26
M  V30 26 1 17 27
M  V30 27 2 27 28
M  V30 28 2 13 29
M  V30 29 1 29 30
M  V30 30 2 30 31
M  V30 31 1 7 32
M  V30 32 2 32 33
M  V30 33 1 33 4
M  V30 34 1 31 8
M  V30 35 1 30 11
M  V30 36 1 28 14
M  V30 37 1 26 21
M  V30 38 1 3 34
M  V30 39 1 5 35
M  V30 40 1 6 36
M  V30 41 1 9 37
M  V30 42 1 12 38
M  V30 43 1 15 39
M  V30 44 1 16 40
M  V30 45 1 19 41
M  V30 46 1 19 42
M  V30 47 1 20 43
M  V30 48 1 20 44
M  V30 49 1 22 45
M  V30 50 1 22 46
M  V30 51 1 23 47
M  V30 52 1 23 48
M  V30 53 1 24 49
M  V30 54 1 24 50
M  V30 55 1 25 51
M  V30 56 1 25 52
M  V30 57 1 26 53
M  V30 58 1 26 54
M  V30 59 1 27 55
M  V30 60 1 28 56
M  V30 61 1 31 57
M  V30 62 1 32 58
M  V30 63 1 33 59
M  V30 END BOND
M  V30 END CTAB
M  END
>  <Dataset>  (576) 
ChEMBL_Kinases

>  <Ligand_Instance>  (576) 
nan

>  <PDB_ID>  (576) 
nan

>  <Standardized_SMILES>  (576) 
O=C(O)c1ccc(-c2cnc3[nH]c(-c4ccc(OCCN5CCCCC5)cc4)nc3c2)cc1

>  <Name>  (576) 
nan

>  <Pocket>  (576) 
nan

>  <ATP_Site>  (576) 
nan

>  <Peripheral>  (576) 
nan

>  <Num_H_Atoms_ProtBoundConf>  (576) 
nan

>  <Num_Resolved_Atoms>  (576) 
nan

>  <Num_Not_Resolved_Atoms>  (576) 
nan

$$$$
CHEMBL3128056
     RDKit          3D

  0  0  0  0  0  0  0  0  0  0999 V3000
M  V30 BEGIN CTAB
M  V30 COUNTS 37 39 0 0 0
M  V30 BEGIN ATOM
M  V30 1 C 0.255199 -4.955610 1.382948 0
M  V30 2 C 1.579898 -4.593978 0.793210 0
M  V30 3 C 2.696701 -4.679271 1.808804 0
M  V30 4 O 1.861906 -5.451342 -0.295350 0
M  V30 5 C 1.596706 -3.204749 0.283504 0
M  V30 6 C 1.603706 -2.066918 -0.122630 0
M  V30 7 C 1.598297 -0.705546 -0.592282 0
M  V30 8 C 2.598703 -0.190489 -1.402735 0
M  V30 9 C 2.504098 1.130074 -1.801914 0
M  V30 10 C 1.455444 1.950099 -1.424949 0
M  V30 11 C 1.120183 3.276761 -1.674339 0
M  V30 12 N -0.044090 3.523841 -1.025292 0
M  V30 13 N -0.445241 2.433497 -0.393189 0
M  V30 14 C -1.594542 2.181374 0.419889 0
M  V30 15 C -1.368287 2.037632 1.774097 0
M  V30 16 C -2.471659 1.794141 2.566092 0
M  V30 17 N -2.232847 1.646321 3.964935 0
M  V30 18 N -3.730731 1.697506 2.050748 0
M  V30 19 C -3.919172 1.844602 0.708462 0
M  V30 20 N -2.850406 2.082186 -0.072217 0
M  V30 21 C 0.444159 1.441536 -0.609887 0
M  V30 22 C 0.560344 0.124660 -0.225609 0
M  V30 23 H -0.429630 -5.343150 0.572921 0
M  V30 24 H 0.368725 -5.774796 2.126464 0
M  V30 25 H -0.262921 -4.071729 1.793373 0
M  V30 26 H 2.939496 -5.747398 2.020693 0
M  V30 27 H 3.592282 -4.169757 1.434547 0
M  V30 28 H 2.348554 -4.144695 2.704613 0
M  V30 29 H 1.130068 -5.427947 -0.943816 0
M  V30 30 H 3.419095 -0.830102 -1.698310 0
M  V30 31 H 3.276005 1.572952 -2.443053 0
M  V30 32 H 1.704585 3.953861 -2.278513 0
M  V30 33 H -0.383112 2.111643 2.189818 0
M  V30 34 H -2.773352 1.987638 4.763173 0
M  V30 35 H -1.419517 1.135501 4.388654 0
M  V30 36 H -4.913702 1.769840 0.289153 0
M  V30 37 H -0.217299 -0.294613 0.410958 0
M  V30 END ATOM
M  V30 BEGIN BOND
M  V30 1 1 1 2
M  V30 2 1 2 3
M  V30 3 1 2 4
M  V30 4 1 2 5
M  V30 5 3 5 6
M  V30 6 1 6 7
M  V30 7 2 7 8
M  V30 8 1 8 9
M  V30 9 2 9 10
M  V30 10 1 10 11
M  V30 11 2 11 12
M  V30 12 1 12 13
M  V30 13 1 13 14
M  V30 14 2 14 15
M  V30 15 1 15 16
M  V30 16 1 16 17
M  V30 17 2 16 18
M  V30 18 1 18 19
M  V30 19 2 19 20
M  V30 20 1 13 21
M  V30 21 2 21 22
M  V30 22 1 22 7
M  V30 23 1 21 10
M  V30 24 1 20 14
M  V30 25 1 1 23
M  V30 26 1 1 24
M  V30 27 1 1 25
M  V30 28 1 3 26
M  V30 29 1 3 27
M  V30 30 1 3 28
M  V30 31 1 4 29
M  V30 32 1 8 30
M  V30 33 1 9 31
M  V30 34 1 11 32
M  V30 35 1 15 33
M  V30 36 1 17 34
M  V30 37 1 17 35
M  V30 38 1 19 36
M  V30 39 1 22 37
M  V30 END BOND
M  V30 END CTAB
M  END
>  <Dataset>  (577) 
ChEMBL_Kinases

>  <Ligand_Instance>  (577) 
nan

>  <PDB_ID>  (577) 
nan

>  <Standardized_SMILES>  (577) 
CC(C)(O)C#Cc1ccc2cnn(-c3cc(N)ncn3)c2c1

>  <Name>  (577) 
nan

>  <Pocket>  (577) 
nan

>  <ATP_Site>  (577) 
nan

>  <Peripheral>  (577) 
nan

>  <Num_H_Atoms_ProtBoundConf>  (577) 
nan

>  <Num_Resolved_Atoms>  (577) 
nan

>  <Num_Not_Resolved_Atoms>  (577) 
nan

$$$$
CHEMBL3191022
     RDKit          3D

  0  0  0  0  0  0  0  0  0  0999 V3000
M  V30 BEGIN CTAB
M  V30 COUNTS 44 46 0 0 0
M  V30 BEGIN ATOM
M  V30 1 C -3.508754 -5.984269 -3.933447 0
M  V30 2 C -2.933778 -6.028322 -2.544892 0
M  V30 3 N -1.726775 -5.242704 -2.401840 0
M  V30 4 C -0.470300 -5.721010 -2.610261 0
M  V30 5 C -0.106394 -7.106234 -3.017305 0
M  V30 6 N 0.423827 -4.732276 -2.388997 0
M  V30 7 C -0.216721 -3.594228 -2.035137 0
M  V30 8 C 0.061363 -2.285801 -1.684160 0
M  V30 9 C -0.935427 -1.382153 -1.372312 0
M  V30 10 C -0.612379 -0.006276 -1.010744 0
M  V30 11 O -1.542107 0.806980 -0.699622 0
M  V30 12 N 0.681084 0.562689 -0.961058 0
M  V30 13 N 0.901947 1.893316 -0.605255 0
M  V30 14 C 0.714399 2.347663 0.562307 0
M  V30 15 C 0.732093 3.436409 1.495443 0
M  V30 16 C 0.430053 3.596138 2.822708 0
M  V30 17 C 0.578987 4.803840 3.418424 0
M  V30 18 C 1.021958 5.924016 2.787392 0
M  V30 19 O 1.121346 7.087878 3.518357 0
M  V30 20 C 1.350245 5.839465 1.437699 0
M  V30 21 O 1.796531 6.982879 0.830986 0
M  V30 22 C 1.191990 4.590879 0.837092 0
M  V30 23 O 1.564920 4.678062 -0.517889 0
M  V30 24 C -2.264489 -1.772305 -1.402561 0
M  V30 25 C -2.582266 -3.096196 -1.755600 0
M  V30 26 C -1.545370 -3.944448 -2.053906 0
M  V30 27 H -2.840023 -5.544666 -4.688743 0
M  V30 28 H -4.457199 -5.378456 -3.988029 0
M  V30 29 H -3.799785 -7.030022 -4.206505 0
M  V30 30 H -2.692470 -7.094232 -2.247122 0
M  V30 31 H -3.730884 -5.710490 -1.845167 0
M  V30 32 H 0.092721 -7.745983 -2.151026 0
M  V30 33 H 0.837567 -7.008565 -3.627204 0
M  V30 34 H -0.874767 -7.484783 -3.717437 0
M  V30 35 H 1.111796 -2.014499 -1.675833 0
M  V30 36 H 1.484246 -0.053135 -1.203494 0
M  V30 37 H 0.354362 1.514240 1.189112 0
M  V30 38 H 0.084310 2.637733 3.242306 0
M  V30 39 H 0.283997 4.727686 4.462242 0
M  V30 40 H 0.409971 7.792022 3.517304 0
M  V30 41 H 1.280597 7.629795 0.284968 0
M  V30 42 H 0.777538 4.672923 -1.168647 0
M  V30 43 H -3.079648 -1.089246 -1.161543 0
M  V30 44 H -3.641663 -3.345355 -1.763544 0
M  V30 END ATOM
M  V30 BEGIN BOND
M  V30 1 1 1 2
M  V30 2 1 2 3
M  V30 3 1 3 4
M  V30 4 1 4 5
M  V30 5 2 4 6
M  V30 6 1 6 7
M  V30 7 2 7 8
M  V30 8 1 8 9
M  V30 9 1 9 10
M  V30 10 2 10 11
M  V30 11 1 10 12
M  V30 12 1 12 13
M  V30 13 2 13 14
M  V30 14 1 14 15
M  V30 15 2 15 16
M  V30 16 1 16 17
M  V30 17 2 17 18
M  V30 18 1 18 19
M  V30 19 1 18 20
M  V30 20 1 20 21
M  V30 21 2 20 22
M  V30 22 1 22 23
M  V30 23 2 9 24
M  V30 24 1 24 25
M  V30 25 2 25 26
M  V30 26 1 26 3
M  V30 27 1 26 7
M  V30 28 1 22 15
M  V30 29 1 1 27
M  V30 30 1 1 28
M  V30 31 1 1 29
M  V30 32 1 2 30
M  V30 33 1 2 31
M  V30 34 1 5 32
M  V30 35 1 5 33
M  V30 36 1 5 34
M  V30 37 1 8 35
M  V30 38 1 12 36
M  V30 39 1 14 37
M  V30 40 1 16 38
M  V30 41 1 17 39
M  V30 42 1 19 40
M  V30 43 1 21 41
M  V30 44 1 23 42
M  V30 45 1 24 43
M  V30 46 1 25 44
M  V30 END BOND
M  V30 END CTAB
M  END
>  <Dataset>  (578) 
ChEMBL_Kinases

>  <Ligand_Instance>  (578) 
nan

>  <PDB_ID>  (578) 
nan

>  <Standardized_SMILES>  (578) 
CCn1c(C)nc2cc(C(=O)N/N=C/c3ccc(O)c(O)c3O)ccc21

>  <Name>  (578) 
nan

>  <Pocket>  (578) 
nan

>  <ATP_Site>  (578) 
nan

>  <Peripheral>  (578) 
nan

>  <Num_H_Atoms_ProtBoundConf>  (578) 
nan

>  <Num_Resolved_Atoms>  (578) 
nan

>  <Num_Not_Resolved_Atoms>  (578) 
nan

$$$$
CHEMBL3190781
     RDKit          3D

  0  0  0  0  0  0  0  0  0  0999 V3000
M  V30 BEGIN CTAB
M  V30 COUNTS 39 41 0 0 0
M  V30 BEGIN ATOM
M  V30 1 C 2.588517 -4.224593 1.403305 0
M  V30 2 O 1.760514 -3.664285 0.440127 0
M  V30 3 C 1.356225 -2.412391 0.938972 0
M  V30 4 C 0.442253 -1.706419 -0.037497 0
M  V30 5 N 0.042580 -0.400752 0.479444 0
M  V30 6 C 0.658166 0.713419 0.130301 0
M  V30 7 C 1.705830 0.989747 -0.811002 0
M  V30 8 C 2.922143 0.363267 -0.924740 0
M  V30 9 C 3.886913 0.649720 -1.864683 0
M  V30 10 C 3.637169 1.646720 -2.782907 0
M  V30 11 Br 4.936768 2.080718 -4.102340 0
M  V30 12 C 2.458521 2.358714 -2.785894 0
M  V30 13 C 1.566974 1.987073 -1.801362 0
M  V30 14 C 0.206014 1.928092 0.739963 0
M  V30 15 S -1.168585 1.377645 1.853888 0
M  V30 16 C -0.946581 -0.394161 1.350365 0
M  V30 17 N -1.684607 -1.326938 1.836733 0
M  V30 18 C -2.681614 -0.948920 2.779276 0
M  V30 19 C -3.950049 -0.698784 2.273782 0
M  V30 20 C -4.992069 -0.321392 3.128157 0
M  V30 21 C -4.658915 -0.222981 4.472992 0
M  V30 22 N -3.427119 -0.466974 4.955900 0
M  V30 23 C -2.406471 -0.833479 4.142290 0
M  V30 24 H 1.995988 -4.329841 2.353533 0
M  V30 25 H 2.926104 -5.248002 1.117928 0
M  V30 26 H 3.514440 -3.633123 1.545658 0
M  V30 27 H 2.261914 -1.874437 1.231541 0
M  V30 28 H 0.815133 -2.572164 1.928624 0
M  V30 29 H -0.443313 -2.315910 -0.174836 0
M  V30 30 H 1.060334 -1.598803 -0.958141 0
M  V30 31 H 3.184540 -0.406965 -0.252896 0
M  V30 32 H 4.825525 0.122440 -1.904635 0
M  V30 33 H 2.188649 3.144279 -3.461508 0
M  V30 34 H 0.609285 2.536856 -1.772370 0
M  V30 35 H 0.437346 2.939944 0.712872 0
M  V30 36 H -4.140212 -0.796772 1.197329 0
M  V30 37 H -5.990345 -0.120878 2.757307 0
M  V30 38 H -5.501584 0.073839 5.102096 0
M  V30 39 H -1.409419 -1.034309 4.508542 0
M  V30 END ATOM
M  V30 BEGIN BOND
M  V30 1 1 1 2
M  V30 2 1 2 3
M  V30 3 1 3 4
M  V30 4 1 4 5
M  V30 5 1 5 6
M  V30 6 1 6 7
M  V30 7 2 7 8
M  V30 8 1 8 9
M  V30 9 2 9 10
M  V30 10 1 10 11
M  V30 11 1 10 12
M  V30 12 2 12 13
M  V30 13 2 6 14
M  V30 14 1 14 15
M  V30 15 1 15 16
M  V30 16 2 16 17
M  V30 17 1 17 18
M  V30 18 2 18 19
M  V30 19 1 19 20
M  V30 20 2 20 21
M  V30 21 1 21 22
M  V30 22 2 22 23
M  V30 23 1 16 5
M  V30 24 1 23 18
M  V30 25 1 13 7
M  V30 26 1 1 24
M  V30 27 1 1 25
M  V30 28 1 1 26
M  V30 29 1 3 27
M  V30 30 1 3 28
M  V30 31 1 4 29
M  V30 32 1 4 30
M  V30 33 1 8 31
M  V30 34 1 9 32
M  V30 35 1 12 33
M  V30 36 1 13 34
M  V30 37 1 14 35
M  V30 38 1 19 36
M  V30 39 1 20 37
M  V30 40 1 21 38
M  V30 41 1 23 39
M  V30 END BOND
M  V30 END CTAB
M  END
>  <Dataset>  (579) 
ChEMBL_Kinases

>  <Ligand_Instance>  (579) 
nan

>  <PDB_ID>  (579) 
nan

>  <Standardized_SMILES>  (579) 
COCCn1c(-c2ccc(Br)cc2)cs/c1=N\c1cccnc1

>  <Name>  (579) 
nan

>  <Pocket>  (579) 
nan

>  <ATP_Site>  (579) 
nan

>  <Peripheral>  (579) 
nan

>  <Num_H_Atoms_ProtBoundConf>  (579) 
nan

>  <Num_Resolved_Atoms>  (579) 
nan

>  <Num_Not_Resolved_Atoms>  (579) 
nan

$$$$
CHEMBL3190751
     RDKit          3D

  0  0  0  0  0  0  0  0  0  0999 V3000
M  V30 BEGIN CTAB
M  V30 COUNTS 32 35 0 0 0
M  V30 BEGIN ATOM
M  V30 1 O 0.104678 -1.070244 0.439931 0
M  V30 2 C -0.199165 -0.772228 1.613890 0
M  V30 3 C 0.639158 0.285107 2.108809 0
M  V30 4 C 1.625729 1.000635 1.639975 0
M  V30 5 C 2.013023 0.685687 0.271311 0
M  V30 6 C 3.130407 -0.113468 0.042326 0
M  V30 7 C 3.509877 -0.420989 -1.263704 0
M  V30 8 C 2.770286 0.071965 -2.336337 0
M  V30 9 C 1.650603 0.873328 -2.087733 0
M  V30 10 C 1.257737 1.190292 -0.783645 0
M  V30 11 O 1.104772 1.223761 -3.334050 0
M  V30 12 C 1.538630 0.213130 -4.254590 0
M  V30 13 O 2.844126 -0.021586 -3.736642 0
M  V30 14 S -0.038739 0.515080 3.864983 0
M  V30 15 C -1.288343 -0.766100 3.712389 0
M  V30 16 N -1.125306 -1.258930 2.420786 0
M  V30 17 C -2.023197 -2.325345 2.011570 0
M  V30 18 C -3.304320 -2.179990 2.801691 0
M  V30 19 C -3.040184 -2.161416 4.292596 0
M  V30 20 N -2.089397 -1.102439 4.578022 0
M  V30 21 H 2.043438 1.737468 2.304089 0
M  V30 22 H 3.731095 -0.515366 0.861456 0
M  V30 23 H 4.380025 -1.044776 -1.491762 0
M  V30 24 H 0.393838 1.808467 -0.595847 0
M  V30 25 H 0.985659 -0.735413 -4.124901 0
M  V30 26 H 1.524272 0.556644 -5.288383 0
M  V30 27 H -2.304379 -2.312981 0.959268 0
M  V30 28 H -1.603115 -3.323283 2.250260 0
M  V30 29 H -3.880328 -3.100398 2.586365 0
M  V30 30 H -3.930506 -1.326260 2.479891 0
M  V30 31 H -2.722738 -3.124022 4.684648 0
M  V30 32 H -3.999748 -1.830626 4.780713 0
M  V30 END ATOM
M  V30 BEGIN BOND
M  V30 1 2 1 2
M  V30 2 1 2 3
M  V30 3 2 3 4
M  V30 4 1 4 5
M  V30 5 2 5 6
M  V30 6 1 6 7
M  V30 7 2 7 8
M  V30 8 1 8 9
M  V30 9 2 9 10
M  V30 10 1 9 11
M  V30 11 1 11 12
M  V30 12 1 12 13
M  V30 13 1 3 14
M  V30 14 1 14 15
M  V30 15 1 15 16
M  V30 16 1 16 17
M  V30 17 1 17 18
M  V30 18 1 18 19
M  V30 19 1 19 20
M  V30 20 1 16 2
M  V30 21 1 10 5
M  V30 22 2 20 15
M  V30 23 1 13 8
M  V30 24 1 4 21
M  V30 25 1 6 22
M  V30 26 1 7 23
M  V30 27 1 10 24
M  V30 28 1 12 25
M  V30 29 1 12 26
M  V30 30 1 17 27
M  V30 31 1 17 28
M  V30 32 1 18 29
M  V30 33 1 18 30
M  V30 34 1 19 31
M  V30 35 1 19 32
M  V30 END BOND
M  V30 END CTAB
M  END
>  <Dataset>  (580) 
ChEMBL_Kinases

>  <Ligand_Instance>  (580) 
nan

>  <PDB_ID>  (580) 
nan

>  <Standardized_SMILES>  (580) 
O=c1/c(=C\c2ccc3c(c2)OCO3)sc2n1CCCN=2

>  <Name>  (580) 
nan

>  <Pocket>  (580) 
nan

>  <ATP_Site>  (580) 
nan

>  <Peripheral>  (580) 
nan

>  <Num_H_Atoms_ProtBoundConf>  (580) 
nan

>  <Num_Resolved_Atoms>  (580) 
nan

>  <Num_Not_Resolved_Atoms>  (580) 
nan

$$$$
CHEMBL3190579
     RDKit          3D

  0  0  0  0  0  0  0  0  0  0999 V3000
M  V30 BEGIN CTAB
M  V30 COUNTS 55 60 0 0 0
M  V30 BEGIN ATOM
M  V30 1 O -1.488525 1.637050 -3.006201 0
M  V30 2 C -0.689950 1.062430 -2.226026 0
M  V30 3 C -0.833396 -0.296321 -2.079924 0
M  V30 4 C -1.731587 -1.200882 -2.657420 0
M  V30 5 N -2.734161 -1.055497 -3.532051 0
M  V30 6 C -3.481541 -2.081141 -3.964436 0
M  V30 7 C -4.531729 -1.973129 -4.875402 0
M  V30 8 C -5.283357 -3.038752 -5.305438 0
M  V30 9 C -4.975455 -4.282338 -4.804461 0
M  V30 10 C -3.949211 -4.447015 -3.903676 0
M  V30 11 C -3.192738 -3.349469 -3.474419 0
M  V30 12 N -2.181572 -3.551198 -2.581686 0
M  V30 13 C -1.442468 -2.478911 -2.165895 0
M  V30 14 N -0.407783 -2.340775 -1.325344 0
M  V30 15 N 0.254764 -3.235300 -0.587718 0
M  V30 16 C 0.400861 -4.393708 -0.278584 0
M  V30 17 C 1.491443 -4.404424 0.712308 0
M  V30 18 C 2.867126 -4.393068 0.661058 0
M  V30 19 C 3.196736 -4.416448 2.002964 0
M  V30 20 C 2.087039 -4.440746 2.811332 0
M  V30 21 O 1.107242 -4.431507 1.952557 0
M  V30 22 C -0.037502 -1.029150 -1.271241 0
M  V30 23 N 0.912281 -0.324109 -0.616142 0
M  V30 24 C 1.066702 1.007197 -0.747348 0
M  V30 25 N 0.281016 1.747360 -1.547895 0
M  V30 26 C 0.301601 3.157935 -1.785281 0
M  V30 27 C -0.534831 3.937557 -0.812605 0
M  V30 28 C -0.092282 3.801138 0.599907 0
M  V30 29 C -0.804716 3.310384 1.637537 0
M  V30 30 C -0.050399 3.322517 2.913059 0
M  V30 31 C 0.487899 4.706115 3.221966 0
M  V30 32 C 1.259717 5.272549 2.053679 0
M  V30 33 C 1.308485 4.268722 0.901059 0
M  V30 34 H -4.663840 -0.932739 -5.191722 0
M  V30 35 H -6.033735 -2.733281 -5.999059 0
M  V30 36 H -5.606959 -5.068670 -5.187476 0
M  V30 37 H -3.729842 -5.420845 -3.528281 0
M  V30 38 H -0.313632 -4.942747 -0.848686 0
M  V30 39 H 3.347657 -4.370836 -0.294645 0
M  V30 40 H 4.269048 -4.414218 2.264826 0
M  V30 41 H 2.079562 -4.461015 3.880434 0
M  V30 42 H 1.821834 1.565893 -0.228964 0
M  V30 43 H 1.351807 3.499986 -1.655521 0
M  V30 44 H -0.057097 3.391102 -2.793420 0
M  V30 45 H -1.610644 3.671788 -0.883996 0
M  V30 46 H -0.471625 5.007015 -1.088818 0
M  V30 47 H -1.795958 3.014747 1.279889 0
M  V30 48 H -0.679399 3.030035 3.756837 0
M  V30 49 H 0.808762 2.651572 2.829025 0
M  V30 50 H 1.094465 4.622555 4.144719 0
M  V30 51 H -0.365490 5.375586 3.458460 0
M  V30 52 H 0.795000 6.188327 1.668429 0
M  V30 53 H 2.300096 5.448243 2.382848 0
M  V30 54 H 1.907944 3.405741 1.259013 0
M  V30 55 H 1.771476 4.773577 0.046921 0
M  V30 END ATOM
M  V30 BEGIN BOND
M  V30 1 2 1 2
M  V30 2 1 2 3
M  V30 3 1 3 4
M  V30 4 2 4 5
M  V30 5 1 5 6
M  V30 6 2 6 7
M  V30 7 1 7 8
M  V30 8 2 8 9
M  V30 9 1 9 10
M  V30 10 2 10 11
M  V30 11 1 11 12
M  V30 12 2 12 13
M  V30 13 1 13 14
M  V30 14 1 14 15
M  V30 15 2 15 16
M  V30 16 1 16 17
M  V30 17 2 17 18
M  V30 18 1 18 19
M  V30 19 2 19 20
M  V30 20 1 20 21
M  V30 21 1 14 22
M  V30 22 1 22 23
M  V30 23 2 23 24
M  V30 24 1 24 25
M  V30 25 1 25 26
M  V30 26 1 26 27
M  V30 27 1 27 28
M  V30 28 2 28 29
M  V30 29 1 29 30
M  V30 30 1 30 31
M  V30 31 1 31 32
M  V30 32 1 32 33
M  V30 33 1 25 2
M  V30 34 1 33 28
M  V30 35 2 22 3
M  V30 36 1 13 4
M  V30 37 1 21 17
M  V30 38 1 11 6
M  V30 39 1 7 34
M  V30 40 1 8 35
M  V30 41 1 9 36
M  V30 42 1 10 37
M  V30 43 1 16 38
M  V30 44 1 18 39
M  V30 45 1 19 40
M  V30 46 1 20 41
M  V30 47 1 24 42
M  V30 48 1 26 43
M  V30 49 1 26 44
M  V30 50 1 27 45
M  V30 51 1 27 46
M  V30 52 1 29 47
M  V30 53 1 30 48
M  V30 54 1 30 49
M  V30 55 1 31 50
M  V30 56 1 31 51
M  V30 57 1 32 52
M  V30 58 1 32 53
M  V30 59 1 33 54
M  V30 60 1 33 55
M  V30 END BOND
M  V30 END CTAB
M  END
>  <Dataset>  (581) 
ChEMBL_Kinases

>  <Ligand_Instance>  (581) 
nan

>  <PDB_ID>  (581) 
nan

>  <Standardized_SMILES>  (581) 
O=c1c2c3nc4ccccc4nc3n(/N=C/c3ccco3)c2ncn1CCC1=CCCCC1

>  <Name>  (581) 
nan

>  <Pocket>  (581) 
nan

>  <ATP_Site>  (581) 
nan

>  <Peripheral>  (581) 
nan

>  <Num_H_Atoms_ProtBoundConf>  (581) 
nan

>  <Num_Resolved_Atoms>  (581) 
nan

>  <Num_Not_Resolved_Atoms>  (581) 
nan

$$$$
CHEMBL3190527
     RDKit          3D

  0  0  0  0  0  0  0  0  0  0999 V3000
M  V30 BEGIN CTAB
M  V30 COUNTS 42 44 0 0 0
M  V30 BEGIN ATOM
M  V30 1 C 3.343127 -6.268713 3.280225 0
M  V30 2 O 3.308741 -5.743666 1.958631 0
M  V30 3 C 2.692351 -4.564291 1.650882 0
M  V30 4 C 2.051122 -3.781643 2.592548 0
M  V30 5 C 1.415325 -2.573574 2.299052 0
M  V30 6 C 1.469893 -2.194298 0.952465 0
M  V30 7 C 0.824448 -0.935177 0.561554 0
M  V30 8 N 0.770786 -0.419876 -0.637362 0
M  V30 9 N 0.131691 0.790619 -0.921497 0
M  V30 10 C 0.613015 2.103806 -1.065304 0
M  V30 11 O 1.826344 2.395271 -0.942324 0
M  V30 12 C -0.345540 3.200888 -1.375919 0
M  V30 13 N -0.855036 3.784762 -0.143059 0
M  V30 14 N -0.286479 4.795123 0.472073 0
M  V30 15 N -0.978269 5.112106 1.576088 0
M  V30 16 C -2.036337 4.289521 1.698406 0
M  V30 17 C -3.086032 4.117275 2.591051 0
M  V30 18 C -4.009309 3.112160 2.353583 0
M  V30 19 C -3.922024 2.270868 1.254348 0
M  V30 20 C -2.860271 2.475414 0.387772 0
M  V30 21 C -1.933083 3.461302 0.598118 0
M  V30 22 C 2.097322 -2.941029 -0.023109 0
M  V30 23 C 2.704256 -4.125170 0.344868 0
M  V30 24 O 3.349827 -4.908250 -0.616986 0
M  V30 25 C 3.357170 -4.453098 -1.946040 0
M  V30 26 H 3.897374 -7.227366 3.301519 0
M  V30 27 H 2.299829 -6.352035 3.673846 0
M  V30 28 H 3.869131 -5.553496 3.944546 0
M  V30 29 H 2.053638 -4.143337 3.607503 0
M  V30 30 H 0.932708 -2.004005 3.063152 0
M  V30 31 H 0.321045 -0.318342 1.294094 0
M  V30 32 H -0.874809 0.519721 -1.018825 0
M  V30 33 H -1.207836 2.741490 -1.935050 0
M  V30 34 H 0.079734 3.955322 -2.048519 0
M  V30 35 H -3.125514 4.789141 3.437276 0
M  V30 36 H -4.777604 3.076039 3.114684 0
M  V30 37 H -4.697430 1.523176 1.170443 0
M  V30 38 H -2.832867 1.792936 -0.458526 0
M  V30 39 H 2.093307 -2.572494 -1.050043 0
M  V30 40 H 4.043466 -3.578213 -2.114506 0
M  V30 41 H 3.790517 -5.270402 -2.560263 0
M  V30 42 H 2.357166 -4.171009 -2.289684 0
M  V30 END ATOM
M  V30 BEGIN BOND
M  V30 1 1 1 2
M  V30 2 1 2 3
M  V30 3 2 3 4
M  V30 4 1 4 5
M  V30 5 2 5 6
M  V30 6 1 6 7
M  V30 7 2 7 8
M  V30 8 1 8 9
M  V30 9 1 9 10
M  V30 10 2 10 11
M  V30 11 1 10 12
M  V30 12 1 12 13
M  V30 13 1 13 14
M  V30 14 2 14 15
M  V30 15 1 15 16
M  V30 16 2 16 17
M  V30 17 1 17 18
M  V30 18 2 18 19
M  V30 19 1 19 20
M  V30 20 2 20 21
M  V30 21 1 6 22
M  V30 22 2 22 23
M  V30 23 1 23 24
M  V30 24 1 24 25
M  V30 25 1 23 3
M  V30 26 1 21 13
M  V30 27 1 21 16
M  V30 28 1 1 26
M  V30 29 1 1 27
M  V30 30 1 1 28
M  V30 31 1 4 29
M  V30 32 1 5 30
M  V30 33 1 7 31
M  V30 34 1 9 32
M  V30 35 1 12 33
M  V30 36 1 12 34
M  V30 37 1 17 35
M  V30 38 1 18 36
M  V30 39 1 19 37
M  V30 40 1 20 38
M  V30 41 1 22 39
M  V30 42 1 25 40
M  V30 43 1 25 41
M  V30 44 1 25 42
M  V30 END BOND
M  V30 END CTAB
M  END
>  <Dataset>  (582) 
ChEMBL_Kinases

>  <Ligand_Instance>  (582) 
nan

>  <PDB_ID>  (582) 
nan

>  <Standardized_SMILES>  (582) 
COc1ccc(/C=N/NC(=O)Cn2nnc3ccccc32)cc1OC

>  <Name>  (582) 
nan

>  <Pocket>  (582) 
nan

>  <ATP_Site>  (582) 
nan

>  <Peripheral>  (582) 
nan

>  <Num_H_Atoms_ProtBoundConf>  (582) 
nan

>  <Num_Resolved_Atoms>  (582) 
nan

>  <Num_Not_Resolved_Atoms>  (582) 
nan

$$$$
CHEMBL3190499
     RDKit          3D

  0  0  0  0  0  0  0  0  0  0999 V3000
M  V30 BEGIN CTAB
M  V30 COUNTS 26 28 0 0 0
M  V30 BEGIN ATOM
M  V30 1 O 2.009012 -2.045478 -1.112557 0
M  V30 2 C 1.297973 -2.068088 0.063946 0
M  V30 3 N 1.239593 -3.163172 0.873638 0
M  V30 4 C 0.469829 -2.872429 1.941694 0
M  V30 5 C 0.103693 -3.632053 3.035437 0
M  V30 6 C -0.720657 -3.061032 4.009872 0
M  V30 7 C -1.169966 -1.742778 3.884105 0
M  V30 8 C -0.795312 -0.995187 2.784300 0
M  V30 9 C 0.015230 -1.567610 1.833341 0
M  V30 10 C 0.540652 -1.077506 0.655183 0
M  V30 11 C 0.331574 0.263596 0.122124 0
M  V30 12 N 0.857198 0.636403 -0.979414 0
M  V30 13 C 0.604263 2.034506 -1.477982 0
M  V30 14 N 0.953446 3.068631 -1.734348 0
M  V30 15 C 0.277233 4.094131 -2.202867 0
M  V30 16 C -1.046125 3.897612 -2.417590 0
M  V30 17 S -1.250829 2.106695 -1.889776 0
M  V30 18 H 3.004878 -1.913441 -1.128504 0
M  V30 19 H 1.712592 -4.085773 0.702596 0
M  V30 20 H 0.418361 -4.660966 3.192457 0
M  V30 21 H -1.068758 -3.564916 4.907307 0
M  V30 22 H -1.805526 -1.264147 4.610350 0
M  V30 23 H -1.103442 0.042610 2.610806 0
M  V30 24 H -0.281393 0.974277 0.659796 0
M  V30 25 H 0.852219 5.021632 -2.377937 0
M  V30 26 H -1.669779 4.837556 -2.847830 0
M  V30 END ATOM
M  V30 BEGIN BOND
M  V30 1 1 1 2
M  V30 2 1 2 3
M  V30 3 1 3 4
M  V30 4 2 4 5
M  V30 5 1 5 6
M  V30 6 2 6 7
M  V30 7 1 7 8
M  V30 8 2 8 9
M  V30 9 1 9 10
M  V30 10 1 10 11
M  V30 11 2 11 12
M  V30 12 1 12 13
M  V30 13 2 13 14
M  V30 14 1 14 15
M  V30 15 2 15 16
M  V30 16 1 16 17
M  V30 17 2 10 2
M  V30 18 1 17 13
M  V30 19 1 9 4
M  V30 20 1 1 18
M  V30 21 1 3 19
M  V30 22 1 5 20
M  V30 23 1 6 21
M  V30 24 1 7 22
M  V30 25 1 8 23
M  V30 26 1 11 24
M  V30 27 1 15 25
M  V30 28 1 16 26
M  V30 END BOND
M  V30 END CTAB
M  END
>  <Dataset>  (583) 
ChEMBL_Kinases

>  <Ligand_Instance>  (583) 
nan

>  <PDB_ID>  (583) 
nan

>  <Standardized_SMILES>  (583) 
Oc1[nH]c2ccccc2c1/C=N/c1nccs1

>  <Name>  (583) 
nan

>  <Pocket>  (583) 
nan

>  <ATP_Site>  (583) 
nan

>  <Peripheral>  (583) 
nan

>  <Num_H_Atoms_ProtBoundConf>  (583) 
nan

>  <Num_Resolved_Atoms>  (583) 
nan

>  <Num_Not_Resolved_Atoms>  (583) 
nan

$$$$
CHEMBL3190412
     RDKit          3D

  0  0  0  0  0  0  0  0  0  0999 V3000
M  V30 BEGIN CTAB
M  V30 COUNTS 127 132 0 0 0
M  V30 BEGIN ATOM
M  V30 1 C -0.413488 -6.501568 4.268386 0
M  V30 2 O -0.015705 -5.244136 4.017961 0
M  V30 3 C 0.931231 -5.006975 2.995132 0 CFG=1
M  V30 4 C -0.009198 -4.326406 1.954199 0
M  V30 5 C -1.303974 -4.163249 2.285162 0
M  V30 6 O -2.383994 -3.587381 1.552945 0
M  V30 7 C -2.910738 -4.179592 0.396880 0 CFG=1
M  V30 8 C -2.932805 -5.671118 0.540653 0
M  V30 9 O -4.255709 -3.714294 0.100308 0
M  V30 10 C -4.103572 -2.417899 -0.460944 0
M  V30 11 C -4.681623 -1.196793 -0.680520 0
M  V30 12 C -6.100550 -1.176050 -0.118439 0
M  V30 13 C -4.046977 -0.135564 -1.349602 0
M  V30 14 O -4.976373 0.942242 -1.370058 0
M  V30 15 C -2.740666 -0.151173 -1.893915 0
M  V30 16 C -2.561429 1.060968 -2.371495 0
M  V30 17 O -3.262193 2.182637 -2.558255 0
M  V30 18 C -1.301973 1.208524 -2.790584 0
M  V30 19 C -1.228435 -0.115365 -2.334345 0
M  V30 20 C 0.212588 0.117170 -2.115061 0
M  V30 21 N -0.342841 0.794497 -1.226989 0
M  V30 22 N -0.132704 1.611761 -0.199670 0
M  V30 23 C -0.878334 1.563835 1.079451 0
M  V30 24 C -1.838775 2.750169 0.980504 0
M  V30 25 N -1.378430 3.769381 0.074871 0
M  V30 26 C -2.146431 4.973842 0.287899 0
M  V30 27 C -1.671161 6.096463 -0.609007 0
M  V30 28 C -2.866492 6.619617 -1.387144 0
M  V30 29 C -4.044214 5.820663 -0.944240 0
M  V30 30 C -3.590272 4.755466 0.018173 0
M  V30 31 C 0.030270 4.002104 0.330603 0
M  V30 32 C 0.810206 2.751722 0.010202 0
M  V30 33 C -1.183762 -1.388284 -1.888735 0
M  V30 34 O -0.214797 -2.353031 -1.799048 0
M  V30 35 C -2.467449 -1.408978 -1.531387 0
M  V30 36 C -2.815984 -2.527332 -0.959435 0
M  V30 37 C -2.132941 -3.753970 -0.795175 0
M  V30 38 O -1.236209 -4.580394 -1.184987 0
M  V30 39 N -0.330601 2.022946 -3.611127 0
M  V30 40 C 0.375066 2.850047 -4.313937 0
M  V30 41 O -0.771951 3.162573 -4.007992 0
M  V30 42 C 1.759205 2.541087 -4.717788 0
M  V30 43 C 1.923267 3.210881 -6.061852 0
M  V30 44 C 2.849791 1.941249 -4.305543 0
M  V30 45 C 3.601432 1.229200 -3.332125 0
M  V30 46 C 3.585530 0.767825 -2.083392 0
M  V30 47 C 4.450737 0.058636 -1.240038 0 CFG=2
M  V30 48 C 5.834057 -0.069789 -1.915771 0
M  V30 49 C 4.150801 -1.169348 -0.433313 0 CFG=2
M  V30 50 O 3.514888 -2.098317 -1.200622 0
M  V30 51 C 3.476317 -0.935950 0.877674 0 CFG=1
M  V30 52 C 1.994023 -0.585442 0.725845 0
M  V30 53 C 3.895262 -1.499156 2.123145 0 CFG=1
M  V30 54 O 3.000306 -0.914371 3.116723 0
M  V30 55 C 4.111567 -2.892788 2.483225 0 CFG=1
M  V30 56 C 4.665241 -2.873900 3.895300 0
M  V30 57 C 3.042397 -3.909510 2.369723 0 CFG=2
M  V30 58 O 2.535228 -4.089174 1.078580 0
M  V30 59 C 2.787359 -5.192320 0.264528 0
M  V30 60 C 2.365556 -5.571618 -1.092280 0
M  V30 61 O 3.525644 -6.085209 0.728635 0
M  V30 62 C 2.031919 -4.071787 3.444215 0 CFG=2
M  V30 63 C 2.618535 -4.716952 4.732567 0
M  V30 64 H -1.294228 -6.393332 4.996031 0
M  V30 65 H -0.721000 -7.063784 3.389039 0
M  V30 66 H 0.303041 -7.061827 4.943156 0
M  V30 67 H 1.230532 -5.937546 2.563074 0
M  V30 68 H 0.264931 -3.968245 0.981684 0
M  V30 69 H -1.624322 -4.499110 3.239915 0
M  V30 70 H -3.008719 -5.991993 1.627366 0
M  V30 71 H -3.815757 -6.031675 -0.050853 0
M  V30 72 H -2.014145 -6.153392 0.130051 0
M  V30 73 H -6.005867 -1.498817 0.928153 0
M  V30 74 H -6.742574 -1.835107 -0.750815 0
M  V30 75 H -6.437478 -0.133448 -0.137623 0
M  V30 76 H -5.712773 0.863045 -2.087693 0
M  V30 77 H -4.096095 2.247802 -3.167808 0
M  V30 78 H 0.962150 -0.276091 -2.742274 0
M  V30 79 H -1.397167 0.634474 1.211940 0
M  V30 80 H -0.156122 1.691783 1.872618 0
M  V30 81 H -2.857741 2.415144 0.695646 0
M  V30 82 H -1.854639 3.191009 1.984054 0
M  V30 83 H -1.998247 5.206306 1.384592 0
M  V30 84 H -0.954071 5.731410 -1.363842 0
M  V30 85 H -1.282851 6.895793 0.030487 0
M  V30 86 H -2.720319 6.516554 -2.477970 0
M  V30 87 H -3.046497 7.694899 -1.183872 0
M  V30 88 H -4.825803 6.495660 -0.468683 0
M  V30 89 H -4.554552 5.355760 -1.819156 0
M  V30 90 H -4.200646 4.860352 0.950171 0
M  V30 91 H -3.786672 3.767196 -0.424625 0
M  V30 92 H 0.413345 4.898549 -0.137752 0
M  V30 93 H 0.069059 4.170254 1.449276 0
M  V30 94 H 1.409848 2.462688 0.909809 0
M  V30 95 H 1.540213 2.835051 -0.795354 0
M  V30 96 H 0.420748 -2.693726 -2.456144 0
M  V30 97 H 0.291818 1.165558 -3.656318 0
M  V30 98 H 0.957686 3.372626 -6.515659 0
M  V30 99 H 2.449748 2.465843 -6.733138 0
M  V30 100 H 2.476971 4.124349 -5.907619 0
M  V30 101 H 3.551536 2.000200 -5.178651 0
M  V30 102 H 4.588405 0.837918 -3.617643 0
M  V30 103 H 2.638735 1.224073 -2.029488 0
M  V30 104 H 4.737520 0.820713 -0.365059 0
M  V30 105 H 5.814302 -0.938070 -2.539211 0
M  V30 106 H 6.091957 0.855609 -2.442725 0
M  V30 107 H 6.567457 -0.199202 -1.059961 0
M  V30 108 H 5.178946 -1.636106 -0.249047 0
M  V30 109 H 2.563866 -2.269691 -1.049186 0
M  V30 110 H 3.823816 0.212953 1.030977 0
M  V30 111 H 1.570067 -0.103924 1.601158 0
M  V30 112 H 1.393591 -1.396606 0.354301 0
M  V30 113 H 2.025796 0.175466 -0.123258 0
M  V30 114 H 4.873907 -1.002195 2.464484 0
M  V30 115 H 3.195586 0.034810 3.093596 0
M  V30 116 H 4.993433 -3.265477 1.860681 0
M  V30 117 H 5.311371 -1.911704 3.905533 0
M  V30 118 H 5.404350 -3.641548 4.064056 0
M  V30 119 H 3.955191 -2.648800 4.674833 0
M  V30 120 H 3.645784 -4.905011 2.477067 0
M  V30 121 H 1.796345 -6.534504 -1.025884 0
M  V30 122 H 1.700985 -4.804282 -1.598221 0
M  V30 123 H 3.274779 -5.731837 -1.688516 0
M  V30 124 H 1.572037 -3.156874 3.768220 0
M  V30 125 H 3.661023 -5.003188 4.616274 0
M  V30 126 H 2.111938 -5.725978 4.906751 0
M  V30 127 H 2.382049 -4.108334 5.617703 0
M  V30 END ATOM
M  V30 BEGIN BOND
M  V30 1 1 1 2
M  V30 2 1 2 3
M  V30 3 1 3 4
M  V30 4 2 4 5 CFG=2
M  V30 5 1 5 6
M  V30 6 1 6 7
M  V30 7 1 7 8 CFG=1
M  V30 8 1 7 9
M  V30 9 1 9 10
M  V30 10 2 10 11
M  V30 11 1 11 12
M  V30 12 1 11 13
M  V30 13 1 13 14
M  V30 14 2 13 15
M  V30 15 1 15 16
M  V30 16 1 16 17
M  V30 17 2 16 18
M  V30 18 1 18 19
M  V30 19 1 19 20
M  V30 20 2 20 21 CFG=2
M  V30 21 1 21 22
M  V30 22 1 22 23
M  V30 23 1 23 24
M  V30 24 1 24 25
M  V30 25 1 25 26
M  V30 26 1 26 27
M  V30 27 1 27 28
M  V30 28 1 28 29
M  V30 29 1 29 30
M  V30 30 1 25 31
M  V30 31 1 31 32
M  V30 32 2 19 33
M  V30 33 1 33 34
M  V30 34 1 33 35
M  V30 35 2 35 36
M  V30 36 1 36 37
M  V30 37 2 37 38
M  V30 38 1 18 39
M  V30 39 1 39 40
M  V30 40 2 40 41
M  V30 41 1 40 42
M  V30 42 1 42 43
M  V30 43 2 42 44 CFG=2
M  V30 44 1 44 45
M  V30 45 2 45 46 CFG=2
M  V30 46 1 46 47
M  V30 47 1 47 48
M  V30 48 1 47 49
M  V30 49 1 49 50
M  V30 50 1 49 51
M  V30 51 1 51 52
M  V30 52 1 51 53
M  V30 53 1 53 54
M  V30 54 1 53 55
M  V30 55 1 55 56
M  V30 56 1 55 57
M  V30 57 1 57 58
M  V30 58 1 58 59
M  V30 59 1 59 60
M  V30 60 2 59 61
M  V30 61 1 57 62
M  V30 62 1 62 63
M  V30 63 1 62 3
M  V30 64 1 37 7
M  V30 65 1 36 10
M  V30 66 1 35 15
M  V30 67 1 32 22
M  V30 68 1 30 26
M  V30 69 1 1 64
M  V30 70 1 1 65
M  V30 71 1 1 66
M  V30 72 1 3 67 CFG=3
M  V30 73 1 4 68
M  V30 74 1 5 69
M  V30 75 1 8 70
M  V30 76 1 8 71
M  V30 77 1 8 72
M  V30 78 1 12 73
M  V30 79 1 12 74
M  V30 80 1 12 75
M  V30 81 1 14 76
M  V30 82 1 17 77
M  V30 83 1 20 78
M  V30 84 1 23 79
M  V30 85 1 23 80
M  V30 86 1 24 81
M  V30 87 1 24 82
M  V30 88 1 26 83
M  V30 89 1 27 84
M  V30 90 1 27 85
M  V30 91 1 28 86
M  V30 92 1 28 87
M  V30 93 1 29 88
M  V30 94 1 29 89
M  V30 95 1 30 90
M  V30 96 1 30 91
M  V30 97 1 31 92
M  V30 98 1 31 93
M  V30 99 1 32 94
M  V30 100 1 32 95
M  V30 101 1 34 96
M  V30 102 1 39 97
M  V30 103 1 43 98
M  V30 104 1 43 99
M  V30 105 1 43 100
M  V30 106 1 44 101
M  V30 107 1 45 102
M  V30 108 1 46 103
M  V30 109 1 47 104 CFG=1
M  V30 110 1 48 105
M  V30 111 1 48 106
M  V30 112 1 48 107
M  V30 113 1 49 108 CFG=1
M  V30 114 1 50 109
M  V30 115 1 51 110 CFG=1
M  V30 116 1 52 111
M  V30 117 1 52 112
M  V30 118 1 52 113
M  V30 119 1 53 114 CFG=1
M  V30 120 1 54 115
M  V30 121 1 55 116 CFG=3
M  V30 122 1 56 117
M  V30 123 1 56 118
M  V30 124 1 56 119
M  V30 125 1 57 120 CFG=1
M  V30 126 1 60 121
M  V30 127 1 60 122
M  V30 128 1 60 123
M  V30 129 1 62 124 CFG=1
M  V30 130 1 63 125
M  V30 131 1 63 126
M  V30 132 1 63 127
M  V30 END BOND
M  V30 END CTAB
M  END
>  <Dataset>  (584) 
ChEMBL_Kinases

>  <Ligand_Instance>  (584) 
nan

>  <PDB_ID>  (584) 
nan

>  <Standardized_SMILES>  (584) 
CO[C@H]1C=CO[C@@]2(C)Oc3c(C)c(O)c4c(O)c(c(C=NN5CCN(C6CCCC6)CC5)c(O)c4c3C2=O)NC(=O)C(C)=CC=C[C@H](C)[C@H](O)[C@@H](C)[C@@H](O)[C@@H](C)[C@H](OC(C)=O)[C@@H]1C

>  <Name>  (584) 
nan

>  <Pocket>  (584) 
nan

>  <ATP_Site>  (584) 
nan

>  <Peripheral>  (584) 
nan

>  <Num_H_Atoms_ProtBoundConf>  (584) 
nan

>  <Num_Resolved_Atoms>  (584) 
nan

>  <Num_Not_Resolved_Atoms>  (584) 
nan

$$$$
CHEMBL3190113
     RDKit          3D

  0  0  0  0  0  0  0  0  0  0999 V3000
M  V30 BEGIN CTAB
M  V30 COUNTS 46 50 0 0 0
M  V30 BEGIN ATOM
M  V30 1 C -1.102826 1.520743 2.111001 0
M  V30 2 C 0.245409 1.217412 2.654975 0
M  V30 3 O 0.089677 0.828310 3.797629 0
M  V30 4 C 1.395367 1.445685 1.734819 0
M  V30 5 C 1.166962 0.542749 0.528946 0
M  V30 6 C 2.441989 0.409848 -0.218355 0
M  V30 7 C 2.261363 -0.149221 -1.470107 0
M  V30 8 C 3.326954 -0.352221 -2.325998 0
M  V30 9 C 4.593378 0.020077 -1.899120 0
M  V30 10 C 4.796539 0.579506 -0.654247 0
M  V30 11 C 3.703604 0.777018 0.198727 0
M  V30 12 O 3.728824 1.322016 1.473568 0
M  V30 13 C 2.698632 0.924864 2.355721 0
M  V30 14 C 2.864352 1.485333 3.729820 0
M  V30 15 N 2.691585 -0.526680 2.387763 0
M  V30 16 C 1.622593 -1.198669 2.013606 0
M  V30 17 S 0.869925 -2.822474 2.506292 0
M  V30 18 C -0.478234 -2.687938 1.398347 0
M  V30 19 C -1.440745 -3.609485 1.273663 0
M  V30 20 C -2.517314 -3.355820 0.293314 0
M  V30 21 C -2.765206 -3.770246 -0.982240 0
M  V30 22 N -3.922541 -3.182076 -1.335675 0
M  V30 23 N -4.400174 -2.428760 -0.347915 0
M  V30 24 C -5.635493 -1.643202 -0.374878 0
M  V30 25 C -3.552020 -2.506865 0.694716 0
M  V30 26 C -0.261718 -1.503309 0.787259 0
M  V30 27 O -1.144420 -1.180860 -0.091548 0
M  V30 28 N 0.771222 -0.756566 1.080272 0
M  V30 29 H -1.614987 2.286449 2.762280 0
M  V30 30 H -1.753725 0.620612 2.152264 0
M  V30 31 H -1.099706 1.859116 1.062236 0
M  V30 32 H 1.503004 2.482448 1.411450 0
M  V30 33 H 0.364155 0.979038 -0.105144 0
M  V30 34 H 1.322782 -0.483047 -1.922809 0
M  V30 35 H 3.277434 -0.782282 -3.320639 0
M  V30 36 H 5.531203 -0.071931 -2.448622 0
M  V30 37 H 5.729933 0.901601 -0.227327 0
M  V30 38 H 2.170576 2.365977 3.857019 0
M  V30 39 H 2.520404 0.742484 4.499374 0
M  V30 40 H 3.891875 1.856733 3.949357 0
M  V30 41 H -1.341181 -4.491073 1.926134 0
M  V30 42 H -2.087927 -4.426546 -1.468308 0
M  V30 43 H -5.461937 -0.626628 0.076667 0
M  V30 44 H -5.931186 -1.520651 -1.432713 0
M  V30 45 H -6.451035 -2.169596 0.159778 0
M  V30 46 H -3.729068 -1.968341 1.636547 0
M  V30 END ATOM
M  V30 BEGIN BOND
M  V30 1 1 1 2
M  V30 2 2 2 3
M  V30 3 1 2 4
M  V30 4 1 4 5
M  V30 5 1 5 6
M  V30 6 2 6 7
M  V30 7 1 7 8
M  V30 8 2 8 9
M  V30 9 1 9 10
M  V30 10 2 10 11
M  V30 11 1 11 12
M  V30 12 1 12 13
M  V30 13 1 13 14
M  V30 14 1 13 15
M  V30 15 2 15 16
M  V30 16 1 16 17
M  V30 17 1 17 18
M  V30 18 2 18 19
M  V30 19 1 19 20
M  V30 20 1 20 21
M  V30 21 2 21 22
M  V30 22 1 22 23
M  V30 23 1 23 24
M  V30 24 1 23 25
M  V30 25 1 18 26
M  V30 26 2 26 27
M  V30 27 1 26 28
M  V30 28 1 13 4
M  V30 29 1 28 16
M  V30 30 1 28 5
M  V30 31 1 11 6
M  V30 32 2 25 20
M  V30 33 1 1 29
M  V30 34 1 1 30
M  V30 35 1 1 31
M  V30 36 1 4 32
M  V30 37 1 5 33
M  V30 38 1 7 34
M  V30 39 1 8 35
M  V30 40 1 9 36
M  V30 41 1 10 37
M  V30 42 1 14 38
M  V30 43 1 14 39
M  V30 44 1 14 40
M  V30 45 1 19 41
M  V30 46 1 21 42
M  V30 47 1 24 43
M  V30 48 1 24 44
M  V30 49 1 24 45
M  V30 50 1 25 46
M  V30 END BOND
M  V30 END CTAB
M  END
>  <Dataset>  (585) 
ChEMBL_Kinases

>  <Ligand_Instance>  (585) 
nan

>  <PDB_ID>  (585) 
nan

>  <Standardized_SMILES>  (585) 
CC(=O)C1C2c3ccccc3OC1(C)N=c1s/c(=C/c3cnn(C)c3)c(=O)n12

>  <Name>  (585) 
nan

>  <Pocket>  (585) 
nan

>  <ATP_Site>  (585) 
nan

>  <Peripheral>  (585) 
nan

>  <Num_H_Atoms_ProtBoundConf>  (585) 
nan

>  <Num_Resolved_Atoms>  (585) 
nan

>  <Num_Not_Resolved_Atoms>  (585) 
nan

$$$$
CHEMBL3190000
     RDKit          3D

  0  0  0  0  0  0  0  0  0  0999 V3000
M  V30 BEGIN CTAB
M  V30 COUNTS 62 65 0 0 0
M  V30 BEGIN ATOM
M  V30 1 C 5.686695 -4.849351 2.734985 0
M  V30 2 C 5.053487 -3.495350 2.954179 0
M  V30 3 O 3.651186 -3.509945 2.760724 0
M  V30 4 C 2.976710 -2.294500 2.914534 0
M  V30 5 O 3.234101 -1.728976 4.152226 0
M  V30 6 C 2.188256 -1.739843 2.002931 0
M  V30 7 C 2.001349 -2.441118 0.740184 0
M  V30 8 C 2.663807 -3.745426 0.477102 0
M  V30 9 N 1.229654 -1.839057 -0.101419 0
M  V30 10 C 0.594203 -0.591712 0.147877 0
M  V30 11 C 0.762925 0.045794 1.296929 0
M  V30 12 C 0.072427 1.303772 1.445882 0
M  V30 13 O 0.480172 2.099663 2.348177 0
M  V30 14 C -1.071888 1.611914 0.549542 0
M  V30 15 C -0.824620 1.205308 -0.863882 0
M  V30 16 C -2.046432 1.387630 -1.675220 0
M  V30 17 C -3.130601 2.109278 -1.217020 0
M  V30 18 C -4.248033 2.232974 -2.041291 0
M  V30 19 C -4.251480 1.630013 -3.304502 0
M  V30 20 O -5.272559 1.743926 -4.058511 0
M  V30 21 C -6.382434 1.939857 -4.728622 0
M  V30 22 C -3.142964 0.924251 -3.704586 0
M  V30 23 O -3.156246 0.329214 -4.957088 0
M  V30 24 C -2.036893 -0.423844 -5.434552 0
M  V30 25 C -2.011898 0.771606 -2.928623 0
M  V30 26 C -0.220736 -0.152306 -0.992144 0
M  V30 27 C 1.599771 -0.440153 2.424030 0
M  V30 28 C 0.674336 -0.732225 3.562926 0
M  V30 29 C 0.848066 -0.165665 4.783437 0
M  V30 30 C -0.199769 -0.686605 5.539838 0
M  V30 31 C -0.948957 -1.542445 4.725436 0
M  V30 32 C -2.161618 -2.374083 4.958190 0
M  V30 33 O -0.365564 -1.529655 3.527722 0
M  V30 34 H 6.777081 -4.667058 2.551879 0
M  V30 35 H 5.647035 -5.481279 3.648666 0
M  V30 36 H 5.317081 -5.374524 1.842418 0
M  V30 37 H 5.586875 -2.762929 2.337946 0
M  V30 38 H 5.236947 -3.226965 4.032725 0
M  V30 39 H 3.846825 -0.936188 4.285162 0
M  V30 40 H 2.303964 -4.074265 -0.543756 0
M  V30 41 H 3.756287 -3.675354 0.368826 0
M  V30 42 H 2.306635 -4.536225 1.155851 0
M  V30 43 H -1.962978 1.090176 0.995109 0
M  V30 44 H -1.276545 2.693117 0.670276 0
M  V30 45 H -0.081563 1.937963 -1.298976 0
M  V30 46 H -3.120827 2.578254 -0.228696 0
M  V30 47 H -5.092754 2.808604 -1.658198 0
M  V30 48 H -7.191745 1.167726 -4.494507 0
M  V30 49 H -6.937566 2.913155 -4.532772 0
M  V30 50 H -6.313429 1.907578 -5.865943 0
M  V30 51 H -1.731445 -1.177395 -4.654546 0
M  V30 52 H -1.180443 0.234283 -5.588853 0
M  V30 53 H -2.281832 -0.920875 -6.392596 0
M  V30 54 H -1.156906 0.209587 -3.274211 0
M  V30 55 H 0.486758 -0.128157 -1.872843 0
M  V30 56 H -0.977297 -0.908095 -1.284889 0
M  V30 57 H 2.381450 0.288157 2.722331 0
M  V30 58 H 1.533580 0.513755 5.237871 0
M  V30 59 H -0.565255 -0.603388 6.548653 0
M  V30 60 H -1.971370 -3.398714 4.577394 0
M  V30 61 H -2.420384 -2.455258 6.021938 0
M  V30 62 H -2.963816 -1.890862 4.338059 0
M  V30 END ATOM
M  V30 BEGIN BOND
M  V30 1 1 1 2
M  V30 2 1 2 3
M  V30 3 1 3 4
M  V30 4 1 4 5
M  V30 5 2 4 6
M  V30 6 1 6 7
M  V30 7 1 7 8
M  V30 8 2 7 9
M  V30 9 1 9 10
M  V30 10 2 10 11
M  V30 11 1 11 12
M  V30 12 2 12 13
M  V30 13 1 12 14
M  V30 14 1 14 15
M  V30 15 1 15 16
M  V30 16 2 16 17
M  V30 17 1 17 18
M  V30 18 2 18 19
M  V30 19 1 19 20
M  V30 20 1 20 21
M  V30 21 1 19 22
M  V30 22 1 22 23
M  V30 23 1 23 24
M  V30 24 2 22 25
M  V30 25 1 15 26
M  V30 26 1 11 27
M  V30 27 1 27 28
M  V30 28 2 28 29
M  V30 29 1 29 30
M  V30 30 2 30 31
M  V30 31 1 31 32
M  V30 32 1 31 33
M  V30 33 1 27 6
M  V30 34 1 33 28
M  V30 35 1 26 10
M  V30 36 1 25 16
M  V30 37 1 1 34
M  V30 38 1 1 35
M  V30 39 1 1 36
M  V30 40 1 2 37
M  V30 41 1 2 38
M  V30 42 1 5 39
M  V30 43 1 8 40
M  V30 44 1 8 41
M  V30 45 1 8 42
M  V30 46 1 14 43
M  V30 47 1 14 44
M  V30 48 1 15 45
M  V30 49 1 17 46
M  V30 50 1 18 47
M  V30 51 1 21 48
M  V30 52 1 21 49
M  V30 53 1 21 50
M  V30 54 1 24 51
M  V30 55 1 24 52
M  V30 56 1 24 53
M  V30 57 1 25 54
M  V30 58 1 26 55
M  V30 59 1 26 56
M  V30 60 1 27 57
M  V30 61 1 29 58
M  V30 62 1 30 59
M  V30 63 1 32 60
M  V30 64 1 32 61
M  V30 65 1 32 62
M  V30 END BOND
M  V30 END CTAB
M  END
>  <Dataset>  (586) 
ChEMBL_Kinases

>  <Ligand_Instance>  (586) 
nan

>  <PDB_ID>  (586) 
nan

>  <Standardized_SMILES>  (586) 
CCO/C(O)=C1\C(C)=NC2=C(C(=O)CC(c3ccc(OC)c(OC)c3)C2)C1c1ccc(C)o1

>  <Name>  (586) 
nan

>  <Pocket>  (586) 
nan

>  <ATP_Site>  (586) 
nan

>  <Peripheral>  (586) 
nan

>  <Num_H_Atoms_ProtBoundConf>  (586) 
nan

>  <Num_Resolved_Atoms>  (586) 
nan

>  <Num_Not_Resolved_Atoms>  (586) 
nan

$$$$
CHEMBL3189972
     RDKit          3D

  0  0  0  0  0  0  0  0  0  0999 V3000
M  V30 BEGIN CTAB
M  V30 COUNTS 63 65 0 0 0
M  V30 BEGIN ATOM
M  V30 1 C 1.132752 -1.802553 3.722586 0
M  V30 2 O 1.375796 -1.692838 2.355828 0
M  V30 3 C 2.642156 -1.511324 1.832979 0
M  V30 4 C 3.697671 -1.438530 2.751123 0
M  V30 5 C 5.006586 -1.258708 2.354673 0
M  V30 6 C 5.234281 -1.152657 1.001064 0
M  V30 7 C 4.178398 -1.228192 0.129180 0
M  V30 8 C 2.857545 -1.407219 0.488745 0
M  V30 9 C 1.769666 -1.487417 -0.503465 0
M  V30 10 C 0.781933 -0.379744 -0.213566 0
M  V30 11 C 1.359239 0.985077 -0.281853 0
M  V30 12 N 0.309894 1.948454 0.016049 0
M  V30 13 C -0.907382 1.739057 0.209636 0
M  V30 14 C -2.313451 1.997777 0.491209 0
M  V30 15 C -2.993476 0.787439 0.469906 0
M  V30 16 C -4.371285 0.815878 0.717067 0
M  V30 17 C -4.926142 2.056526 0.960381 0
M  V30 18 N -6.323852 2.118801 1.215434 0
M  V30 19 C -7.002539 3.397339 1.483425 0
M  V30 20 C -7.135576 0.899929 1.218285 0
M  V30 21 C -4.248476 3.255645 0.980752 0
M  V30 22 C -2.895700 3.220164 0.737397 0
M  V30 23 C 2.237376 -1.252883 -1.918794 0
M  V30 24 C 2.681456 -2.486650 -2.614931 0
M  V30 25 O 1.631761 -3.398268 -2.614344 0
M  V30 26 C 1.438962 -3.842642 -1.332418 0
M  V30 27 C 2.610992 -4.595643 -0.743379 0
M  V30 28 C 0.265747 -4.831270 -1.422467 0
M  V30 29 C 1.039340 -2.779062 -0.339718 0
M  V30 30 H 1.595143 -1.026808 4.347614 0
M  V30 31 H 0.042212 -1.778287 3.929443 0
M  V30 32 H 1.518284 -2.817627 4.028233 0
M  V30 33 H 3.510236 -1.523058 3.814967 0
M  V30 34 H 5.788478 -1.205995 3.071297 0
M  V30 35 H 6.261555 -1.012948 0.705042 0
M  V30 36 H 4.486967 -1.135516 -0.902526 0
M  V30 37 H 0.021247 -0.438629 -1.047115 0
M  V30 38 H 0.195253 -0.560247 0.700638 0
M  V30 39 H 2.206222 1.150213 0.416673 0
M  V30 40 H 1.664393 1.175793 -1.329630 0
M  V30 41 H -0.350263 2.692608 0.219722 0
M  V30 42 H -2.616253 -0.205186 0.286464 0
M  V30 43 H -5.011605 -0.061502 0.726708 0
M  V30 44 H -6.929046 4.004883 0.553446 0
M  V30 45 H -6.479132 3.897021 2.303774 0
M  V30 46 H -8.070726 3.220140 1.674315 0
M  V30 47 H -8.180628 1.152324 1.427226 0
M  V30 48 H -6.786440 0.206361 2.031130 0
M  V30 49 H -7.077229 0.332194 0.287699 0
M  V30 50 H -4.717360 4.205619 1.174584 0
M  V30 51 H -2.235555 4.073806 0.721394 0
M  V30 52 H 2.951694 -0.417295 -1.975605 0
M  V30 53 H 1.343780 -0.881160 -2.506057 0
M  V30 54 H 2.880478 -2.213839 -3.679136 0
M  V30 55 H 3.563003 -2.985997 -2.226467 0
M  V30 56 H 2.174953 -5.359614 -0.037834 0
M  V30 57 H 3.174271 -5.178358 -1.503770 0
M  V30 58 H 3.256842 -3.963549 -0.098881 0
M  V30 59 H 0.536636 -5.638715 -2.135768 0
M  V30 60 H -0.550548 -4.238781 -1.894752 0
M  V30 61 H -0.055931 -5.179026 -0.439377 0
M  V30 62 H 1.174796 -3.241407 0.658624 0
M  V30 63 H -0.074861 -2.656473 -0.432567 0
M  V30 END ATOM
M  V30 BEGIN BOND
M  V30 1 1 1 2
M  V30 2 1 2 3
M  V30 3 2 3 4
M  V30 4 1 4 5
M  V30 5 2 5 6
M  V30 6 1 6 7
M  V30 7 2 7 8
M  V30 8 1 8 9
M  V30 9 1 9 10
M  V30 10 1 10 11
M  V30 11 1 11 12
M  V30 12 2 12 13
M  V30 13 1 13 14
M  V30 14 2 14 15
M  V30 15 1 15 16
M  V30 16 2 16 17
M  V30 17 1 17 18
M  V30 18 1 18 19
M  V30 19 1 18 20
M  V30 20 1 17 21
M  V30 21 2 21 22
M  V30 22 1 9 23
M  V30 23 1 23 24
M  V30 24 1 24 25
M  V30 25 1 25 26
M  V30 26 1 26 27
M  V30 27 1 26 28
M  V30 28 1 26 29
M  V30 29 1 8 3
M  V30 30 1 29 9
M  V30 31 1 22 14
M  V30 32 1 1 30
M  V30 33 1 1 31
M  V30 34 1 1 32
M  V30 35 1 4 33
M  V30 36 1 5 34
M  V30 37 1 6 35
M  V30 38 1 7 36
M  V30 39 1 10 37
M  V30 40 1 10 38
M  V30 41 1 11 39
M  V30 42 1 11 40
M  V30 43 1 13 41
M  V30 44 1 15 42
M  V30 45 1 16 43
M  V30 46 1 19 44
M  V30 47 1 19 45
M  V30 48 1 19 46
M  V30 49 1 20 47
M  V30 50 1 20 48
M  V30 51 1 20 49
M  V30 52 1 21 50
M  V30 53 1 22 51
M  V30 54 1 23 52
M  V30 55 1 23 53
M  V30 56 1 24 54
M  V30 57 1 24 55
M  V30 58 1 27 56
M  V30 59 1 27 57
M  V30 60 1 27 58
M  V30 61 1 28 59
M  V30 62 1 28 60
M  V30 63 1 28 61
M  V30 64 1 29 62
M  V30 65 1 29 63
M  V30 END BOND
M  V30 END CTAB
M  END
>  <Dataset>  (587) 
ChEMBL_Kinases

>  <Ligand_Instance>  (587) 
nan

>  <PDB_ID>  (587) 
nan

>  <Standardized_SMILES>  (587) 
COc1ccccc1C1(CC/N=C/c2ccc(N(C)C)cc2)CCOC(C)(C)C1

>  <Name>  (587) 
nan

>  <Pocket>  (587) 
nan

>  <ATP_Site>  (587) 
nan

>  <Peripheral>  (587) 
nan

>  <Num_H_Atoms_ProtBoundConf>  (587) 
nan

>  <Num_Resolved_Atoms>  (587) 
nan

>  <Num_Not_Resolved_Atoms>  (587) 
nan

$$$$
CHEMBL3189928
     RDKit          3D

  0  0  0  0  0  0  0  0  0  0999 V3000
M  V30 BEGIN CTAB
M  V30 COUNTS 45 47 0 0 0
M  V30 BEGIN ATOM
M  V30 1 C 0.379411 -3.952736 1.037302 0
M  V30 2 C 1.024030 -2.633340 0.808906 0
M  V30 3 N 2.066068 -2.425843 0.084669 0
M  V30 4 N 2.725318 -3.485073 -0.593037 0
M  V30 5 C 2.320528 -3.172099 -1.926210 0
M  V30 6 C 1.144173 -3.721470 -2.420386 0
M  V30 7 C 0.754617 -3.410586 -3.725852 0
M  V30 8 C 1.560681 -2.560028 -4.485772 0
M  V30 9 C 2.731002 -2.012199 -3.997142 0
M  V30 10 C 3.101005 -2.332966 -2.698161 0
M  V30 11 N 4.309675 -1.758095 -2.214462 0 CHG=1 VAL=4
M  V30 12 O 4.731944 -0.662206 -2.665163 0
M  V30 13 O 5.200893 -2.218235 -1.245420 0 CHG=-1 VAL=1
M  V30 14 C 0.441974 -1.457607 1.452094 0
M  V30 15 C 0.982485 -0.198625 1.288944 0
M  V30 16 C 0.491290 0.957566 1.862563 0
M  V30 17 C -0.628663 0.859512 2.664904 0
M  V30 18 N -1.256846 1.946833 3.327051 0
M  V30 19 C -2.447643 1.922183 4.175863 0
M  V30 20 C -3.226040 3.209530 4.069700 0
M  V30 21 O -3.137124 3.758749 2.785045 0
M  V30 22 C -1.850254 4.249130 2.669405 0
M  V30 23 C -0.853888 3.334650 3.309063 0
M  V30 24 C -1.207512 -0.378859 2.859902 0
M  V30 25 C -0.681963 -1.509146 2.265894 0
M  V30 26 H -0.707591 -3.924672 0.833053 0
M  V30 27 H 0.891322 -4.761049 0.518992 0
M  V30 28 H 0.463123 -4.147173 2.142571 0
M  V30 29 H 3.345669 -4.328373 -0.435012 0
M  V30 30 H 0.507814 -4.380679 -1.848410 0
M  V30 31 H -0.144003 -3.788180 -4.201067 0
M  V30 32 H 1.272318 -2.305035 -5.509298 0
M  V30 33 H 3.306143 -1.354966 -4.656022 0
M  V30 34 H 1.860795 -0.098310 0.664048 0
M  V30 35 H 0.927263 1.930784 1.722818 0
M  V30 36 H -3.104249 1.108664 3.807431 0
M  V30 37 H -2.176273 1.781938 5.241283 0
M  V30 38 H -4.294317 2.967186 4.238836 0
M  V30 39 H -2.941913 3.941854 4.865660 0
M  V30 40 H -1.602048 4.287617 1.576132 0
M  V30 41 H -1.723502 5.280531 3.059314 0
M  V30 42 H -0.678345 3.750312 4.344429 0
M  V30 43 H 0.144279 3.456608 2.815922 0
M  V30 44 H -2.091049 -0.620534 3.462884 0
M  V30 45 H -1.101763 -2.518569 2.386881 0
M  V30 END ATOM
M  V30 BEGIN BOND
M  V30 1 1 1 2
M  V30 2 2 2 3
M  V30 3 1 3 4
M  V30 4 1 4 5
M  V30 5 2 5 6
M  V30 6 1 6 7
M  V30 7 2 7 8
M  V30 8 1 8 9
M  V30 9 2 9 10
M  V30 10 1 10 11
M  V30 11 2 11 12
M  V30 12 1 11 13
M  V30 13 1 2 14
M  V30 14 2 14 15
M  V30 15 1 15 16
M  V30 16 2 16 17
M  V30 17 1 17 18
M  V30 18 1 18 19
M  V30 19 1 19 20
M  V30 20 1 20 21
M  V30 21 1 21 22
M  V30 22 1 22 23
M  V30 23 1 17 24
M  V30 24 2 24 25
M  V30 25 1 10 5
M  V30 26 1 25 14
M  V30 27 1 23 18
M  V30 28 1 1 26
M  V30 29 1 1 27
M  V30 30 1 1 28
M  V30 31 1 4 29
M  V30 32 1 6 30
M  V30 33 1 7 31
M  V30 34 1 8 32
M  V30 35 1 9 33
M  V30 36 1 15 34
M  V30 37 1 16 35
M  V30 38 1 19 36
M  V30 39 1 19 37
M  V30 40 1 20 38
M  V30 41 1 20 39
M  V30 42 1 22 40
M  V30 43 1 22 41
M  V30 44 1 23 42
M  V30 45 1 23 43
M  V30 46 1 24 44
M  V30 47 1 25 45
M  V30 END BOND
M  V30 END CTAB
M  END
>  <Dataset>  (588) 
ChEMBL_Kinases

>  <Ligand_Instance>  (588) 
nan

>  <PDB_ID>  (588) 
nan

>  <Standardized_SMILES>  (588) 
C/C(=N\Nc1ccccc1[N+](=O)[O-])c1ccc(N2CCOCC2)cc1

>  <Name>  (588) 
nan

>  <Pocket>  (588) 
nan

>  <ATP_Site>  (588) 
nan

>  <Peripheral>  (588) 
nan

>  <Num_H_Atoms_ProtBoundConf>  (588) 
nan

>  <Num_Resolved_Atoms>  (588) 
nan

>  <Num_Not_Resolved_Atoms>  (588) 
nan

$$$$
CHEMBL318990
     RDKit          3D

  0  0  0  0  0  0  0  0  0  0999 V3000
M  V30 BEGIN CTAB
M  V30 COUNTS 45 48 0 0 0
M  V30 BEGIN ATOM
M  V30 1 O -2.261903 -1.941431 0.218879 0
M  V30 2 C -1.172466 -1.800572 -0.399367 0
M  V30 3 C -0.134082 -2.760325 -0.741087 0
M  V30 4 C -0.186227 -3.463322 -1.946069 0
M  V30 5 N 0.874625 -4.278723 -2.026657 0
M  V30 6 C 1.626329 -4.141280 -0.920133 0
M  V30 7 C 2.796108 -4.709730 -0.470993 0
M  V30 8 C 3.286454 -4.306223 0.761440 0
M  V30 9 C 2.681629 -3.362840 1.585878 0
M  V30 10 C 1.496265 -2.804019 1.102767 0
M  V30 11 C 1.014668 -3.203469 -0.112789 0
M  V30 12 N -0.959351 -0.460677 -0.817281 0
M  V30 13 C -1.873470 0.640112 -0.574372 0
M  V30 14 C -1.081032 1.864365 -0.092265 0
M  V30 15 N 0.178301 1.406746 0.350424 0
M  V30 16 C 0.823835 2.058817 1.409336 0
M  V30 17 C 0.021598 2.028975 2.645092 0
M  V30 18 C 0.203325 0.923427 3.481115 0
M  V30 19 C -0.451300 0.724226 4.673303 0
M  V30 20 C -1.356725 1.673469 5.091005 0
M  V30 21 C -1.564921 2.785287 4.288954 0
M  V30 22 C -0.891349 2.954613 3.098250 0
M  V30 23 C 1.017773 0.972096 -0.733684 0
M  V30 24 C 0.213278 -0.021528 -1.547838 0
M  V30 25 H -0.927557 -3.410231 -2.730430 0
M  V30 26 H 1.110787 -4.926120 -2.802563 0
M  V30 27 H 3.320690 -5.449050 -1.057689 0
M  V30 28 H 4.217463 -4.751003 1.131338 0
M  V30 29 H 3.135680 -3.108625 2.532797 0
M  V30 30 H 0.998063 -2.072566 1.707655 0
M  V30 31 H -2.417343 0.831981 -1.504208 0
M  V30 32 H -2.594827 0.377541 0.253200 0
M  V30 33 H -0.951344 2.477389 -1.033004 0
M  V30 34 H -1.663591 2.481214 0.584849 0
M  V30 35 H 1.097058 3.120593 1.221599 0
M  V30 36 H 1.795519 1.535320 1.588543 0
M  V30 37 H 0.901299 0.145281 3.205754 0
M  V30 38 H -0.272659 -0.147633 5.279054 0
M  V30 39 H -1.883593 1.539169 6.024229 0
M  V30 40 H -2.263918 3.531303 4.598188 0
M  V30 41 H -1.031452 3.811748 2.455835 0
M  V30 42 H 1.382461 1.806313 -1.368068 0
M  V30 43 H 1.899980 0.431872 -0.347616 0
M  V30 44 H -0.154087 0.502455 -2.458057 0
M  V30 45 H 0.828846 -0.877947 -1.885167 0
M  V30 END ATOM
M  V30 BEGIN BOND
M  V30 1 2 1 2
M  V30 2 1 2 3
M  V30 3 2 3 4
M  V30 4 1 4 5
M  V30 5 1 5 6
M  V30 6 2 6 7
M  V30 7 1 7 8
M  V30 8 2 8 9
M  V30 9 1 9 10
M  V30 10 2 10 11
M  V30 11 1 2 12
M  V30 12 1 12 13
M  V30 13 1 13 14
M  V30 14 1 14 15
M  V30 15 1 15 16
M  V30 16 1 16 17
M  V30 17 2 17 18
M  V30 18 1 18 19
M  V30 19 2 19 20
M  V30 20 1 20 21
M  V30 21 2 21 22
M  V30 22 1 15 23
M  V30 23 1 23 24
M  V30 24 1 11 3
M  V30 25 1 24 12
M  V30 26 1 11 6
M  V30 27 1 22 17
M  V30 28 1 4 25
M  V30 29 1 5 26
M  V30 30 1 7 27
M  V30 31 1 8 28
M  V30 32 1 9 29
M  V30 33 1 10 30
M  V30 34 1 13 31
M  V30 35 1 13 32
M  V30 36 1 14 33
M  V30 37 1 14 34
M  V30 38 1 16 35
M  V30 39 1 16 36
M  V30 40 1 18 37
M  V30 41 1 19 38
M  V30 42 1 20 39
M  V30 43 1 21 40
M  V30 44 1 22 41
M  V30 45 1 23 42
M  V30 46 1 23 43
M  V30 47 1 24 44
M  V30 48 1 24 45
M  V30 END BOND
M  V30 END CTAB
M  END
>  <Dataset>  (589) 
ChEMBL_Kinases

>  <Ligand_Instance>  (589) 
nan

>  <PDB_ID>  (589) 
nan

>  <Standardized_SMILES>  (589) 
O=C(c1c[nH]c2ccccc12)N1CCN(Cc2ccccc2)CC1

>  <Name>  (589) 
nan

>  <Pocket>  (589) 
nan

>  <ATP_Site>  (589) 
nan

>  <Peripheral>  (589) 
nan

>  <Num_H_Atoms_ProtBoundConf>  (589) 
nan

>  <Num_Resolved_Atoms>  (589) 
nan

>  <Num_Not_Resolved_Atoms>  (589) 
nan

$$$$
CHEMBL3189536
     RDKit          3D

  0  0  0  0  0  0  0  0  0  0999 V3000
M  V30 BEGIN CTAB
M  V30 COUNTS 35 37 0 0 0
M  V30 BEGIN ATOM
M  V30 1 C -1.439573 -2.584144 2.283612 0
M  V30 2 C -0.928510 -1.733720 1.237209 0
M  V30 3 N -0.335108 -2.578803 0.524044 0
M  V30 4 C 0.391716 -2.408527 -0.680232 0
M  V30 5 C 1.871231 -2.479459 -0.487094 0
M  V30 6 C 2.610609 -3.667820 -0.630578 0
M  V30 7 C 3.947050 -3.844172 -0.468111 0
M  V30 8 C 4.686636 -2.736207 -0.120277 0
M  V30 9 N 4.042013 -1.563119 0.034321 0
M  V30 10 C 2.715730 -1.451392 -0.140290 0
M  V30 11 C -0.986833 -0.347824 0.952420 0
M  V30 12 C -0.668249 0.642349 0.174285 0
M  V30 13 O 0.075067 0.481365 -0.967864 0
M  V30 14 C -1.123924 1.969917 0.540508 0
M  V30 15 C -0.989757 3.214378 -0.013290 0
M  V30 16 C -1.540376 4.319858 0.564763 0
M  V30 17 C -2.247124 4.203569 1.725502 0
M  V30 18 C -2.361543 2.937607 2.253633 0
M  V30 19 C -1.823491 1.772742 1.711880 0
M  V30 20 C -1.763838 0.346726 2.005117 0
M  V30 21 O -2.389453 0.056438 3.084699 0
M  V30 22 H -2.133524 -2.077397 3.022075 0
M  V30 23 H -2.082797 -3.449923 1.933240 0
M  V30 24 H -0.629339 -3.086474 2.900874 0
M  V30 25 H 0.208112 -3.476373 -1.185626 0
M  V30 26 H 0.027445 -1.791188 -1.471856 0
M  V30 27 H 2.069120 -4.585561 -0.907606 0
M  V30 28 H 4.434034 -4.781299 -0.595659 0
M  V30 29 H 5.753545 -2.744040 0.037738 0
M  V30 30 H 2.319795 -0.468161 0.019317 0
M  V30 31 H -0.345687 0.600316 -1.884070 0
M  V30 32 H -0.438187 3.313063 -0.921339 0
M  V30 33 H -1.412054 5.287089 0.095937 0
M  V30 34 H -2.706038 5.032542 2.232465 0
M  V30 35 H -2.912536 2.806191 3.169546 0
M  V30 END ATOM
M  V30 BEGIN BOND
M  V30 1 1 1 2
M  V30 2 2 2 3
M  V30 3 1 3 4
M  V30 4 1 4 5
M  V30 5 2 5 6
M  V30 6 1 6 7
M  V30 7 2 7 8
M  V30 8 1 8 9
M  V30 9 2 9 10
M  V30 10 1 2 11
M  V30 11 2 11 12
M  V30 12 1 12 13
M  V30 13 1 12 14
M  V30 14 2 14 15
M  V30 15 1 15 16
M  V30 16 2 16 17
M  V30 17 1 17 18
M  V30 18 2 18 19
M  V30 19 1 19 20
M  V30 20 2 20 21
M  V30 21 1 10 5
M  V30 22 1 20 11
M  V30 23 1 19 14
M  V30 24 1 1 22
M  V30 25 1 1 23
M  V30 26 1 1 24
M  V30 27 1 4 25
M  V30 28 1 4 26
M  V30 29 1 6 27
M  V30 30 1 7 28
M  V30 31 1 8 29
M  V30 32 1 10 30
M  V30 33 1 13 31
M  V30 34 1 15 32
M  V30 35 1 16 33
M  V30 36 1 17 34
M  V30 37 1 18 35
M  V30 END BOND
M  V30 END CTAB
M  END
>  <Dataset>  (590) 
ChEMBL_Kinases

>  <Ligand_Instance>  (590) 
nan

>  <PDB_ID>  (590) 
nan

>  <Standardized_SMILES>  (590) 
C/C(=N/Cc1cccnc1)C1=C(O)c2ccccc2C1=O

>  <Name>  (590) 
nan

>  <Pocket>  (590) 
nan

>  <ATP_Site>  (590) 
nan

>  <Peripheral>  (590) 
nan

>  <Num_H_Atoms_ProtBoundConf>  (590) 
nan

>  <Num_Resolved_Atoms>  (590) 
nan

>  <Num_Not_Resolved_Atoms>  (590) 
nan

$$$$
CHEMBL3189471
     RDKit          3D

  0  0  0  0  0  0  0  0  0  0999 V3000
M  V30 BEGIN CTAB
M  V30 COUNTS 42 44 0 0 0
M  V30 BEGIN ATOM
M  V30 1 C 0.332996 -6.152133 1.514937 0
M  V30 2 O 0.567148 -5.626309 2.798800 0
M  V30 3 C 0.533707 -4.252043 3.001733 0
M  V30 4 C 0.281159 -3.309601 2.019324 0
M  V30 5 C 0.275394 -1.973532 2.347262 0
M  V30 6 C 0.008000 -0.984241 1.304744 0
M  V30 7 N -0.222414 -1.305208 0.093472 0
M  V30 8 N -0.481946 -0.343642 -0.918042 0
M  V30 9 C 0.366845 0.683526 -1.082265 0
M  V30 10 C -0.087082 1.479734 -2.114326 0
M  V30 11 C 0.513521 2.702418 -2.643206 0
M  V30 12 C -0.120682 3.339693 -3.689632 0
M  V30 13 C 0.442348 4.505354 -4.201682 0
M  V30 14 C 1.615121 4.950408 -3.617855 0
M  V30 15 C 2.278274 4.335581 -2.566557 0
M  V30 16 C 1.683269 3.184189 -2.092395 0
M  V30 17 N -1.220505 0.904272 -2.557673 0
M  V30 18 C -1.480635 -0.212444 -1.839910 0
M  V30 19 S -2.811475 -1.407506 -1.928237 0
M  V30 20 C 0.515333 -1.538811 3.635127 0
M  V30 21 C 0.772691 -2.433615 4.653730 0
M  V30 22 O 1.022237 -2.068016 5.970106 0
M  V30 23 C 1.013664 -0.693382 6.294587 0
M  V30 24 C 0.768206 -3.769431 4.275798 0
M  V30 25 O 1.027531 -4.690297 5.297057 0
M  V30 26 H 0.099768 -7.236604 1.571936 0
M  V30 27 H 1.206264 -6.079380 0.829598 0
M  V30 28 H -0.506858 -5.622219 1.058857 0
M  V30 29 H 0.095883 -3.670936 1.018027 0
M  V30 30 H -0.003348 0.073635 1.531444 0
M  V30 31 H 1.281941 0.921662 -0.535822 0
M  V30 32 H -1.036826 3.003406 -4.155166 0
M  V30 33 H 0.014718 5.075841 -5.024443 0
M  V30 34 H 2.087078 5.866554 -3.996322 0
M  V30 35 H 3.182694 4.721352 -2.151733 0
M  V30 36 H 2.124437 2.628175 -1.270669 0
M  V30 37 H -2.366217 -2.715708 -2.061425 0
M  V30 38 H 0.505488 -0.482308 3.868651 0
M  V30 39 H 2.004711 -0.265624 5.990830 0
M  V30 40 H 0.932842 -0.528082 7.397254 0
M  V30 41 H 0.171106 -0.129474 5.850749 0
M  V30 42 H 0.478503 -4.677800 6.155054 0
M  V30 END ATOM
M  V30 BEGIN BOND
M  V30 1 1 1 2
M  V30 2 1 2 3
M  V30 3 2 3 4
M  V30 4 1 4 5
M  V30 5 1 5 6
M  V30 6 2 6 7
M  V30 7 1 7 8
M  V30 8 1 8 9
M  V30 9 2 9 10
M  V30 10 1 10 11
M  V30 11 2 11 12
M  V30 12 1 12 13
M  V30 13 2 13 14
M  V30 14 1 14 15
M  V30 15 2 15 16
M  V30 16 1 10 17
M  V30 17 2 17 18
M  V30 18 1 18 19
M  V30 19 2 5 20
M  V30 20 1 20 21
M  V30 21 1 21 22
M  V30 22 1 22 23
M  V30 23 2 21 24
M  V30 24 1 24 25
M  V30 25 1 24 3
M  V30 26 1 18 8
M  V30 27 1 16 11
M  V30 28 1 1 26
M  V30 29 1 1 27
M  V30 30 1 1 28
M  V30 31 1 4 29
M  V30 32 1 6 30
M  V30 33 1 9 31
M  V30 34 1 12 32
M  V30 35 1 13 33
M  V30 36 1 14 34
M  V30 37 1 15 35
M  V30 38 1 16 36
M  V30 39 1 19 37
M  V30 40 1 20 38
M  V30 41 1 23 39
M  V30 42 1 23 40
M  V30 43 1 23 41
M  V30 44 1 25 42
M  V30 END BOND
M  V30 END CTAB
M  END
>  <Dataset>  (591) 
ChEMBL_Kinases

>  <Ligand_Instance>  (591) 
nan

>  <PDB_ID>  (591) 
nan

>  <Standardized_SMILES>  (591) 
COc1cc(/C=N/n2cc(-c3ccccc3)nc2S)cc(OC)c1O

>  <Name>  (591) 
nan

>  <Pocket>  (591) 
nan

>  <ATP_Site>  (591) 
nan

>  <Peripheral>  (591) 
nan

>  <Num_H_Atoms_ProtBoundConf>  (591) 
nan

>  <Num_Resolved_Atoms>  (591) 
nan

>  <Num_Not_Resolved_Atoms>  (591) 
nan

$$$$
CHEMBL318934
     RDKit          3D

  0  0  0  0  0  0  0  0  0  0999 V3000
M  V30 BEGIN CTAB
M  V30 COUNTS 67 72 0 0 0
M  V30 BEGIN ATOM
M  V30 1 C 3.938273 -1.580354 3.850475 0
M  V30 2 C 3.032055 -2.525469 3.101864 0
M  V30 3 C 3.190285 -3.894562 3.627230 0
M  V30 4 C 2.871643 -4.121280 5.135978 0
M  V30 5 C 4.277187 -4.142292 4.643218 0
M  V30 6 N 3.169406 -2.338693 1.719861 0
M  V30 7 C 2.404604 -3.171242 0.850682 0
M  V30 8 C 1.529653 -2.343931 -0.057578 0
M  V30 9 C 0.946768 -1.207151 0.750711 0
M  V30 10 C -0.094129 -0.466383 -0.046215 0
M  V30 11 C 0.276487 0.157168 -1.228413 0
M  V30 12 C -0.649018 0.860926 -2.008061 0
M  V30 13 C -0.213563 1.501889 -3.245374 0
M  V30 14 C 0.243819 2.819195 -3.169432 0
M  V30 15 C 0.682447 3.518881 -4.297234 0
M  V30 16 C 0.641746 2.841358 -5.496561 0
M  V30 17 F 1.054786 3.471804 -6.621297 0
M  V30 18 C 0.197786 1.540704 -5.616434 0
M  V30 19 C -0.221847 0.894824 -4.487547 0
M  V30 20 Cl -0.795140 -0.752333 -4.578773 0
M  V30 21 C -1.953820 0.918056 -1.563518 0
M  V30 22 C -2.358892 0.310306 -0.392818 0
M  V30 23 C -1.414981 -0.377088 0.351903 0
M  V30 24 N -3.692707 0.348605 0.099165 0
M  V30 25 C -4.112068 -0.277780 1.304781 0
M  V30 26 C -4.139993 0.236493 2.598761 0
M  V30 27 Cl -3.575948 1.871911 2.717746 0
M  V30 28 C -4.589465 -0.554065 3.625917 0
M  V30 29 C -5.019501 -1.859917 3.409091 0
M  V30 30 C -4.999154 -2.385812 2.135656 0
M  V30 31 C -4.546612 -1.591432 1.098188 0
M  V30 32 Cl -4.571417 -2.377409 -0.472443 0
M  V30 33 C -4.709293 1.055341 -0.641985 0
M  V30 34 O -5.915700 1.154940 -0.304094 0
M  V30 35 N -4.255712 1.669423 -1.842513 0
M  V30 36 C -2.918368 1.666403 -2.400422 0
M  V30 37 C 2.004655 -0.263643 1.212946 0
M  V30 38 C 3.324281 -1.006675 1.239944 0
M  V30 39 H 4.989326 -1.632302 3.575060 0
M  V30 40 H 3.832848 -1.684508 4.953508 0
M  V30 41 H 3.641721 -0.502338 3.668626 0
M  V30 42 H 1.986365 -2.196693 3.383841 0
M  V30 43 H 2.935443 -4.790880 3.031446 0
M  V30 44 H 2.533255 -3.185535 5.663352 0
M  V30 45 H 2.330753 -5.018900 5.424859 0
M  V30 46 H 4.935765 -3.358566 5.007347 0
M  V30 47 H 4.745869 -5.160750 4.681747 0
M  V30 48 H 3.147202 -3.698162 0.183336 0
M  V30 49 H 1.876368 -3.954771 1.380373 0
M  V30 50 H 2.076268 -1.890622 -0.905510 0
M  V30 51 H 0.708617 -2.940743 -0.505683 0
M  V30 52 H 0.440407 -1.617993 1.647560 0
M  V30 53 H 1.298247 0.129296 -1.603659 0
M  V30 54 H 0.256911 3.312349 -2.196334 0
M  V30 55 H 1.028333 4.543146 -4.182542 0
M  V30 56 H 0.172489 1.020337 -6.572888 0
M  V30 57 H -1.693824 -0.876325 1.290851 0
M  V30 58 H -4.562733 -0.038216 4.592532 0
M  V30 59 H -5.355163 -2.407477 4.270285 0
M  V30 60 H -5.342539 -3.399336 2.022611 0
M  V30 61 H -4.946927 2.199104 -2.421695 0
M  V30 62 H -2.649189 2.731441 -2.541867 0
M  V30 63 H -3.016669 1.239457 -3.430348 0
M  V30 64 H 2.048437 0.624135 0.544154 0
M  V30 65 H 1.784539 0.036458 2.268016 0
M  V30 66 H 3.624985 -1.094873 0.152631 0
M  V30 67 H 4.145106 -0.487665 1.719760 0
M  V30 END ATOM
M  V30 BEGIN BOND
M  V30 1 1 1 2
M  V30 2 1 2 3
M  V30 3 1 3 4
M  V30 4 1 4 5
M  V30 5 1 2 6
M  V30 6 1 6 7
M  V30 7 1 7 8
M  V30 8 1 8 9
M  V30 9 1 9 10
M  V30 10 2 10 11
M  V30 11 1 11 12
M  V30 12 1 12 13
M  V30 13 2 13 14
M  V30 14 1 14 15
M  V30 15 2 15 16
M  V30 16 1 16 17
M  V30 17 1 16 18
M  V30 18 2 18 19
M  V30 19 1 19 20
M  V30 20 2 12 21
M  V30 21 1 21 22
M  V30 22 2 22 23
M  V30 23 1 22 24
M  V30 24 1 24 25
M  V30 25 2 25 26
M  V30 26 1 26 27
M  V30 27 1 26 28
M  V30 28 2 28 29
M  V30 29 1 29 30
M  V30 30 2 30 31
M  V30 31 1 31 32
M  V30 32 1 24 33
M  V30 33 2 33 34
M  V30 34 1 33 35
M  V30 35 1 35 36
M  V30 36 1 9 37
M  V30 37 1 37 38
M  V30 38 1 5 3
M  V30 39 1 38 6
M  V30 40 1 23 10
M  V30 41 1 31 25
M  V30 42 1 19 13
M  V30 43 1 36 21
M  V30 44 1 1 39
M  V30 45 1 1 40
M  V30 46 1 1 41
M  V30 47 1 2 42
M  V30 48 1 3 43
M  V30 49 1 4 44
M  V30 50 1 4 45
M  V30 51 1 5 46
M  V30 52 1 5 47
M  V30 53 1 7 48
M  V30 54 1 7 49
M  V30 55 1 8 50
M  V30 56 1 8 51
M  V30 57 1 9 52
M  V30 58 1 11 53
M  V30 59 1 14 54
M  V30 60 1 15 55
M  V30 61 1 18 56
M  V30 62 1 23 57
M  V30 63 1 28 58
M  V30 64 1 29 59
M  V30 65 1 30 60
M  V30 66 1 35 61
M  V30 67 1 36 62
M  V30 68 1 36 63
M  V30 69 1 37 64
M  V30 70 1 37 65
M  V30 71 1 38 66
M  V30 72 1 38 67
M  V30 END BOND
M  V30 END CTAB
M  END
>  <Dataset>  (592) 
ChEMBL_Kinases

>  <Ligand_Instance>  (592) 
nan

>  <PDB_ID>  (592) 
nan

>  <Standardized_SMILES>  (592) 
CC(C1CC1)N1CCC(c2cc(-c3ccc(F)cc3Cl)c3c(c2)N(c2c(Cl)cccc2Cl)C(=O)NC3)CC1

>  <Name>  (592) 
nan

>  <Pocket>  (592) 
nan

>  <ATP_Site>  (592) 
nan

>  <Peripheral>  (592) 
nan

>  <Num_H_Atoms_ProtBoundConf>  (592) 
nan

>  <Num_Resolved_Atoms>  (592) 
nan

>  <Num_Not_Resolved_Atoms>  (592) 
nan

$$$$
CHEMBL3144951
     RDKit          3D

  0  0  0  0  0  0  0  0  0  0999 V3000
M  V30 BEGIN CTAB
M  V30 COUNTS 38 40 0 0 0
M  V30 BEGIN ATOM
M  V30 1 C -0.759739 -3.610671 1.727996 0
M  V30 2 C 0.585464 -3.478340 1.129137 0
M  V30 3 C 1.645049 -4.107253 1.743159 0
M  V30 4 C 2.898578 -3.960604 1.150570 0
M  V30 5 C 3.055963 -3.205988 -0.014073 0
M  V30 6 C 1.956655 -2.580890 -0.610548 0
M  V30 7 N 2.296086 -1.856879 -1.784413 0
M  V30 8 N 1.843139 -0.715007 -2.088684 0
M  V30 9 C 0.919285 0.004595 -1.281043 0
M  V30 10 C -0.339578 0.430659 -1.693946 0
M  V30 11 C -0.910783 0.198177 -3.043475 0
M  V30 12 N -0.924620 1.071919 -0.676036 0
M  V30 13 N -0.131759 1.094410 0.377824 0
M  V30 14 C -0.446092 1.697228 1.629643 0
M  V30 15 C -0.750127 3.037689 1.490342 0
M  V30 16 C -1.082997 3.782456 2.626312 0
M  V30 17 C -1.122807 3.229207 3.907154 0
M  V30 18 C -0.809491 1.887703 3.979622 0
M  V30 19 C -0.477033 1.122398 2.883309 0
M  V30 20 C 1.001864 0.445118 0.024686 0
M  V30 21 O 2.002686 0.256694 0.763196 0
M  V30 22 C 0.719296 -2.728263 -0.021730 0
M  V30 23 H -1.516283 -3.022962 1.169652 0
M  V30 24 H -0.796286 -3.268963 2.782290 0
M  V30 25 H -1.122063 -4.678274 1.703068 0
M  V30 26 H 1.529546 -4.692477 2.644424 0
M  V30 27 H 3.747163 -4.457223 1.631870 0
M  V30 28 H 4.085884 -3.167668 -0.379271 0
M  V30 29 H -0.680320 -0.834201 -3.359121 0
M  V30 30 H -0.453331 0.894682 -3.790813 0
M  V30 31 H -2.008153 0.345850 -3.040515 0
M  V30 32 H -1.871358 1.496538 -0.702181 0
M  V30 33 H -0.764018 3.618139 0.558457 0
M  V30 34 H -1.335354 4.853836 2.584196 0
M  V30 35 H -1.381013 3.817469 4.769544 0
M  V30 36 H -0.821514 1.396754 4.943705 0
M  V30 37 H -0.226497 0.080391 2.886561 0
M  V30 38 H -0.080721 -2.217382 -0.538689 0
M  V30 END ATOM
M  V30 BEGIN BOND
M  V30 1 1 1 2
M  V30 2 2 2 3
M  V30 3 1 3 4
M  V30 4 2 4 5
M  V30 5 1 5 6
M  V30 6 1 6 7
M  V30 7 2 7 8 CFG=2
M  V30 8 1 8 9
M  V30 9 2 9 10
M  V30 10 1 10 11
M  V30 11 1 10 12
M  V30 12 1 12 13
M  V30 13 1 13 14
M  V30 14 2 14 15
M  V30 15 1 15 16
M  V30 16 2 16 17
M  V30 17 1 17 18
M  V30 18 2 18 19
M  V30 19 1 13 20
M  V30 20 2 20 21
M  V30 21 2 6 22
M  V30 22 1 22 2
M  V30 23 1 20 9
M  V30 24 1 19 14
M  V30 25 1 1 23
M  V30 26 1 1 24
M  V30 27 1 1 25
M  V30 28 1 3 26
M  V30 29 1 4 27
M  V30 30 1 5 28
M  V30 31 1 11 29
M  V30 32 1 11 30
M  V30 33 1 11 31
M  V30 34 1 12 32
M  V30 35 1 15 33
M  V30 36 1 16 34
M  V30 37 1 17 35
M  V30 38 1 18 36
M  V30 39 1 19 37
M  V30 40 1 22 38
M  V30 END BOND
M  V30 END CTAB
M  END
>  <Dataset>  (593) 
ChEMBL_Kinases

>  <Ligand_Instance>  (593) 
nan

>  <PDB_ID>  (593) 
nan

>  <Standardized_SMILES>  (593) 
Cc1cccc(N=Nc2c(C)[nH]n(-c3ccccc3)c2=O)c1

>  <Name>  (593) 
nan

>  <Pocket>  (593) 
nan

>  <ATP_Site>  (593) 
nan

>  <Peripheral>  (593) 
nan

>  <Num_H_Atoms_ProtBoundConf>  (593) 
nan

>  <Num_Resolved_Atoms>  (593) 
nan

>  <Num_Not_Resolved_Atoms>  (593) 
nan

$$$$
CHEMBL3145081
     RDKit          3D

  0  0  0  0  0  0  0  0  0  0999 V3000
M  V30 BEGIN CTAB
M  V30 COUNTS 38 40 0 0 0
M  V30 BEGIN ATOM
M  V30 1 C -0.337043 -4.389708 -0.331150 0
M  V30 2 C 1.143894 -4.342907 -0.212204 0
M  V30 3 C 1.943594 -5.461189 -0.324751 0
M  V30 4 C 3.331358 -5.392220 -0.209409 0
M  V30 5 C 3.955207 -4.168931 0.026749 0
M  V30 6 C 3.145093 -3.058041 0.137368 0
M  V30 7 C 1.757905 -3.130071 0.021597 0
M  V30 8 N 1.072820 -1.914156 0.157878 0
M  V30 9 N 0.671012 -1.153789 -0.747530 0
M  V30 10 C -0.009892 0.040965 -0.325308 0
M  V30 11 C -0.818558 0.873537 -1.070257 0
M  V30 12 C -1.162321 0.704514 -2.498510 0
M  V30 13 N -1.255250 1.879620 -0.289681 0
M  V30 14 N -0.764985 1.736321 0.930270 0
M  V30 15 C -0.899812 2.496370 2.126593 0
M  V30 16 C 0.026034 3.447695 2.537906 0
M  V30 17 C -0.163313 4.157636 3.718282 0
M  V30 18 C -1.277662 3.923569 4.496731 0
M  V30 19 C -2.195595 2.964462 4.066682 0
M  V30 20 C -2.023883 2.250709 2.898477 0
M  V30 21 C -0.000498 0.625375 0.946127 0
M  V30 22 O 0.657374 0.103978 1.883598 0
M  V30 23 H -0.574569 -4.308233 -1.406049 0
M  V30 24 H -0.716176 -5.321242 0.130373 0
M  V30 25 H -0.759823 -3.513057 0.188276 0
M  V30 26 H 1.465869 -6.431700 -0.510807 0
M  V30 27 H 3.959930 -6.269193 -0.297560 0
M  V30 28 H 5.019080 -4.103105 0.117181 0
M  V30 29 H 3.650978 -2.111744 0.321812 0
M  V30 30 H -1.511699 -0.326069 -2.676601 0
M  V30 31 H -1.974595 1.388250 -2.797340 0
M  V30 32 H -0.236897 0.933692 -3.097486 0
M  V30 33 H -1.885953 2.692848 -0.522328 0
M  V30 34 H 0.904085 3.624455 1.913805 0
M  V30 35 H 0.571787 4.909121 4.039493 0
M  V30 36 H -1.425161 4.485650 5.428868 0
M  V30 37 H -3.056371 2.811893 4.707468 0
M  V30 38 H -2.751244 1.523560 2.603617 0
M  V30 END ATOM
M  V30 BEGIN BOND
M  V30 1 1 1 2
M  V30 2 2 2 3
M  V30 3 1 3 4
M  V30 4 2 4 5
M  V30 5 1 5 6
M  V30 6 2 6 7
M  V30 7 1 7 8
M  V30 8 2 8 9 CFG=2
M  V30 9 1 9 10
M  V30 10 2 10 11
M  V30 11 1 11 12
M  V30 12 1 11 13
M  V30 13 1 13 14
M  V30 14 1 14 15
M  V30 15 2 15 16
M  V30 16 1 16 17
M  V30 17 2 17 18
M  V30 18 1 18 19
M  V30 19 2 19 20
M  V30 20 1 14 21
M  V30 21 2 21 22
M  V30 22 1 7 2
M  V30 23 1 21 10
M  V30 24 1 20 15
M  V30 25 1 1 23
M  V30 26 1 1 24
M  V30 27 1 1 25
M  V30 28 1 3 26
M  V30 29 1 4 27
M  V30 30 1 5 28
M  V30 31 1 6 29
M  V30 32 1 12 30
M  V30 33 1 12 31
M  V30 34 1 12 32
M  V30 35 1 13 33
M  V30 36 1 16 34
M  V30 37 1 17 35
M  V30 38 1 18 36
M  V30 39 1 19 37
M  V30 40 1 20 38
M  V30 END BOND
M  V30 END CTAB
M  END
>  <Dataset>  (594) 
ChEMBL_Kinases

>  <Ligand_Instance>  (594) 
nan

>  <PDB_ID>  (594) 
nan

>  <Standardized_SMILES>  (594) 
Cc1ccccc1N=Nc1c(C)[nH]n(-c2ccccc2)c1=O

>  <Name>  (594) 
nan

>  <Pocket>  (594) 
nan

>  <ATP_Site>  (594) 
nan

>  <Peripheral>  (594) 
nan

>  <Num_H_Atoms_ProtBoundConf>  (594) 
nan

>  <Num_Resolved_Atoms>  (594) 
nan

>  <Num_Not_Resolved_Atoms>  (594) 
nan

$$$$
CHEMBL3145199
     RDKit          3D

  0  0  0  0  0  0  0  0  0  0999 V3000
M  V30 BEGIN CTAB
M  V30 COUNTS 38 41 0 0 0
M  V30 BEGIN ATOM
M  V30 1 C 0.933102 2.191743 -0.395504 0
M  V30 2 C 0.067936 1.116604 -0.951683 0
M  V30 3 N -1.179625 0.829144 -0.536383 0
M  V30 4 N -1.632812 -0.184493 -1.261935 0
M  V30 5 C -2.954897 -0.704074 -1.028990 0
M  V30 6 C -3.963792 0.190988 -1.379995 0
M  V30 7 C -5.298542 -0.144220 -1.222337 0
M  V30 8 C -5.613915 -1.387141 -0.708655 0
M  V30 9 C -4.622124 -2.261381 -0.365915 0
M  V30 10 C -3.295423 -1.956366 -0.511089 0
M  V30 11 C -0.700466 -0.589113 -2.169401 0
M  V30 12 O -0.862604 -1.531748 -2.988041 0
M  V30 13 C 0.384016 0.241296 -1.970834 0
M  V30 14 N 1.591940 0.165584 -2.714218 0
M  V30 15 N 2.562236 -0.590727 -2.355203 0
M  V30 16 C 2.436678 -1.388401 -1.170481 0
M  V30 17 C 1.863249 -2.643955 -1.088106 0
M  V30 18 C 1.830170 -3.268006 0.147765 0
M  V30 19 C 2.357753 -2.645532 1.260856 0
M  V30 20 C 2.942369 -1.376093 1.200541 0
M  V30 21 C 2.967719 -0.763266 -0.046936 0
M  V30 22 O 3.357174 -1.073317 2.492228 0
M  V30 23 C 2.499854 -1.832568 3.358439 0
M  V30 24 O 2.449669 -3.051650 2.603194 0
M  V30 25 H 0.523878 3.196863 -0.608094 0
M  V30 26 H 1.980917 2.076327 -0.660382 0
M  V30 27 H 0.895510 2.099903 0.727351 0
M  V30 28 H -1.664387 1.344461 0.229388 0
M  V30 29 H -3.770964 1.176598 -1.786442 0
M  V30 30 H -6.120102 0.509702 -1.477494 0
M  V30 31 H -6.646525 -1.668938 -0.577485 0
M  V30 32 H -4.804966 -3.259473 0.045499 0
M  V30 33 H -2.425035 -2.564098 -0.275603 0
M  V30 34 H 1.477477 -3.048014 -2.016028 0
M  V30 35 H 1.378221 -4.250554 0.197043 0
M  V30 36 H 3.430488 0.224829 -0.057305 0
M  V30 37 H 2.902143 -1.957925 4.361964 0
M  V30 38 H 1.481565 -1.381683 3.305544 0
M  V30 END ATOM
M  V30 BEGIN BOND
M  V30 1 1 1 2
M  V30 2 1 2 3
M  V30 3 1 3 4
M  V30 4 1 4 5
M  V30 5 2 5 6
M  V30 6 1 6 7
M  V30 7 2 7 8
M  V30 8 1 8 9
M  V30 9 2 9 10
M  V30 10 1 4 11
M  V30 11 2 11 12
M  V30 12 1 11 13
M  V30 13 1 13 14
M  V30 14 2 14 15 CFG=2
M  V30 15 1 15 16
M  V30 16 2 16 17
M  V30 17 1 17 18
M  V30 18 2 18 19
M  V30 19 1 19 20
M  V30 20 2 20 21
M  V30 21 1 20 22
M  V30 22 1 22 23
M  V30 23 1 23 24
M  V30 24 2 13 2
M  V30 25 1 21 16
M  V30 26 1 10 5
M  V30 27 1 24 19
M  V30 28 1 1 25
M  V30 29 1 1 26
M  V30 30 1 1 27
M  V30 31 1 3 28
M  V30 32 1 6 29
M  V30 33 1 7 30
M  V30 34 1 8 31
M  V30 35 1 9 32
M  V30 36 1 10 33
M  V30 37 1 17 34
M  V30 38 1 18 35
M  V30 39 1 21 36
M  V30 40 1 23 37
M  V30 41 1 23 38
M  V30 END BOND
M  V30 END CTAB
M  END
>  <Dataset>  (595) 
ChEMBL_Kinases

>  <Ligand_Instance>  (595) 
nan

>  <PDB_ID>  (595) 
nan

>  <Standardized_SMILES>  (595) 
Cc1[nH]n(-c2ccccc2)c(=O)c1N=Nc1ccc2c(c1)OCO2

>  <Name>  (595) 
nan

>  <Pocket>  (595) 
nan

>  <ATP_Site>  (595) 
nan

>  <Peripheral>  (595) 
nan

>  <Num_H_Atoms_ProtBoundConf>  (595) 
nan

>  <Num_Resolved_Atoms>  (595) 
nan

>  <Num_Not_Resolved_Atoms>  (595) 
nan

$$$$
CHEMBL3145378
     RDKit          3D

  0  0  0  0  0  0  0  0  0  0999 V3000
M  V30 BEGIN CTAB
M  V30 COUNTS 43 45 0 0 0
M  V30 BEGIN ATOM
M  V30 1 C 0.810514 -1.445578 -2.302281 0
M  V30 2 C 2.221700 -1.106506 -2.046071 0
M  V30 3 C 3.015467 -0.781366 -3.118220 0
M  V30 4 C 4.348414 -0.457012 -2.913102 0
M  V30 5 C 4.846314 -0.469394 -1.628156 0
M  V30 6 N 6.207031 -0.142330 -1.382118 0 CHG=1 VAL=4
M  V30 7 O 6.955579 0.157745 -2.334446 0
M  V30 8 O 6.693102 -0.157782 -0.096833 0 CHG=-1 VAL=1
M  V30 9 C 4.013638 -0.802012 -0.579989 0
M  V30 10 C 2.664993 -1.134966 -0.744264 0
M  V30 11 N 1.869198 -1.463208 0.350912 0
M  V30 12 N 0.925767 -0.892244 0.896048 0
M  V30 13 C 0.188731 -1.336896 2.020680 0
M  V30 14 C -0.924142 -0.756467 2.549987 0
M  V30 15 C -1.644607 0.437782 2.128718 0
M  V30 16 C -1.305736 1.221481 1.071443 0
M  V30 17 C -2.052290 2.338339 0.747499 0
M  V30 18 C -3.167530 2.724288 1.460254 0
M  V30 19 N -3.911053 3.880035 1.097152 0 CHG=1 VAL=4
M  V30 20 O -4.911414 4.191426 1.768978 0
M  V30 21 O -3.516967 4.645652 0.003662 0 CHG=-1 VAL=1
M  V30 22 C -3.537973 1.947369 2.541578 0
M  V30 23 C -2.771898 0.840393 2.837521 0
M  V30 24 N -1.245423 -1.545228 3.595432 0
M  V30 25 N -0.389003 -2.545465 3.704797 0
M  V30 26 C -0.432268 -3.569854 4.702586 0
M  V30 27 N -0.731307 -4.890246 4.218899 0
M  V30 28 S -0.167716 -3.311822 6.296538 0
M  V30 29 C 0.543512 -2.467086 2.734152 0
M  V30 30 O 1.525801 -3.229744 2.500633 0
M  V30 31 H 0.102541 -1.143703 -1.520732 0
M  V30 32 H 0.463825 -0.917978 -3.228497 0
M  V30 33 H 0.726488 -2.539081 -2.524929 0
M  V30 34 H 2.631821 -0.769937 -4.125434 0
M  V30 35 H 5.046279 -0.188957 -3.694551 0
M  V30 36 H 4.447279 -0.798257 0.407509 0
M  V30 37 H -0.460652 0.981730 0.482172 0
M  V30 38 H -1.792819 2.977724 -0.098729 0
M  V30 39 H -4.401132 2.222552 3.115170 0
M  V30 40 H -3.102392 0.256636 3.700188 0
M  V30 41 H -2.054817 -1.420252 4.257773 0
M  V30 42 H -0.131006 -5.509883 3.610029 0
M  V30 43 H -1.620882 -5.409281 4.426833 0
M  V30 END ATOM
M  V30 BEGIN BOND
M  V30 1 1 1 2
M  V30 2 2 2 3
M  V30 3 1 3 4
M  V30 4 2 4 5
M  V30 5 1 5 6
M  V30 6 2 6 7
M  V30 7 1 6 8
M  V30 8 1 5 9
M  V30 9 2 9 10
M  V30 10 1 10 11
M  V30 11 2 11 12
M  V30 12 1 12 13
M  V30 13 2 13 14
M  V30 14 1 14 15
M  V30 15 2 15 16
M  V30 16 1 16 17
M  V30 17 2 17 18
M  V30 18 1 18 19
M  V30 19 2 19 20
M  V30 20 1 19 21
M  V30 21 1 18 22
M  V30 22 2 22 23
M  V30 23 1 14 24
M  V30 24 1 24 25
M  V30 25 1 25 26
M  V30 26 1 26 27
M  V30 27 2 26 28
M  V30 28 1 25 29
M  V30 29 2 29 30
M  V30 30 1 10 2
M  V30 31 1 29 13
M  V30 32 1 23 15
M  V30 33 1 1 31
M  V30 34 1 1 32
M  V30 35 1 1 33
M  V30 36 1 3 34
M  V30 37 1 4 35
M  V30 38 1 9 36
M  V30 39 1 16 37
M  V30 40 1 17 38
M  V30 41 1 22 39
M  V30 42 1 23 40
M  V30 43 1 24 41
M  V30 44 1 27 42
M  V30 45 1 27 43
M  V30 END BOND
M  V30 END CTAB
M  END
>  <Dataset>  (596) 
ChEMBL_Kinases

>  <Ligand_Instance>  (596) 
nan

>  <PDB_ID>  (596) 
nan

>  <Standardized_SMILES>  (596) 
Cc1ccc([N+](=O)[O-])cc1/N=N/c1c(-c2ccc([N+](=O)[O-])cc2)[nH]n(C(N)=S)c1=O

>  <Name>  (596) 
nan

>  <Pocket>  (596) 
nan

>  <ATP_Site>  (596) 
nan

>  <Peripheral>  (596) 
nan

>  <Num_H_Atoms_ProtBoundConf>  (596) 
nan

>  <Num_Resolved_Atoms>  (596) 
nan

>  <Num_Not_Resolved_Atoms>  (596) 
nan

$$$$
CHEMBL315100
     RDKit          3D

  0  0  0  0  0  0  0  0  0  0999 V3000
M  V30 BEGIN CTAB
M  V30 COUNTS 50 52 0 0 0
M  V30 BEGIN ATOM
M  V30 1 C 1.980365 -6.168187 1.958874 0
M  V30 2 C 1.906173 -4.711011 1.636125 0
M  V30 3 C 1.504781 -3.799115 2.587243 0
M  V30 4 C 1.435043 -2.449259 2.291541 0
M  V30 5 C 1.760021 -1.971219 1.050908 0
M  V30 6 N 1.722358 -0.613834 0.648101 0
M  V30 7 N 2.496512 -0.001797 -0.229821 0
M  V30 8 C 2.136733 1.302931 -0.332212 0
M  V30 9 C 2.712207 2.392242 -1.188556 0
M  V30 10 C 1.990262 2.434291 -2.533533 0
M  V30 11 C 4.167930 2.166266 -1.411756 0
M  V30 12 C 2.507523 3.693042 -0.473194 0
M  V30 13 C 1.082164 1.456013 0.546776 0
M  V30 14 C 0.824483 0.246884 1.161905 0
M  V30 15 N -0.221673 0.124796 2.121870 0
M  V30 16 C -1.533643 -0.232260 1.638006 0
M  V30 17 O -1.687200 -0.418283 0.387730 0
M  V30 18 N -2.704506 -0.402243 2.436535 0
M  V30 19 C -3.927399 -0.757251 1.801819 0
M  V30 20 C -4.655474 0.373221 1.420518 0
M  V30 21 C -5.886939 0.246310 0.780762 0
M  V30 22 C -6.397871 -1.008227 0.518379 0
M  V30 23 C -5.666201 -2.113482 0.901485 0
M  V30 24 C -4.445318 -2.008189 1.535796 0
M  V30 25 C 2.166981 -2.865621 0.074931 0
M  V30 26 C 2.235390 -4.220368 0.376844 0
M  V30 27 H 2.109087 -6.746216 1.022834 0
M  V30 28 H 2.833106 -6.307880 2.660059 0
M  V30 29 H 1.076203 -6.552093 2.455462 0
M  V30 30 H 1.240772 -4.161318 3.585006 0
M  V30 31 H 1.120741 -1.729400 3.034051 0
M  V30 32 H 2.154216 1.502316 -3.094629 0
M  V30 33 H 2.328762 3.332075 -3.065451 0
M  V30 34 H 0.890590 2.554931 -2.323331 0
M  V30 35 H 4.425883 2.609884 -2.417248 0
M  V30 36 H 4.448278 1.098704 -1.502623 0
M  V30 37 H 4.773688 2.718410 -0.675655 0
M  V30 38 H 1.416252 3.959636 -0.520325 0
M  V30 39 H 2.740784 3.620912 0.602766 0
M  V30 40 H 3.114652 4.478967 -0.990020 0
M  V30 41 H 0.572463 2.402152 0.691510 0
M  V30 42 H -0.245106 0.245146 3.161988 0
M  V30 43 H -2.558494 -0.243426 3.475906 0
M  V30 44 H -4.365509 1.413797 1.568591 0
M  V30 45 H -6.479733 1.093687 0.470496 0
M  V30 46 H -7.353890 -1.115275 0.021740 0
M  V30 47 H -6.030662 -3.109342 0.714581 0
M  V30 48 H -3.810003 -2.806305 1.868040 0
M  V30 49 H 2.454035 -2.610988 -0.956089 0
M  V30 50 H 2.542706 -4.985462 -0.325473 0
M  V30 END ATOM
M  V30 BEGIN BOND
M  V30 1 1 1 2
M  V30 2 2 2 3
M  V30 3 1 3 4
M  V30 4 2 4 5
M  V30 5 1 5 6
M  V30 6 1 6 7
M  V30 7 2 7 8
M  V30 8 1 8 9
M  V30 9 1 9 10
M  V30 10 1 9 11
M  V30 11 1 9 12
M  V30 12 1 8 13
M  V30 13 2 13 14
M  V30 14 1 14 15
M  V30 15 1 15 16
M  V30 16 2 16 17
M  V30 17 1 16 18
M  V30 18 1 18 19
M  V30 19 2 19 20
M  V30 20 1 20 21
M  V30 21 2 21 22
M  V30 22 1 22 23
M  V30 23 2 23 24
M  V30 24 1 5 25
M  V30 25 2 25 26
M  V30 26 1 26 2
M  V30 27 1 14 6
M  V30 28 1 24 19
M  V30 29 1 1 27
M  V30 30 1 1 28
M  V30 31 1 1 29
M  V30 32 1 3 30
M  V30 33 1 4 31
M  V30 34 1 10 32
M  V30 35 1 10 33
M  V30 36 1 10 34
M  V30 37 1 11 35
M  V30 38 1 11 36
M  V30 39 1 11 37
M  V30 40 1 12 38
M  V30 41 1 12 39
M  V30 42 1 12 40
M  V30 43 1 13 41
M  V30 44 1 15 42
M  V30 45 1 18 43
M  V30 46 1 20 44
M  V30 47 1 21 45
M  V30 48 1 22 46
M  V30 49 1 23 47
M  V30 50 1 24 48
M  V30 51 1 25 49
M  V30 52 1 26 50
M  V30 END BOND
M  V30 END CTAB
M  END
>  <Dataset>  (597) 
ChEMBL_Kinases

>  <Ligand_Instance>  (597) 
nan

>  <PDB_ID>  (597) 
nan

>  <Standardized_SMILES>  (597) 
Cc1ccc(-n2nc(C(C)(C)C)cc2NC(=O)Nc2ccccc2)cc1

>  <Name>  (597) 
nan

>  <Pocket>  (597) 
nan

>  <ATP_Site>  (597) 
nan

>  <Peripheral>  (597) 
nan

>  <Num_H_Atoms_ProtBoundConf>  (597) 
nan

>  <Num_Resolved_Atoms>  (597) 
nan

>  <Num_Not_Resolved_Atoms>  (597) 
nan

$$$$
CHEMBL315837
     RDKit          3D

  0  0  0  0  0  0  0  0  0  0999 V3000
M  V30 BEGIN CTAB
M  V30 COUNTS 49 51 0 0 0
M  V30 BEGIN ATOM
M  V30 1 C -0.394636 -4.862393 0.154005 0
M  V30 2 C 0.834971 -4.491531 0.955392 0
M  V30 3 C 0.517699 -4.731533 2.416050 0
M  V30 4 N 1.190863 -3.098900 0.756576 0
M  V30 5 C 2.392899 -2.577086 0.456192 0
M  V30 6 N 2.334182 -1.240877 0.352150 0
M  V30 7 C 1.076921 -0.863319 0.585821 0
M  V30 8 C 0.507533 0.406660 0.590420 0
M  V30 9 N 1.201115 1.610777 0.356288 0
M  V30 10 C 2.561799 1.907239 0.115919 0
M  V30 11 C 3.524849 1.719545 1.225940 0
M  V30 12 C 3.102594 2.794872 2.202289 0
M  V30 13 C 2.577235 3.906432 1.304241 0
M  V30 14 C 2.753274 3.406322 -0.131090 0
M  V30 15 N -0.811746 0.399039 0.864563 0
M  V30 16 C -1.527498 -0.707147 1.112118 0
M  V30 17 N -2.876260 -0.434757 1.369325 0
M  V30 18 C -4.195400 -0.140077 0.960209 0
M  V30 19 C -4.884615 -1.088722 0.047185 0
M  V30 20 C -4.212449 -1.248367 -1.285550 0
M  V30 21 O -2.921374 -1.726928 -1.216587 0
M  V30 22 N -0.912136 -1.904824 1.092335 0
M  V30 23 C 0.399079 -2.034455 0.831593 0
M  V30 24 H -1.034293 -5.538552 0.749666 0
M  V30 25 H -0.959557 -3.946093 -0.131037 0
M  V30 26 H -0.076440 -5.351396 -0.811593 0
M  V30 27 H 1.671668 -5.154771 0.642455 0
M  V30 28 H 1.419376 -5.164316 2.901890 0
M  V30 29 H -0.343075 -5.442861 2.500401 0
M  V30 30 H 0.232537 -3.837141 2.973793 0
M  V30 31 H 3.310813 -3.152076 0.311655 0
M  V30 32 H 0.563039 2.468479 0.362794 0
M  V30 33 H 2.869488 1.373079 -0.825427 0
M  V30 34 H 4.527505 2.048033 0.830998 0
M  V30 35 H 3.663417 0.751271 1.660370 0
M  V30 36 H 2.315971 2.450731 2.908749 0
M  V30 37 H 3.994215 3.108291 2.772614 0
M  V30 38 H 1.473268 4.030779 1.438930 0
M  V30 39 H 3.114732 4.848501 1.492630 0
M  V30 40 H 1.986922 3.804122 -0.811302 0
M  V30 41 H 3.790163 3.563352 -0.420725 0
M  V30 42 H -2.727026 -0.513974 2.428503 0
M  V30 43 H -4.847649 -0.089167 1.889075 0
M  V30 44 H -4.288566 0.895528 0.514289 0
M  V30 45 H -5.054129 -2.096024 0.513309 0
M  V30 46 H -5.936379 -0.747023 -0.191644 0
M  V30 47 H -4.213063 -0.260566 -1.834080 0
M  V30 48 H -4.767461 -1.971188 -1.944953 0
M  V30 49 H -2.331476 -1.184439 -1.791145 0
M  V30 END ATOM
M  V30 BEGIN BOND
M  V30 1 1 1 2
M  V30 2 1 2 3
M  V30 3 1 2 4
M  V30 4 1 4 5
M  V30 5 2 5 6
M  V30 6 1 6 7
M  V30 7 2 7 8
M  V30 8 1 8 9
M  V30 9 1 9 10
M  V30 10 1 10 11
M  V30 11 1 11 12
M  V30 12 1 12 13
M  V30 13 1 13 14
M  V30 14 1 8 15
M  V30 15 2 15 16
M  V30 16 1 16 17
M  V30 17 1 17 18
M  V30 18 1 18 19
M  V30 19 1 19 20
M  V30 20 1 20 21
M  V30 21 1 16 22
M  V30 22 2 22 23
M  V30 23 1 23 4
M  V30 24 1 23 7
M  V30 25 1 14 10
M  V30 26 1 1 24
M  V30 27 1 1 25
M  V30 28 1 1 26
M  V30 29 1 2 27
M  V30 30 1 3 28
M  V30 31 1 3 29
M  V30 32 1 3 30
M  V30 33 1 5 31
M  V30 34 1 9 32
M  V30 35 1 10 33
M  V30 36 1 11 34
M  V30 37 1 11 35
M  V30 38 1 12 36
M  V30 39 1 12 37
M  V30 40 1 13 38
M  V30 41 1 13 39
M  V30 42 1 14 40
M  V30 43 1 14 41
M  V30 44 1 17 42
M  V30 45 1 18 43
M  V30 46 1 18 44
M  V30 47 1 19 45
M  V30 48 1 19 46
M  V30 49 1 20 47
M  V30 50 1 20 48
M  V30 51 1 21 49
M  V30 END BOND
M  V30 END CTAB
M  END
>  <Dataset>  (598) 
ChEMBL_Kinases

>  <Ligand_Instance>  (598) 
nan

>  <PDB_ID>  (598) 
nan

>  <Standardized_SMILES>  (598) 
CC(C)n1cnc2c(NC3CCCC3)nc(NCCCO)nc21

>  <Name>  (598) 
nan

>  <Pocket>  (598) 
nan

>  <ATP_Site>  (598) 
nan

>  <Peripheral>  (598) 
nan

>  <Num_H_Atoms_ProtBoundConf>  (598) 
nan

>  <Num_Resolved_Atoms>  (598) 
nan

>  <Num_Not_Resolved_Atoms>  (598) 
nan

$$$$
CHEMBL316337
     RDKit          3D

  0  0  0  0  0  0  0  0  0  0999 V3000
M  V30 BEGIN CTAB
M  V30 COUNTS 45 48 0 0 0
M  V30 BEGIN ATOM
M  V30 1 C 3.127468 -1.241006 5.341110 0
M  V30 2 O 2.413399 -0.744593 4.239815 0
M  V30 3 C 1.756727 -1.518420 3.304954 0
M  V30 4 O 1.772124 -2.757153 3.406456 0
M  V30 5 C 1.057500 -0.806978 2.212292 0
M  V30 6 C 1.025890 0.581517 2.076952 0
M  V30 7 C 0.335210 1.130126 1.007453 0
M  V30 8 C 0.355830 2.588427 0.946009 0
M  V30 9 C 1.438051 3.073752 0.206157 0
M  V30 10 F 2.379899 2.278769 -0.397982 0
M  V30 11 C 1.588300 4.443236 0.060913 0
M  V30 12 C 0.717056 5.353847 0.614033 0
M  V30 13 C -0.353604 4.834976 1.347247 0
M  V30 14 C -0.531949 3.478204 1.510871 0
M  V30 15 F -1.538036 2.909687 2.202511 0
M  V30 16 C -0.303225 0.313512 0.102736 0
M  V30 17 C -0.285028 -1.056273 0.216795 0
M  V30 18 C 0.399900 -1.612752 1.278174 0
M  V30 19 N -0.944731 -1.902687 -0.717882 0
M  V30 20 C -0.901889 -3.319748 -0.563879 0
M  V30 21 C 0.196086 -3.868106 -1.232158 0
M  V30 22 Cl 1.381255 -2.938066 -2.149901 0
M  V30 23 C 0.447888 -5.222308 -1.226894 0
M  V30 24 C -0.425098 -6.050766 -0.532385 0
M  V30 25 C -1.501845 -5.488212 0.119774 0
M  V30 26 C -1.761743 -4.145444 0.121434 0
M  V30 27 Cl -3.078182 -3.335384 0.903005 0
M  V30 28 C -1.664635 -1.376722 -1.829716 0
M  V30 29 O -2.263989 -2.050648 -2.684906 0
M  V30 30 N -1.652636 0.050585 -1.902196 0
M  V30 31 C -1.013806 0.991510 -1.004828 0
M  V30 32 H 3.070749 -0.521329 6.186923 0
M  V30 33 H 4.219033 -1.341324 5.131876 0
M  V30 34 H 2.804194 -2.210204 5.722417 0
M  V30 35 H 1.556457 1.134656 2.836777 0
M  V30 36 H 2.436929 4.829144 -0.519423 0
M  V30 37 H 0.846806 6.423524 0.492290 0
M  V30 38 H -1.060421 5.503138 1.798281 0
M  V30 39 H 0.414396 -2.679909 1.367519 0
M  V30 40 H 1.277498 -5.698860 -1.723811 0
M  V30 41 H -0.249475 -7.118161 -0.512848 0
M  V30 42 H -2.203594 -6.106125 0.671854 0
M  V30 43 H -2.153449 0.524686 -2.682485 0
M  V30 44 H -0.432987 1.760289 -1.519281 0
M  V30 45 H -1.869491 1.534588 -0.505907 0
M  V30 END ATOM
M  V30 BEGIN BOND
M  V30 1 1 1 2
M  V30 2 1 2 3
M  V30 3 2 3 4
M  V30 4 1 3 5
M  V30 5 2 5 6
M  V30 6 1 6 7
M  V30 7 1 7 8
M  V30 8 2 8 9
M  V30 9 1 9 10
M  V30 10 1 9 11
M  V30 11 2 11 12
M  V30 12 1 12 13
M  V30 13 2 13 14
M  V30 14 1 14 15
M  V30 15 2 7 16
M  V30 16 1 16 17
M  V30 17 2 17 18
M  V30 18 1 17 19
M  V30 19 1 19 20
M  V30 20 2 20 21
M  V30 21 1 21 22
M  V30 22 1 21 23
M  V30 23 2 23 24
M  V30 24 1 24 25
M  V30 25 2 25 26
M  V30 26 1 26 27
M  V30 27 1 19 28
M  V30 28 2 28 29
M  V30 29 1 28 30
M  V30 30 1 30 31
M  V30 31 1 18 5
M  V30 32 1 26 20
M  V30 33 1 14 8
M  V30 34 1 31 16
M  V30 35 1 1 32
M  V30 36 1 1 33
M  V30 37 1 1 34
M  V30 38 1 6 35
M  V30 39 1 11 36
M  V30 40 1 12 37
M  V30 41 1 13 38
M  V30 42 1 18 39
M  V30 43 1 23 40
M  V30 44 1 24 41
M  V30 45 1 25 42
M  V30 46 1 30 43
M  V30 47 1 31 44
M  V30 48 1 31 45
M  V30 END BOND
M  V30 END CTAB
M  END
>  <Dataset>  (599) 
ChEMBL_Kinases

>  <Ligand_Instance>  (599) 
nan

>  <PDB_ID>  (599) 
nan

>  <Standardized_SMILES>  (599) 
COC(=O)c1cc(-c2c(F)cccc2F)c2c(c1)N(c1c(Cl)cccc1Cl)C(=O)NC2

>  <Name>  (599) 
nan

>  <Pocket>  (599) 
nan

>  <ATP_Site>  (599) 
nan

>  <Peripheral>  (599) 
nan

>  <Num_H_Atoms_ProtBoundConf>  (599) 
nan

>  <Num_Resolved_Atoms>  (599) 
nan

>  <Num_Not_Resolved_Atoms>  (599) 
nan

$$$$
CHEMBL316604
     RDKit          3D

  0  0  0  0  0  0  0  0  0  0999 V3000
M  V30 BEGIN CTAB
M  V30 COUNTS 66 70 0 0 0
M  V30 BEGIN ATOM
M  V30 1 C 0.780486 2.871083 5.201262 0
M  V30 2 C -0.557714 2.279983 4.778062 0
M  V30 3 C -1.157326 1.536205 5.942463 0
M  V30 4 C -1.468002 3.450969 4.463851 0
M  V30 5 N -0.410326 1.496976 3.590523 0
M  V30 6 C -1.666624 0.918879 3.159469 0
M  V30 7 C -1.487906 0.286443 1.797360 0
M  V30 8 C -0.330750 -0.687296 1.754749 0
M  V30 9 C -0.142759 -1.036668 0.309812 0
M  V30 10 C 0.126709 -0.017127 -0.600877 0
M  V30 11 C 0.314057 -0.249173 -1.952255 0
M  V30 12 C 0.594599 0.842817 -2.877091 0
M  V30 13 C 1.965263 1.074437 -3.001578 0
M  V30 14 C 2.460682 2.071857 -3.833245 0
M  V30 15 C 1.548208 2.849611 -4.552752 0
M  V30 16 F 1.992817 3.827928 -5.370748 0
M  V30 17 C 0.200723 2.612916 -4.422629 0
M  V30 18 C -0.286078 1.621796 -3.595915 0
M  V30 19 Cl -1.970888 1.222551 -3.344274 0
M  V30 20 C 0.224875 -1.559907 -2.393826 0
M  V30 21 C -0.041392 -2.595643 -1.515554 0
M  V30 22 C -0.228137 -2.349189 -0.156960 0
M  V30 23 N -0.128164 -3.935182 -1.994190 0
M  V30 24 C -0.404249 -5.002238 -1.078348 0
M  V30 25 C 0.712739 -5.599444 -0.498020 0
M  V30 26 Cl 2.335004 -5.052986 -0.888138 0
M  V30 27 C 0.558670 -6.642630 0.403511 0
M  V30 28 C -0.740081 -7.060359 0.698603 0
M  V30 29 C -1.861948 -6.485359 0.137382 0
M  V30 30 C -1.684829 -5.450369 -0.755775 0
M  V30 31 Cl -3.023929 -4.637407 -1.536093 0
M  V30 32 C 0.048885 -4.269531 -3.359074 0
M  V30 33 O -0.017437 -5.432136 -3.830823 0
M  V30 34 N 0.319505 -3.166069 -4.212934 0
M  V30 35 C 0.433980 -1.768491 -3.863671 0
M  V30 36 C 0.892419 0.009483 2.266927 0
M  V30 37 C 0.644804 0.512331 3.660675 0
M  V30 38 H 0.649061 3.822224 5.780358 0
M  V30 39 H 1.385170 2.199790 5.813640 0
M  V30 40 H 1.312874 3.191866 4.273979 0
M  V30 41 H -0.749337 1.986330 6.893245 0
M  V30 42 H -0.980805 0.437991 5.894919 0
M  V30 43 H -2.258083 1.723633 5.993303 0
M  V30 44 H -2.543215 3.204843 4.547185 0
M  V30 45 H -1.248809 3.740384 3.400117 0
M  V30 46 H -1.245662 4.260322 5.162521 0
M  V30 47 H -2.047200 0.148214 3.839834 0
M  V30 48 H -2.390461 1.741631 3.028047 0
M  V30 49 H -2.460443 -0.219511 1.551262 0
M  V30 50 H -1.300610 1.080564 1.068143 0
M  V30 51 H -0.532333 -1.603681 2.318723 0
M  V30 52 H 0.208085 1.039474 -0.304380 0
M  V30 53 H 2.749291 0.521948 -2.483040 0
M  V30 54 H 3.516644 2.268438 -3.944763 0
M  V30 55 H -0.557915 3.187327 -4.958654 0
M  V30 56 H -0.434924 -3.138618 0.536491 0
M  V30 57 H 1.438074 -7.089684 0.840232 0
M  V30 58 H -0.887535 -7.878930 1.404605 0
M  V30 59 H -2.866330 -6.806609 0.364021 0
M  V30 60 H 0.471256 -3.256666 -5.233153 0
M  V30 61 H -0.421998 -1.253755 -4.381067 0
M  V30 62 H 1.379968 -1.333047 -4.200025 0
M  V30 63 H 1.778324 -0.670838 2.217362 0
M  V30 64 H 1.092250 0.876370 1.601818 0
M  V30 65 H 1.549007 1.053230 4.002404 0
M  V30 66 H 0.406554 -0.296603 4.360230 0
M  V30 END ATOM
M  V30 BEGIN BOND
M  V30 1 1 1 2
M  V30 2 1 2 3
M  V30 3 1 2 4
M  V30 4 1 2 5
M  V30 5 1 5 6
M  V30 6 1 6 7
M  V30 7 1 7 8
M  V30 8 1 8 9
M  V30 9 2 9 10
M  V30 10 1 10 11
M  V30 11 1 11 12
M  V30 12 2 12 13
M  V30 13 1 13 14
M  V30 14 2 14 15
M  V30 15 1 15 16
M  V30 16 1 15 17
M  V30 17 2 17 18
M  V30 18 1 18 19
M  V30 19 2 11 20
M  V30 20 1 20 21
M  V30 21 2 21 22
M  V30 22 1 21 23
M  V30 23 1 23 24
M  V30 24 2 24 25
M  V30 25 1 25 26
M  V30 26 1 25 27
M  V30 27 2 27 28
M  V30 28 1 28 29
M  V30 29 2 29 30
M  V30 30 1 30 31
M  V30 31 1 23 32
M  V30 32 2 32 33
M  V30 33 1 32 34
M  V30 34 1 34 35
M  V30 35 1 8 36
M  V30 36 1 36 37
M  V30 37 1 37 5
M  V30 38 1 22 9
M  V30 39 1 30 24
M  V30 40 1 18 12
M  V30 41 1 35 20
M  V30 42 1 1 38
M  V30 43 1 1 39
M  V30 44 1 1 40
M  V30 45 1 3 41
M  V30 46 1 3 42
M  V30 47 1 3 43
M  V30 48 1 4 44
M  V30 49 1 4 45
M  V30 50 1 4 46
M  V30 51 1 6 47
M  V30 52 1 6 48
M  V30 53 1 7 49
M  V30 54 1 7 50
M  V30 55 1 8 51
M  V30 56 1 10 52
M  V30 57 1 13 53
M  V30 58 1 14 54
M  V30 59 1 17 55
M  V30 60 1 22 56
M  V30 61 1 27 57
M  V30 62 1 28 58
M  V30 63 1 29 59
M  V30 64 1 34 60
M  V30 65 1 35 61
M  V30 66 1 35 62
M  V30 67 1 36 63
M  V30 68 1 36 64
M  V30 69 1 37 65
M  V30 70 1 37 66
M  V30 END BOND
M  V30 END CTAB
M  END
>  <Dataset>  (600) 
ChEMBL_Kinases

>  <Ligand_Instance>  (600) 
nan

>  <PDB_ID>  (600) 
nan

>  <Standardized_SMILES>  (600) 
CC(C)(C)N1CCC(c2cc(-c3ccc(F)cc3Cl)c3c(c2)N(c2c(Cl)cccc2Cl)C(=O)NC3)CC1

>  <Name>  (600) 
nan

>  <Pocket>  (600) 
nan

>  <ATP_Site>  (600) 
nan

>  <Peripheral>  (600) 
nan

>  <Num_H_Atoms_ProtBoundConf>  (600) 
nan

>  <Num_Resolved_Atoms>  (600) 
nan

>  <Num_Not_Resolved_Atoms>  (600) 
nan

$$$$
CHEMBL3189292
     RDKit          3D

  0  0  0  0  0  0  0  0  0  0999 V3000
M  V30 BEGIN CTAB
M  V30 COUNTS 39 41 0 0 0
M  V30 BEGIN ATOM
M  V30 1 C 1.007737 -4.415114 5.529029 0
M  V30 2 O 2.307776 -3.905911 5.304239 0
M  V30 3 C 2.518044 -2.886654 4.397089 0
M  V30 4 C 3.815608 -2.418491 4.209961 0
M  V30 5 C 4.075781 -1.389842 3.303613 0
M  V30 6 C 3.045080 -0.816605 2.573816 0
M  V30 7 O 3.267551 0.150840 1.717147 0
M  V30 8 C 2.285869 0.704267 1.015135 0
M  V30 9 O 2.628775 1.614638 0.234531 0
M  V30 10 C 0.976395 0.246839 1.190011 0
M  V30 11 C -0.071541 0.884161 0.397351 0
M  V30 12 C -1.480306 0.417759 0.561567 0
M  V30 13 N 0.111564 1.844121 -0.459886 0
M  V30 14 N -0.983604 2.390269 -1.176826 0
M  V30 15 C -1.564893 1.740566 -2.304501 0
M  V30 16 C -2.631943 2.300131 -2.981183 0
M  V30 17 C -3.139363 1.608395 -4.064667 0
M  V30 18 C -2.629559 0.381167 -4.504698 0
M  V30 19 C -1.548286 -0.142915 -3.784844 0
M  V30 20 C -1.025340 0.530990 -2.699219 0
M  V30 21 C 0.737964 -0.773884 2.093148 0
M  V30 22 C 1.784744 -1.319288 2.800146 0
M  V30 23 C 1.459110 -2.332454 3.679594 0
M  V30 24 H 0.275182 -3.594305 5.637969 0
M  V30 25 H 1.014869 -5.102680 6.387901 0
M  V30 26 H 0.775003 -5.062689 4.634108 0
M  V30 27 H 4.634766 -2.853332 4.770690 0
M  V30 28 H 5.106001 -1.043103 3.178263 0
M  V30 29 H -1.642653 -0.476959 -0.043770 0
M  V30 30 H -1.718329 0.197567 1.633325 0
M  V30 31 H -2.204032 1.217068 0.253404 0
M  V30 32 H -1.386592 3.308715 -0.870148 0
M  V30 33 H -3.058527 3.248449 -2.675451 0
M  V30 34 H -3.988308 2.022909 -4.627427 0
M  V30 35 H -3.050334 -0.134639 -5.357186 0
M  V30 36 H -1.106406 -1.092536 -4.075510 0
M  V30 37 H -0.185357 0.104855 -2.155109 0
M  V30 38 H -0.268718 -1.114213 2.217059 0
M  V30 39 H 0.443238 -2.678895 3.807443 0
M  V30 END ATOM
M  V30 BEGIN BOND
M  V30 1 1 1 2
M  V30 2 1 2 3
M  V30 3 2 3 4
M  V30 4 1 4 5
M  V30 5 2 5 6
M  V30 6 1 6 7
M  V30 7 1 7 8
M  V30 8 2 8 9
M  V30 9 1 8 10
M  V30 10 1 10 11
M  V30 11 1 11 12
M  V30 12 2 11 13
M  V30 13 1 13 14
M  V30 14 1 14 15
M  V30 15 2 15 16
M  V30 16 1 16 17
M  V30 17 2 17 18
M  V30 18 1 18 19
M  V30 19 2 19 20
M  V30 20 2 10 21
M  V30 21 1 21 22
M  V30 22 2 22 23
M  V30 23 1 23 3
M  V30 24 1 22 6
M  V30 25 1 20 15
M  V30 26 1 1 24
M  V30 27 1 1 25
M  V30 28 1 1 26
M  V30 29 1 4 27
M  V30 30 1 5 28
M  V30 31 1 12 29
M  V30 32 1 12 30
M  V30 33 1 12 31
M  V30 34 1 14 32
M  V30 35 1 16 33
M  V30 36 1 17 34
M  V30 37 1 18 35
M  V30 38 1 19 36
M  V30 39 1 20 37
M  V30 40 1 21 38
M  V30 41 1 23 39
M  V30 END BOND
M  V30 END CTAB
M  END
>  <Dataset>  (601) 
ChEMBL_Kinases

>  <Ligand_Instance>  (601) 
nan

>  <PDB_ID>  (601) 
nan

>  <Standardized_SMILES>  (601) 
COc1ccc2oc(=O)c(/C(C)=N/Nc3ccccc3)cc2c1

>  <Name>  (601) 
nan

>  <Pocket>  (601) 
nan

>  <ATP_Site>  (601) 
nan

>  <Peripheral>  (601) 
nan

>  <Num_H_Atoms_ProtBoundConf>  (601) 
nan

>  <Num_Resolved_Atoms>  (601) 
nan

>  <Num_Not_Resolved_Atoms>  (601) 
nan

$$$$
CHEMBL3184468
     RDKit          3D

  0  0  0  0  0  0  0  0  0  0999 V3000
M  V30 BEGIN CTAB
M  V30 COUNTS 51 55 0 0 0
M  V30 BEGIN ATOM
M  V30 1 N 4.291008 -1.128190 3.681854 0
M  V30 2 C 4.264833 -1.596911 2.607870 0
M  V30 3 C 4.239544 -2.188204 1.303506 0
M  V30 4 C 5.447273 -2.864308 0.864764 0
M  V30 5 N 6.610064 -2.946759 1.675993 0
M  V30 6 O 6.044789 -3.500207 -0.006288 0
M  V30 7 C 3.156287 -2.104982 0.562012 0
M  V30 8 C 3.160667 -2.692480 -0.708859 0
M  V30 9 C 2.031617 -2.634004 -1.533940 0
M  V30 10 C 0.856660 -1.984079 -1.113797 0
M  V30 11 C 0.980878 -1.442594 0.149005 0
M  V30 12 C 2.038894 -1.457424 1.016258 0
M  V30 13 N -0.223128 -0.697180 0.270415 0
M  V30 14 C -0.669133 0.322165 1.155581 0
M  V30 15 C -1.245343 1.433225 0.614748 0
M  V30 16 C -1.748517 2.539357 1.459601 0
M  V30 17 C -0.979888 2.502889 2.757881 0
M  V30 18 C -1.279428 1.145706 3.396503 0
M  V30 19 C -0.422608 0.158429 2.614277 0
M  V30 20 C -1.204765 1.390708 -0.866976 0
M  V30 21 C -1.885205 0.090975 -1.333102 0
M  V30 22 C -3.302207 0.250682 -0.945872 0
M  V30 23 C -4.069411 -0.938712 -0.508736 0
M  V30 24 C -3.262494 -1.758299 0.493612 0
M  V30 25 C -2.056566 -2.207449 -0.246644 0
M  V30 26 C -1.189809 -1.057412 -0.790450 0
M  V30 27 N -0.275082 -1.783273 -1.676572 0
M  V30 28 H 7.463560 -2.331485 1.792591 0
M  V30 29 H 6.948292 -3.652491 2.396330 0
M  V30 30 H 4.022586 -3.210867 -1.106747 0
M  V30 31 H 2.063780 -3.098230 -2.514626 0
M  V30 32 H 2.110134 -1.038471 1.993800 0
M  V30 33 H -1.548666 3.533729 1.013127 0
M  V30 34 H -2.822675 2.426117 1.716738 0
M  V30 35 H 0.095102 2.500836 2.516947 0
M  V30 36 H -1.261450 3.332064 3.436706 0
M  V30 37 H -0.886054 1.202634 4.431213 0
M  V30 38 H -2.342393 0.908860 3.309187 0
M  V30 39 H 0.621809 0.559700 2.774216 0
M  V30 40 H -0.604731 -0.829086 2.992665 0
M  V30 41 H -0.174846 1.412658 -1.272595 0
M  V30 42 H -1.747694 2.202788 -1.343785 0
M  V30 43 H -1.810309 0.089216 -2.462661 0
M  V30 44 H -3.910715 0.714349 -1.791824 0
M  V30 45 H -3.431299 1.032290 -0.130000 0
M  V30 46 H -4.354647 -1.617456 -1.325323 0
M  V30 47 H -4.975926 -0.601321 0.014686 0
M  V30 48 H -2.979515 -1.209146 1.389412 0
M  V30 49 H -3.861089 -2.631259 0.746410 0
M  V30 50 H -1.359502 -2.813148 0.374315 0
M  V30 51 H -2.314982 -2.860655 -1.118769 0
M  V30 END ATOM
M  V30 BEGIN BOND
M  V30 1 3 1 2
M  V30 2 1 2 3
M  V30 3 1 3 4
M  V30 4 1 4 5
M  V30 5 2 4 6
M  V30 6 2 3 7
M  V30 7 1 7 8
M  V30 8 2 8 9
M  V30 9 1 9 10
M  V30 10 1 10 11
M  V30 11 2 11 12
M  V30 12 1 11 13
M  V30 13 1 13 14
M  V30 14 2 14 15
M  V30 15 1 15 16
M  V30 16 1 16 17
M  V30 17 1 17 18
M  V30 18 1 18 19
M  V30 19 1 15 20
M  V30 20 1 20 21
M  V30 21 1 21 22
M  V30 22 1 22 23
M  V30 23 1 23 24
M  V30 24 1 24 25
M  V30 25 1 25 26
M  V30 26 1 26 27
M  V30 27 1 12 7
M  V30 28 1 26 13
M  V30 29 2 27 10
M  V30 30 1 19 14
M  V30 31 1 26 21
M  V30 32 1 5 28
M  V30 33 1 5 29
M  V30 34 1 8 30
M  V30 35 1 9 31
M  V30 36 1 12 32
M  V30 37 1 16 33
M  V30 38 1 16 34
M  V30 39 1 17 35
M  V30 40 1 17 36
M  V30 41 1 18 37
M  V30 42 1 18 38
M  V30 43 1 19 39
M  V30 44 1 19 40
M  V30 45 1 20 41
M  V30 46 1 20 42
M  V30 47 1 21 43
M  V30 48 1 22 44
M  V30 49 1 22 45
M  V30 50 1 23 46
M  V30 51 1 23 47
M  V30 52 1 24 48
M  V30 53 1 24 49
M  V30 54 1 25 50
M  V30 55 1 25 51
M  V30 END BOND
M  V30 END CTAB
M  END
>  <Dataset>  (602) 
ChEMBL_Kinases

>  <Ligand_Instance>  (602) 
nan

>  <PDB_ID>  (602) 
nan

>  <Standardized_SMILES>  (602) 
N#C/C(C(N)=O)=c1/ccc2c(c1)N1C3=C(CCCC3)CC3CCCCC31N=2

>  <Name>  (602) 
nan

>  <Pocket>  (602) 
nan

>  <ATP_Site>  (602) 
nan

>  <Peripheral>  (602) 
nan

>  <Num_H_Atoms_ProtBoundConf>  (602) 
nan

>  <Num_Resolved_Atoms>  (602) 
nan

>  <Num_Not_Resolved_Atoms>  (602) 
nan

$$$$
CHEMBL3185765
     RDKit          3D

  0  0  0  0  0  0  0  0  0  0999 V3000
M  V30 BEGIN CTAB
M  V30 COUNTS 37 39 0 0 0
M  V30 BEGIN ATOM
M  V30 1 C -0.733193 -5.278872 3.307166 0
M  V30 2 C 0.517247 -5.118759 2.456606 0
M  V30 3 N 0.513565 -6.248143 1.528132 0
M  V30 4 C 0.507393 -3.825954 1.724014 0
M  V30 5 C -0.334516 -2.781580 2.104726 0
M  V30 6 C -0.350879 -1.576734 1.430317 0
M  V30 7 C 0.481169 -1.378335 0.345787 0
M  V30 8 C 0.596696 -0.179036 -0.479289 0
M  V30 9 O 1.339845 0.008466 -1.453672 0
M  V30 10 N -0.213610 0.948318 -0.183501 0
M  V30 11 C -0.290298 2.215373 -0.823464 0
M  V30 12 C -1.162908 2.478464 -1.877342 0
M  V30 13 C -1.180645 3.737818 -2.450513 0
M  V30 14 N -0.362196 4.729436 -2.006916 0
M  V30 15 C 0.490995 4.493749 -0.985971 0
M  V30 16 N 1.392410 5.273663 -0.360032 0
M  V30 17 C 1.993886 4.555195 0.602723 0
M  V30 18 C 1.492416 3.263351 0.631997 0
M  V30 19 C 0.546011 3.245867 -0.377776 0
M  V30 20 C 1.316246 -2.428089 -0.023863 0
M  V30 21 C 1.349093 -3.655264 0.644175 0
M  V30 22 H -1.572774 -4.840846 2.731450 0
M  V30 23 H -0.994252 -6.342306 3.474900 0
M  V30 24 H -0.652382 -4.724572 4.264244 0
M  V30 25 H 1.436191 -5.206089 3.092350 0
M  V30 26 H 0.288880 -7.089130 2.135220 0
M  V30 27 H -0.348484 -6.115300 0.933644 0
M  V30 28 H -1.004856 -2.887361 2.947377 0
M  V30 29 H -0.978870 -0.735830 1.678680 0
M  V30 30 H -0.904872 0.991958 0.597319 0
M  V30 31 H -1.814929 1.666608 -2.221112 0
M  V30 32 H -1.890163 3.881503 -3.276531 0
M  V30 33 H 1.549962 6.277727 -0.632421 0
M  V30 34 H 2.754378 5.002933 1.223314 0
M  V30 35 H 1.793223 2.483650 1.298435 0
M  V30 36 H 2.010427 -2.356440 -0.874688 0
M  V30 37 H 2.017443 -4.441864 0.317488 0
M  V30 END ATOM
M  V30 BEGIN BOND
M  V30 1 1 1 2
M  V30 2 1 2 3
M  V30 3 1 2 4
M  V30 4 2 4 5
M  V30 5 1 5 6
M  V30 6 2 6 7
M  V30 7 1 7 8
M  V30 8 2 8 9
M  V30 9 1 8 10
M  V30 10 1 10 11
M  V30 11 2 11 12
M  V30 12 1 12 13
M  V30 13 2 13 14
M  V30 14 1 14 15
M  V30 15 1 15 16
M  V30 16 1 16 17
M  V30 17 2 17 18
M  V30 18 1 18 19
M  V30 19 1 7 20
M  V30 20 2 20 21
M  V30 21 1 21 4
M  V30 22 1 19 11
M  V30 23 2 19 15
M  V30 24 1 1 22
M  V30 25 1 1 23
M  V30 26 1 1 24
M  V30 27 1 2 25
M  V30 28 1 3 26
M  V30 29 1 3 27
M  V30 30 1 5 28
M  V30 31 1 6 29
M  V30 32 1 10 30
M  V30 33 1 12 31
M  V30 34 1 13 32
M  V30 35 1 16 33
M  V30 36 1 17 34
M  V30 37 1 18 35
M  V30 38 1 20 36
M  V30 39 1 21 37
M  V30 END BOND
M  V30 END CTAB
M  END
>  <Dataset>  (603) 
ChEMBL_Kinases

>  <Ligand_Instance>  (603) 
nan

>  <PDB_ID>  (603) 
nan

>  <Standardized_SMILES>  (603) 
CC(N)c1ccc(C(=O)Nc2ccnc3[nH]ccc23)cc1

>  <Name>  (603) 
nan

>  <Pocket>  (603) 
nan

>  <ATP_Site>  (603) 
nan

>  <Peripheral>  (603) 
nan

>  <Num_H_Atoms_ProtBoundConf>  (603) 
nan

>  <Num_Resolved_Atoms>  (603) 
nan

>  <Num_Not_Resolved_Atoms>  (603) 
nan

$$$$
CHEMBL3186534
     RDKit          3D

  0  0  0  0  0  0  0  0  0  0999 V3000
M  V30 BEGIN CTAB
M  V30 COUNTS 53 56 0 0 0
M  V30 BEGIN ATOM
M  V30 1 N -0.511688 -5.673936 -1.553780 0
M  V30 2 C -1.442566 -5.017967 -1.340055 0
M  V30 3 C -2.630430 -4.186428 -1.067263 0
M  V30 4 C -2.275792 -2.760871 -0.953102 0
M  V30 5 C -1.212712 -2.396415 -1.788208 0
M  V30 6 C -0.708115 -1.110705 -1.848735 0
M  V30 7 C -1.298139 -0.154293 -1.035501 0
M  V30 8 N -0.871270 1.225350 -0.998517 0
M  V30 9 C 0.139532 1.469020 -0.032585 0
M  V30 10 O 0.344911 0.359849 0.500288 0
M  V30 11 C 0.685658 2.782891 0.145838 0
M  V30 12 C 0.230343 3.816833 -0.621144 0
M  V30 13 C 0.747694 5.080282 -0.457556 0
M  V30 14 C 1.733253 5.338441 0.477902 0
M  V30 15 N 2.140680 4.295117 1.198510 0
M  V30 16 C 1.666087 3.037640 1.077028 0
M  V30 17 N 2.215967 2.049003 1.927802 0
M  V30 18 C 3.235395 2.362870 2.881774 0
M  V30 19 C 3.717489 1.251042 3.698929 0
M  V30 20 C 4.786642 0.446115 3.318601 0
M  V30 21 C 5.149069 -0.582810 4.187929 0
M  V30 22 N 4.504377 -0.805842 5.352584 0
M  V30 23 C 3.467900 -0.015007 5.707410 0
M  V30 24 C 3.038002 1.035627 4.900483 0
M  V30 25 C -2.348193 -0.486341 -0.202198 0
M  V30 26 C -2.831960 -1.778530 -0.162156 0
M  V30 27 C -3.659766 -4.495232 -2.108212 0
M  V30 28 C -4.017608 -5.933512 -1.754676 0
M  V30 29 C -3.844733 -6.081739 -0.269177 0
M  V30 30 C -3.259689 -4.760009 0.183659 0
M  V30 31 H -0.692592 -3.091303 -2.460367 0
M  V30 32 H 0.100007 -0.814948 -2.477902 0
M  V30 33 H -1.293945 1.951641 -1.643080 0
M  V30 34 H -0.516813 3.777324 -1.375665 0
M  V30 35 H 0.426497 5.941195 -1.036817 0
M  V30 36 H 2.196530 6.311945 0.670213 0
M  V30 37 H 1.964828 1.039995 1.963284 0
M  V30 38 H 2.940870 3.251865 3.476114 0
M  V30 39 H 4.121361 2.711362 2.274782 0
M  V30 40 H 5.300479 0.631441 2.380365 0
M  V30 41 H 5.985198 -1.237394 3.923634 0
M  V30 42 H 2.991001 -0.243434 6.652715 0
M  V30 43 H 2.209978 1.626168 5.238449 0
M  V30 44 H -2.846274 0.222711 0.454629 0
M  V30 45 H -3.633887 -2.119866 0.447517 0
M  V30 46 H -3.226754 -4.522592 -3.131937 0
M  V30 47 H -4.549319 -3.861202 -2.049075 0
M  V30 48 H -5.041286 -6.149985 -2.093539 0
M  V30 49 H -3.274092 -6.610975 -2.249513 0
M  V30 50 H -4.827613 -6.179899 0.200005 0
M  V30 51 H -3.150119 -6.906590 0.006626 0
M  V30 52 H -4.038369 -4.106894 0.612119 0
M  V30 53 H -2.449958 -4.944992 0.919177 0
M  V30 END ATOM
M  V30 BEGIN BOND
M  V30 1 3 1 2
M  V30 2 1 2 3
M  V30 3 1 3 4
M  V30 4 2 4 5
M  V30 5 1 5 6
M  V30 6 2 6 7
M  V30 7 1 7 8
M  V30 8 1 8 9
M  V30 9 2 9 10
M  V30 10 1 9 11
M  V30 11 2 11 12
M  V30 12 1 12 13
M  V30 13 2 13 14
M  V30 14 1 14 15
M  V30 15 2 15 16
M  V30 16 1 16 17
M  V30 17 1 17 18
M  V30 18 1 18 19
M  V30 19 2 19 20
M  V30 20 1 20 21
M  V30 21 2 21 22
M  V30 22 1 22 23
M  V30 23 2 23 24
M  V30 24 1 7 25
M  V30 25 2 25 26
M  V30 26 1 3 27
M  V30 27 1 27 28
M  V30 28 1 28 29
M  V30 29 1 29 30
M  V30 30 1 30 3
M  V30 31 1 26 4
M  V30 32 1 16 11
M  V30 33 1 24 19
M  V30 34 1 5 31
M  V30 35 1 6 32
M  V30 36 1 8 33
M  V30 37 1 12 34
M  V30 38 1 13 35
M  V30 39 1 14 36
M  V30 40 1 17 37
M  V30 41 1 18 38
M  V30 42 1 18 39
M  V30 43 1 20 40
M  V30 44 1 21 41
M  V30 45 1 23 42
M  V30 46 1 24 43
M  V30 47 1 25 44
M  V30 48 1 26 45
M  V30 49 1 27 46
M  V30 50 1 27 47
M  V30 51 1 28 48
M  V30 52 1 28 49
M  V30 53 1 29 50
M  V30 54 1 29 51
M  V30 55 1 30 52
M  V30 56 1 30 53
M  V30 END BOND
M  V30 END CTAB
M  END
>  <Dataset>  (604) 
ChEMBL_Kinases

>  <Ligand_Instance>  (604) 
nan

>  <PDB_ID>  (604) 
nan

>  <Standardized_SMILES>  (604) 
N#CC1(c2ccc(NC(=O)c3cccnc3NCc3ccncc3)cc2)CCCC1

>  <Name>  (604) 
RIVOCERANIB

>  <Pocket>  (604) 
nan

>  <ATP_Site>  (604) 
nan

>  <Peripheral>  (604) 
nan

>  <Num_H_Atoms_ProtBoundConf>  (604) 
nan

>  <Num_Resolved_Atoms>  (604) 
nan

>  <Num_Not_Resolved_Atoms>  (604) 
nan

$$$$
CHEMBL3187395
     RDKit          3D

  0  0  0  0  0  0  0  0  0  0999 V3000
M  V30 BEGIN CTAB
M  V30 COUNTS 14 15 0 0 0
M  V30 BEGIN ATOM
M  V30 1 Cl 1.549451 -1.245931 4.172466 0
M  V30 2 C 1.425989 -0.667873 2.525397 0
M  V30 3 C 0.320691 -1.033915 1.820464 0
M  V30 4 C 0.168916 -0.608285 0.517774 0
M  V30 5 C 1.151704 0.192990 -0.061065 0
M  V30 6 N 1.320286 0.766193 -1.264541 0
M  V30 7 N 2.449958 1.446217 -1.319192 0
M  V30 8 N 3.035000 1.319281 -0.133456 0
M  V30 9 C 2.267489 0.561263 0.653726 0
M  V30 10 C 2.406040 0.124058 1.966187 0
M  V30 11 H -0.452176 -1.652547 2.246550 0
M  V30 12 H -0.686418 -0.850643 -0.131363 0
M  V30 13 H 0.632459 0.680650 -2.063706 0
M  V30 14 H 3.238467 0.367798 2.577949 0
M  V30 END ATOM
M  V30 BEGIN BOND
M  V30 1 1 1 2
M  V30 2 2 2 3
M  V30 3 1 3 4
M  V30 4 2 4 5
M  V30 5 1 5 6
M  V30 6 1 6 7
M  V30 7 2 7 8
M  V30 8 1 8 9
M  V30 9 2 9 10
M  V30 10 1 10 2
M  V30 11 1 9 5
M  V30 12 1 3 11
M  V30 13 1 4 12
M  V30 14 1 6 13
M  V30 15 1 10 14
M  V30 END BOND
M  V30 END CTAB
M  END
>  <Dataset>  (605) 
ChEMBL_Kinases

>  <Ligand_Instance>  (605) 
nan

>  <PDB_ID>  (605) 
nan

>  <Standardized_SMILES>  (605) 
Clc1ccc2[nH]nnc2c1

>  <Name>  (605) 
nan

>  <Pocket>  (605) 
nan

>  <ATP_Site>  (605) 
nan

>  <Peripheral>  (605) 
nan

>  <Num_H_Atoms_ProtBoundConf>  (605) 
nan

>  <Num_Resolved_Atoms>  (605) 
nan

>  <Num_Not_Resolved_Atoms>  (605) 
nan

$$$$
CHEMBL3187748
     RDKit          3D

  0  0  0  0  0  0  0  0  0  0999 V3000
M  V30 BEGIN CTAB
M  V30 COUNTS 66 69 0 0 0
M  V30 BEGIN ATOM
M  V30 1 C 2.876782 -1.882109 4.503399 0
M  V30 2 C 1.598772 -1.552407 3.747122 0
M  V30 3 O 1.935707 -1.332160 2.368178 0
M  V30 4 C 2.809865 -0.318178 2.093520 0
M  V30 5 O 3.326331 0.420362 2.971160 0
M  V30 6 N 3.255273 0.043877 0.800213 0
M  V30 7 C 4.184342 1.144606 0.647652 0
M  V30 8 C 3.394097 2.257069 -0.043533 0
M  V30 9 C 2.608775 1.730682 -1.199357 0
M  V30 10 N 1.207756 1.441395 -0.849680 0
M  V30 11 C 0.262718 2.216112 -1.299677 0
M  V30 12 C 0.087716 3.341767 -2.077500 0
M  V30 13 O 1.011356 4.141140 -2.737221 0
M  V30 14 C -1.288832 3.255367 -1.875064 0
M  V30 15 O -2.357879 4.026067 -2.310334 0
M  V30 16 C -1.121590 2.142714 -1.105375 0
M  V30 17 N -1.922869 1.366416 -0.473758 0
M  V30 18 C -3.363845 1.534459 -0.445265 0
M  V30 19 C -3.974216 0.928207 0.798624 0
M  V30 20 N -3.747291 -0.447253 0.948733 0
M  V30 21 C -4.348846 -1.356683 0.053070 0
M  V30 22 C -3.464698 -2.520231 -0.326657 0
M  V30 23 N -2.539834 -2.876554 0.729977 0
M  V30 24 C -1.594884 -3.864403 0.362657 0
M  V30 25 C -1.577941 -4.445522 -0.889288 0
M  V30 26 C -0.686784 -5.409304 -1.312071 0
M  V30 27 C 0.289118 -5.849292 -0.414742 0
M  V30 28 C 0.322532 -5.303580 0.854672 0
M  V30 29 Cl 1.552032 -5.866165 1.966138 0
M  V30 30 C -0.605631 -4.345407 1.194675 0
M  V30 31 C -2.558006 -2.301039 2.034347 0
M  V30 32 C -3.204106 -0.950793 2.136024 0
M  V30 33 C 3.181099 0.378605 -1.584232 0
M  V30 34 C 2.885112 -0.575148 -0.446705 0
M  V30 35 H 3.360031 -0.966366 4.913411 0
M  V30 36 H 3.604277 -2.289190 3.755753 0
M  V30 37 H 2.690322 -2.635196 5.280696 0
M  V30 38 H 0.802556 -2.286142 3.877001 0
M  V30 39 H 1.267410 -0.551360 4.153705 0
M  V30 40 H 4.535464 1.494172 1.640478 0
M  V30 41 H 5.007420 0.788912 0.006322 0
M  V30 42 H 4.167720 2.963859 -0.466689 0
M  V30 43 H 2.812324 2.844313 0.673053 0
M  V30 44 H 2.638330 2.458846 -2.037294 0
M  V30 45 H 1.531939 4.835007 -2.181520 0
M  V30 46 H -2.809636 4.639633 -1.663205 0
M  V30 47 H -3.679442 2.597192 -0.540908 0
M  V30 48 H -3.838319 1.017564 -1.309792 0
M  V30 49 H -3.593815 1.456524 1.688442 0
M  V30 50 H -5.067973 1.119168 0.750488 0
M  V30 51 H -4.582419 -0.832510 -0.899342 0
M  V30 52 H -5.318103 -1.723587 0.451459 0
M  V30 53 H -4.077270 -3.411047 -0.549601 0
M  V30 54 H -2.850456 -2.273769 -1.223832 0
M  V30 55 H -2.292035 -4.172268 -1.649219 0
M  V30 56 H -0.692822 -5.846684 -2.290154 0
M  V30 57 H 1.001693 -6.595540 -0.699475 0
M  V30 58 H -0.515774 -3.970165 2.195834 0
M  V30 59 H -1.520764 -2.228815 2.433950 0
M  V30 60 H -3.069968 -3.046004 2.712865 0
M  V30 61 H -2.501933 -0.208740 2.568939 0
M  V30 62 H -4.027096 -1.019198 2.908147 0
M  V30 63 H 2.557502 0.051513 -2.466798 0
M  V30 64 H 4.252612 0.423572 -1.860013 0
M  V30 65 H 1.825462 -0.890601 -0.504313 0
M  V30 66 H 3.507409 -1.490013 -0.570851 0
M  V30 END ATOM
M  V30 BEGIN BOND
M  V30 1 1 1 2
M  V30 2 1 2 3
M  V30 3 1 3 4
M  V30 4 2 4 5
M  V30 5 1 4 6
M  V30 6 1 6 7
M  V30 7 1 7 8
M  V30 8 1 8 9
M  V30 9 1 9 10
M  V30 10 2 10 11
M  V30 11 1 11 12
M  V30 12 1 12 13
M  V30 13 2 12 14
M  V30 14 1 14 15
M  V30 15 1 14 16
M  V30 16 2 16 17
M  V30 17 1 17 18
M  V30 18 1 18 19
M  V30 19 1 19 20
M  V30 20 1 20 21
M  V30 21 1 21 22
M  V30 22 1 22 23
M  V30 23 1 23 24
M  V30 24 2 24 25
M  V30 25 1 25 26
M  V30 26 2 26 27
M  V30 27 1 27 28
M  V30 28 1 28 29
M  V30 29 2 28 30
M  V30 30 1 23 31
M  V30 31 1 31 32
M  V30 32 1 9 33
M  V30 33 1 33 34
M  V30 34 1 34 6
M  V30 35 1 16 11
M  V30 36 1 32 20
M  V30 37 1 30 24
M  V30 38 1 1 35
M  V30 39 1 1 36
M  V30 40 1 1 37
M  V30 41 1 2 38
M  V30 42 1 2 39
M  V30 43 1 7 40
M  V30 44 1 7 41
M  V30 45 1 8 42
M  V30 46 1 8 43
M  V30 47 1 9 44
M  V30 48 1 13 45
M  V30 49 1 15 46
M  V30 50 1 18 47
M  V30 51 1 18 48
M  V30 52 1 19 49
M  V30 53 1 19 50
M  V30 54 1 21 51
M  V30 55 1 21 52
M  V30 56 1 22 53
M  V30 57 1 22 54
M  V30 58 1 25 55
M  V30 59 1 26 56
M  V30 60 1 27 57
M  V30 61 1 30 58
M  V30 62 1 31 59
M  V30 63 1 31 60
M  V30 64 1 32 61
M  V30 65 1 32 62
M  V30 66 1 33 63
M  V30 67 1 33 64
M  V30 68 1 34 65
M  V30 69 1 34 66
M  V30 END BOND
M  V30 END CTAB
M  END
>  <Dataset>  (606) 
ChEMBL_Kinases

>  <Ligand_Instance>  (606) 
nan

>  <PDB_ID>  (606) 
nan

>  <Standardized_SMILES>  (606) 
CCOC(=O)N1CCC(/N=c2\c(O)c(O)\c2=N/CCN2CCN(c3cccc(Cl)c3)CC2)CC1

>  <Name>  (606) 
nan

>  <Pocket>  (606) 
nan

>  <ATP_Site>  (606) 
nan

>  <Peripheral>  (606) 
nan

>  <Num_H_Atoms_ProtBoundConf>  (606) 
nan

>  <Num_Resolved_Atoms>  (606) 
nan

>  <Num_Not_Resolved_Atoms>  (606) 
nan

$$$$
CHEMBL318804
     RDKit          3D

  0  0  0  0  0  0  0  0  0  0999 V3000
M  V30 BEGIN CTAB
M  V30 COUNTS 68 72 0 0 0
M  V30 BEGIN ATOM
M  V30 1 C 1.643984 -3.636945 2.835306 0
M  V30 2 O 1.900378 -3.558193 1.460930 0
M  V30 3 C 1.043734 -3.466655 0.421125 0
M  V30 4 C -0.309116 -3.429429 0.703387 0
M  V30 5 C -1.175102 -3.334740 -0.384553 0
M  V30 6 C -2.523797 -3.286413 -0.109034 0
M  V30 7 N -3.111768 -3.333547 1.192060 0
M  V30 8 C -3.161773 -2.068966 1.887401 0
M  V30 9 C -2.499703 -0.967159 1.335161 0
M  V30 10 C -2.509614 0.259706 1.942016 0
M  V30 11 C -3.169524 0.479497 3.126193 0
M  V30 12 S -3.306646 1.964081 4.082101 0
M  V30 13 C -2.432596 3.339340 3.386242 0
M  V30 14 N -1.154899 3.609736 3.675810 0
M  V30 15 C -0.727640 4.703696 3.022946 0
M  V30 16 C -1.807150 5.161739 2.263931 0
M  V30 17 N -2.808776 4.287860 2.532268 0
M  V30 18 C -4.133435 4.376501 1.948489 0
M  V30 19 C -3.830110 -0.612768 3.679290 0
M  V30 20 Cl -4.737937 -0.533172 5.194477 0
M  V30 21 C -3.822902 -1.844610 3.076485 0
M  V30 22 C -3.399348 -3.182223 -1.181210 0
M  V30 23 C -4.819989 -3.128727 -1.001645 0
M  V30 24 N -5.985974 -3.094110 -0.868258 0
M  V30 25 C -2.967188 -3.127086 -2.501320 0
M  V30 26 N -1.621299 -3.177699 -2.729691 0
M  V30 27 C -0.771587 -3.277501 -1.699498 0
M  V30 28 C 0.593790 -3.320270 -1.902726 0
M  V30 29 C 1.546881 -3.413590 -0.884172 0
M  V30 30 O 2.883418 -3.460979 -0.964149 0
M  V30 31 C 3.800354 -3.426935 -1.969799 0
M  V30 32 C 3.903062 -2.216189 -2.832538 0
M  V30 33 C 4.268998 -0.973651 -2.091988 0
M  V30 34 N 3.302712 -0.543335 -1.093685 0
M  V30 35 C 3.939067 0.588213 -0.364146 0
M  V30 36 C 3.096770 0.945190 0.836068 0
M  V30 37 O 1.757713 0.736784 0.490187 0
M  V30 38 C 1.614468 1.156342 -0.823848 0
M  V30 39 C 2.174147 0.121884 -1.768360 0
M  V30 40 H 0.742667 -3.053264 3.058690 0
M  V30 41 H 2.513365 -3.423911 3.463135 0
M  V30 42 H 1.375496 -4.703734 3.050672 0
M  V30 43 H -0.722465 -3.470668 1.703562 0
M  V30 44 H -3.517308 -4.112136 1.750064 0
M  V30 45 H -1.952532 -1.016746 0.419668 0
M  V30 46 H -2.016294 1.155270 1.562667 0
M  V30 47 H 0.236266 5.201242 3.023423 0
M  V30 48 H -1.871104 6.023705 1.593045 0
M  V30 49 H -4.856966 3.810874 2.539548 0
M  V30 50 H -4.377191 5.446794 1.832754 0
M  V30 51 H -4.102744 3.901497 0.924916 0
M  V30 52 H -4.325689 -2.700719 3.484597 0
M  V30 53 H -3.661989 -3.045953 -3.325935 0
M  V30 54 H 1.013202 -3.284412 -2.894568 0
M  V30 55 H 4.860000 -3.625923 -1.606643 0
M  V30 56 H 3.654792 -4.293250 -2.689695 0
M  V30 57 H 4.685633 -2.389823 -3.599712 0
M  V30 58 H 2.975141 -2.017274 -3.414918 0
M  V30 59 H 4.507581 -0.128274 -2.749759 0
M  V30 60 H 5.228857 -1.177997 -1.533939 0
M  V30 61 H 3.983845 1.436810 -1.054439 0
M  V30 62 H 4.942474 0.227439 -0.071467 0
M  V30 63 H 3.272608 1.985878 1.139747 0
M  V30 64 H 3.320270 0.217691 1.661986 0
M  V30 65 H 0.533159 1.317352 -1.048029 0
M  V30 66 H 2.098722 2.158316 -0.988260 0
M  V30 67 H 2.543232 0.687867 -2.657440 0
M  V30 68 H 1.418140 -0.623193 -1.960156 0
M  V30 END ATOM
M  V30 BEGIN BOND
M  V30 1 1 1 2
M  V30 2 1 2 3
M  V30 3 2 3 4
M  V30 4 1 4 5
M  V30 5 2 5 6
M  V30 6 1 6 7
M  V30 7 1 7 8
M  V30 8 2 8 9
M  V30 9 1 9 10
M  V30 10 2 10 11
M  V30 11 1 11 12
M  V30 12 1 12 13
M  V30 13 2 13 14
M  V30 14 1 14 15
M  V30 15 2 15 16
M  V30 16 1 16 17
M  V30 17 1 17 18
M  V30 18 1 11 19
M  V30 19 1 19 20
M  V30 20 2 19 21
M  V30 21 1 6 22
M  V30 22 1 22 23
M  V30 23 3 23 24
M  V30 24 2 22 25
M  V30 25 1 25 26
M  V30 26 2 26 27
M  V30 27 1 27 28
M  V30 28 2 28 29
M  V30 29 1 29 30
M  V30 30 1 30 31
M  V30 31 1 31 32
M  V30 32 1 32 33
M  V30 33 1 33 34
M  V30 34 1 34 35
M  V30 35 1 35 36
M  V30 36 1 36 37
M  V30 37 1 37 38
M  V30 38 1 38 39
M  V30 39 1 29 3
M  V30 40 1 39 34
M  V30 41 1 27 5
M  V30 42 1 21 8
M  V30 43 1 17 13
M  V30 44 1 1 40
M  V30 45 1 1 41
M  V30 46 1 1 42
M  V30 47 1 4 43
M  V30 48 1 7 44
M  V30 49 1 9 45
M  V30 50 1 10 46
M  V30 51 1 15 47
M  V30 52 1 16 48
M  V30 53 1 18 49
M  V30 54 1 18 50
M  V30 55 1 18 51
M  V30 56 1 21 52
M  V30 57 1 25 53
M  V30 58 1 28 54
M  V30 59 1 31 55
M  V30 60 1 31 56
M  V30 61 1 32 57
M  V30 62 1 32 58
M  V30 63 1 33 59
M  V30 64 1 33 60
M  V30 65 1 35 61
M  V30 66 1 35 62
M  V30 67 1 36 63
M  V30 68 1 36 64
M  V30 69 1 38 65
M  V30 70 1 38 66
M  V30 71 1 39 67
M  V30 72 1 39 68
M  V30 END BOND
M  V30 END CTAB
M  END
>  <Dataset>  (607) 
ChEMBL_Kinases

>  <Ligand_Instance>  (607) 
nan

>  <PDB_ID>  (607) 
nan

>  <Standardized_SMILES>  (607) 
COc1cc2c(Nc3ccc(Sc4nccn4C)c(Cl)c3)c(C#N)cnc2cc1OCCCN1CCOCC1

>  <Name>  (607) 
nan

>  <Pocket>  (607) 
nan

>  <ATP_Site>  (607) 
nan

>  <Peripheral>  (607) 
nan

>  <Num_H_Atoms_ProtBoundConf>  (607) 
nan

>  <Num_Resolved_Atoms>  (607) 
nan

>  <Num_Not_Resolved_Atoms>  (607) 
nan

$$$$
CHEMBL318810
     RDKit          3D

  0  0  0  0  0  0  0  0  0  0999 V3000
M  V30 BEGIN CTAB
M  V30 COUNTS 73 77 0 0 0
M  V30 BEGIN ATOM
M  V30 1 C 7.388261 -3.409767 2.457075 0
M  V30 2 C 6.348771 -3.776697 1.432665 0
M  V30 3 C 7.008885 -4.565924 0.344706 0
M  V30 4 C 5.315809 -4.687962 2.104213 0
M  V30 5 C 5.676108 -2.571718 0.861556 0
M  V30 6 C 4.530722 -1.929538 1.321442 0
M  V30 7 C 4.296110 -0.853709 0.456131 0
M  V30 8 N 3.136673 -0.077444 0.793418 0
M  V30 9 C 1.911763 -0.458867 0.225035 0
M  V30 10 O 1.729924 -1.440380 -0.571160 0
M  V30 11 N 0.797570 0.355360 0.601696 0
M  V30 12 C -0.574587 0.268641 0.227087 0
M  V30 13 C -1.174464 0.884464 -0.855058 0
M  V30 14 C -2.527619 0.705437 -1.093123 0
M  V30 15 C -3.291857 -0.095603 -0.244316 0
M  V30 16 O -4.650585 -0.306800 -0.439211 0
M  V30 17 C -5.421000 0.229694 -1.471587 0
M  V30 18 C -6.872571 -0.193058 -1.402931 0
M  V30 19 N -7.512146 0.216711 -0.172532 0
M  V30 20 C -8.890242 -0.233685 -0.206146 0
M  V30 21 C -9.617378 0.206456 1.047333 0
M  V30 22 O -9.680002 1.604014 1.027743 0
M  V30 23 C -8.373882 2.103507 1.095836 0
M  V30 24 C -7.560690 1.666638 -0.128349 0
M  V30 25 C -2.675837 -0.705076 0.834747 0
M  V30 26 C -3.462153 -1.504308 1.673045 0
M  V30 27 C -2.899805 -2.135194 2.762794 0
M  V30 28 C -1.566500 -1.969502 3.012416 0
M  V30 29 C -0.807637 -1.177948 2.174970 0
M  V30 30 C -1.329392 -0.527419 1.072312 0
M  V30 31 N 5.264646 -0.876494 -0.461374 0
M  V30 32 C 5.215097 0.144599 -1.450805 0
M  V30 33 C 5.163147 -0.236794 -2.779534 0
M  V30 34 C 5.111947 0.683687 -3.828957 0
M  V30 35 C 5.113628 2.038437 -3.516556 0
M  V30 36 C 5.165435 2.446093 -2.185992 0
M  V30 37 C 5.216167 1.509038 -1.151218 0
M  V30 38 N 6.075154 -1.882281 -0.226553 0
M  V30 39 H 7.437113 -4.261585 3.194025 0
M  V30 40 H 7.063290 -2.473886 2.968419 0
M  V30 41 H 8.375474 -3.349858 1.997727 0
M  V30 42 H 7.023998 -5.634845 0.650211 0
M  V30 43 H 8.095888 -4.293555 0.215863 0
M  V30 44 H 6.541337 -4.482511 -0.644508 0
M  V30 45 H 5.540747 -5.758375 1.935266 0
M  V30 46 H 5.331840 -4.544535 3.212315 0
M  V30 47 H 4.293554 -4.475629 1.680373 0
M  V30 48 H 4.025888 -2.326338 2.214943 0
M  V30 49 H 3.365840 0.717336 1.456517 0
M  V30 50 H 0.873688 1.161445 1.239159 0
M  V30 51 H -0.530721 1.486721 -1.468209 0
M  V30 52 H -2.986713 1.180439 -1.926508 0
M  V30 53 H -5.365981 1.347533 -1.524930 0
M  V30 54 H -5.037466 -0.142507 -2.445814 0
M  V30 55 H -6.908500 -1.299538 -1.500223 0
M  V30 56 H -7.394888 0.260001 -2.274219 0
M  V30 57 H -8.946573 -1.334839 -0.325578 0
M  V30 58 H -9.379908 0.272303 -1.070733 0
M  V30 59 H -9.092215 -0.183465 1.929024 0
M  V30 60 H -10.652079 -0.166973 0.992940 0
M  V30 61 H -7.927298 1.703235 2.031246 0
M  V30 62 H -8.401474 3.211623 1.060369 0
M  V30 63 H -8.090108 2.024159 -1.018669 0
M  V30 64 H -6.560182 2.125537 -0.008924 0
M  V30 65 H -4.520221 -1.659875 1.508792 0
M  V30 66 H -3.432690 -2.771528 3.463937 0
M  V30 67 H -1.065065 -2.443845 3.860213 0
M  V30 68 H 0.252131 -1.056392 2.387626 0
M  V30 69 H 5.160482 -1.292846 -3.055641 0
M  V30 70 H 5.071820 0.387646 -4.855577 0
M  V30 71 H 5.076150 2.831764 -4.260780 0
M  V30 72 H 5.168708 3.500218 -1.895555 0
M  V30 73 H 5.257402 1.790731 -0.100786 0
M  V30 END ATOM
M  V30 BEGIN BOND
M  V30 1 1 1 2
M  V30 2 1 2 3
M  V30 3 1 2 4
M  V30 4 1 2 5
M  V30 5 1 5 6
M  V30 6 2 6 7
M  V30 7 1 7 8
M  V30 8 1 8 9
M  V30 9 2 9 10
M  V30 10 1 9 11
M  V30 11 1 11 12
M  V30 12 2 12 13
M  V30 13 1 13 14
M  V30 14 2 14 15
M  V30 15 1 15 16
M  V30 16 1 16 17
M  V30 17 1 17 18
M  V30 18 1 18 19
M  V30 19 1 19 20
M  V30 20 1 20 21
M  V30 21 1 21 22
M  V30 22 1 22 23
M  V30 23 1 23 24
M  V30 24 1 15 25
M  V30 25 2 25 26
M  V30 26 1 26 27
M  V30 27 2 27 28
M  V30 28 1 28 29
M  V30 29 2 29 30
M  V30 30 1 7 31
M  V30 31 1 31 32
M  V30 32 2 32 33
M  V30 33 1 33 34
M  V30 34 2 34 35
M  V30 35 1 35 36
M  V30 36 2 36 37
M  V30 37 1 31 38
M  V30 38 2 38 5
M  V30 39 1 30 12
M  V30 40 1 37 32
M  V30 41 1 24 19
M  V30 42 1 30 25
M  V30 43 1 1 39
M  V30 44 1 1 40
M  V30 45 1 1 41
M  V30 46 1 3 42
M  V30 47 1 3 43
M  V30 48 1 3 44
M  V30 49 1 4 45
M  V30 50 1 4 46
M  V30 51 1 4 47
M  V30 52 1 6 48
M  V30 53 1 8 49
M  V30 54 1 11 50
M  V30 55 1 13 51
M  V30 56 1 14 52
M  V30 57 1 17 53
M  V30 58 1 17 54
M  V30 59 1 18 55
M  V30 60 1 18 56
M  V30 61 1 20 57
M  V30 62 1 20 58
M  V30 63 1 21 59
M  V30 64 1 21 60
M  V30 65 1 23 61
M  V30 66 1 23 62
M  V30 67 1 24 63
M  V30 68 1 24 64
M  V30 69 1 26 65
M  V30 70 1 27 66
M  V30 71 1 28 67
M  V30 72 1 29 68
M  V30 73 1 33 69
M  V30 74 1 34 70
M  V30 75 1 35 71
M  V30 76 1 36 72
M  V30 77 1 37 73
M  V30 END BOND
M  V30 END CTAB
M  END
>  <Dataset>  (608) 
ChEMBL_Kinases

>  <Ligand_Instance>  (608) 
nan

>  <PDB_ID>  (608) 
nan

>  <Standardized_SMILES>  (608) 
CC(C)(C)c1cc(NC(=O)Nc2ccc(OCCN3CCOCC3)c3ccccc23)n(-c2ccccc2)n1

>  <Name>  (608) 
nan

>  <Pocket>  (608) 
nan

>  <ATP_Site>  (608) 
nan

>  <Peripheral>  (608) 
nan

>  <Num_H_Atoms_ProtBoundConf>  (608) 
nan

>  <Num_Resolved_Atoms>  (608) 
nan

>  <Num_Not_Resolved_Atoms>  (608) 
nan

$$$$
CHEMBL3188267
     RDKit          3D

  0  0  0  0  0  0  0  0  0  0999 V3000
M  V30 BEGIN CTAB
M  V30 COUNTS 48 52 0 0 0
M  V30 BEGIN ATOM
M  V30 1 C -1.698876 -3.921158 -5.849706 0
M  V30 2 N -0.955617 -2.770754 -5.391768 0
M  V30 3 C -0.726580 -2.797625 -3.992656 0
M  V30 4 O -1.255525 -3.856554 -3.526092 0
M  V30 5 C -0.020290 -1.817341 -3.185096 0
M  V30 6 C 0.033248 -2.137603 -1.822886 0
M  V30 7 C 0.670805 -1.303257 -0.927293 0
M  V30 8 C 1.281653 -0.128616 -1.306495 0
M  V30 9 C 1.936181 0.702056 -0.301730 0
M  V30 10 C 2.567043 1.887965 -0.603716 0
M  V30 11 N 3.155735 2.615717 0.363775 0
M  V30 12 C 3.111026 2.153182 1.633169 0
M  V30 13 N 3.601480 2.651811 2.794268 0
M  V30 14 C 3.291361 1.805422 3.811296 0
M  V30 15 C 2.594301 0.756377 3.283366 0
M  V30 16 C 2.018617 -0.444032 3.948802 0
M  V30 17 C 0.620427 -0.227617 4.410576 0
M  V30 18 C 0.247892 0.254087 5.649732 0
M  V30 19 C -1.083286 0.419733 5.983050 0
M  V30 20 C -2.082260 0.113606 5.100243 0
M  V30 21 N -3.388185 0.262229 5.390709 0
M  V30 22 C -4.367706 -0.043925 4.509333 0
M  V30 23 C -4.040667 -0.529320 3.256953 0
M  V30 24 C -2.707820 -0.706540 2.893292 0
M  V30 25 C -1.766828 -0.371112 3.848751 0
M  V30 26 C -0.418080 -0.529954 3.534693 0
M  V30 27 N 2.494396 0.985035 1.957993 0
M  V30 28 N 1.914630 0.277730 0.974130 0
M  V30 29 C 1.227698 0.184370 -2.647102 0
M  V30 30 C 0.594285 -0.641044 -3.548451 0
M  V30 31 F 0.532607 -0.352437 -4.852831 0
M  V30 32 H -2.715306 -3.888188 -5.417428 0
M  V30 33 H -1.819861 -3.949102 -6.935651 0
M  V30 34 H -1.240353 -4.874955 -5.487788 0
M  V30 35 H -0.581871 -1.958869 -5.931427 0
M  V30 36 H -0.424316 -3.053967 -1.418539 0
M  V30 37 H 0.688927 -1.588002 0.115211 0
M  V30 38 H 2.599611 2.249756 -1.610365 0
M  V30 39 H 3.514711 1.872520 4.867528 0
M  V30 40 H 1.999496 -1.295136 3.223271 0
M  V30 41 H 2.678241 -0.799599 4.775338 0
M  V30 42 H 1.084441 0.481090 6.311746 0
M  V30 43 H -1.308934 0.796145 6.956400 0
M  V30 44 H -5.426706 0.065895 4.716713 0
M  V30 45 H -4.766183 -0.803054 2.480484 0
M  V30 46 H -2.443589 -1.082776 1.923392 0
M  V30 47 H -0.160911 -0.915044 2.540937 0
M  V30 48 H 1.684963 1.085643 -3.003404 0
M  V30 END ATOM
M  V30 BEGIN BOND
M  V30 1 1 1 2
M  V30 2 1 2 3
M  V30 3 2 3 4
M  V30 4 1 3 5
M  V30 5 2 5 6
M  V30 6 1 6 7
M  V30 7 2 7 8
M  V30 8 1 8 9
M  V30 9 1 9 10
M  V30 10 2 10 11
M  V30 11 1 11 12
M  V30 12 2 12 13
M  V30 13 1 13 14
M  V30 14 2 14 15
M  V30 15 1 15 16
M  V30 16 1 16 17
M  V30 17 2 17 18
M  V30 18 1 18 19
M  V30 19 2 19 20
M  V30 20 1 20 21
M  V30 21 2 21 22
M  V30 22 1 22 23
M  V30 23 2 23 24
M  V30 24 1 24 25
M  V30 25 2 25 26
M  V30 26 1 15 27
M  V30 27 1 27 28
M  V30 28 1 8 29
M  V30 29 2 29 30
M  V30 30 1 30 31
M  V30 31 1 30 5
M  V30 32 2 28 9
M  V30 33 1 27 12
M  V30 34 1 26 17
M  V30 35 1 25 20
M  V30 36 1 1 32
M  V30 37 1 1 33
M  V30 38 1 1 34
M  V30 39 1 2 35
M  V30 40 1 6 36
M  V30 41 1 7 37
M  V30 42 1 10 38
M  V30 43 1 14 39
M  V30 44 1 16 40
M  V30 45 1 16 41
M  V30 46 1 18 42
M  V30 47 1 19 43
M  V30 48 1 22 44
M  V30 49 1 23 45
M  V30 50 1 24 46
M  V30 51 1 26 47
M  V30 52 1 29 48
M  V30 END BOND
M  V30 END CTAB
M  END
>  <Dataset>  (609) 
ChEMBL_Kinases

>  <Ligand_Instance>  (609) 
nan

>  <PDB_ID>  (609) 
nan

>  <Standardized_SMILES>  (609) 
CNC(=O)c1ccc(-c2cnc3ncc(Cc4ccc5ncccc5c4)n3n2)cc1F

>  <Name>  (609) 
CAPMATINIB

>  <Pocket>  (609) 
nan

>  <ATP_Site>  (609) 
nan

>  <Peripheral>  (609) 
nan

>  <Num_H_Atoms_ProtBoundConf>  (609) 
nan

>  <Num_Resolved_Atoms>  (609) 
nan

>  <Num_Not_Resolved_Atoms>  (609) 
nan

$$$$
CHEMBL31733
     RDKit          3D

  0  0  0  0  0  0  0  0  0  0999 V3000
M  V30 BEGIN CTAB
M  V30 COUNTS 49 52 0 0 0
M  V30 BEGIN ATOM
M  V30 1 C 0.600360 -6.033561 3.835910 0
M  V30 2 O -0.036377 -5.301130 2.833142 0
M  V30 3 C 0.584827 -4.416147 1.984360 0
M  V30 4 C 1.955371 -4.164046 2.054020 0
M  V30 5 C 2.532248 -3.265593 1.178298 0
M  V30 6 N 3.872895 -3.021678 1.249679 0
M  V30 7 C 4.470014 -2.149956 0.409941 0
M  V30 8 C 3.759671 -1.466226 -0.556392 0
M  V30 9 C 4.321492 -0.536982 -1.471033 0
M  V30 10 N 4.795643 0.210293 -2.224887 0
M  V30 11 C 2.397074 -1.696320 -0.649297 0
M  V30 12 N 1.556656 -1.051870 -1.604511 0
M  V30 13 C 0.981695 0.174563 -1.171682 0
M  V30 14 C 1.233584 0.687526 0.091117 0
M  V30 15 C 0.703519 1.872956 0.566228 0
M  V30 16 C -0.130068 2.590956 -0.271912 0
M  V30 17 O -0.647868 3.791420 0.250986 0
M  V30 18 C -1.873972 3.732518 0.943140 0
M  V30 19 C -2.527933 2.506580 1.087832 0
M  V30 20 C -3.740974 2.442393 1.771481 0
M  V30 21 C -4.260786 3.625193 2.291872 0
M  V30 22 C -3.595663 4.817895 2.134534 0
M  V30 23 C -2.383972 4.904414 1.455859 0
M  V30 24 C -0.415232 2.123344 -1.545105 0
M  V30 25 C 0.133115 0.935376 -1.983568 0
M  V30 26 C 1.797190 -2.594561 0.220008 0
M  V30 27 C 0.440972 -2.852118 0.160319 0
M  V30 28 C -0.156295 -3.752119 1.032498 0
M  V30 29 O -1.515087 -4.009055 0.971452 0
M  V30 30 C -2.358556 -3.365999 0.016511 0
M  V30 31 H 0.632244 -5.488114 4.816893 0
M  V30 32 H 0.045139 -6.991565 3.933980 0
M  V30 33 H 1.643005 -6.309108 3.596260 0
M  V30 34 H 2.555820 -4.671680 2.790527 0
M  V30 35 H 5.538134 -1.932577 0.440486 0
M  V30 36 H 1.310310 -1.363177 -2.576250 0
M  V30 37 H 1.889511 0.137707 0.771592 0
M  V30 38 H 0.953997 2.204906 1.575571 0
M  V30 39 H -2.099817 1.591494 0.670346 0
M  V30 40 H -4.198263 1.464626 1.850018 0
M  V30 41 H -5.204747 3.521078 2.813685 0
M  V30 42 H -4.063732 5.708789 2.570393 0
M  V30 43 H -1.873601 5.842591 1.339455 0
M  V30 44 H -1.071877 2.725056 -2.155383 0
M  V30 45 H -0.100491 0.587930 -2.977308 0
M  V30 46 H -0.107702 -2.327376 -0.582216 0
M  V30 47 H -3.301551 -3.909387 -0.122782 0
M  V30 48 H -2.578001 -2.362288 0.411970 0
M  V30 49 H -1.869018 -3.274421 -0.982436 0
M  V30 END ATOM
M  V30 BEGIN BOND
M  V30 1 1 1 2
M  V30 2 1 2 3
M  V30 3 2 3 4
M  V30 4 1 4 5
M  V30 5 2 5 6
M  V30 6 1 6 7
M  V30 7 2 7 8
M  V30 8 1 8 9
M  V30 9 3 9 10
M  V30 10 1 8 11
M  V30 11 1 11 12
M  V30 12 1 12 13
M  V30 13 2 13 14
M  V30 14 1 14 15
M  V30 15 2 15 16
M  V30 16 1 16 17
M  V30 17 1 17 18
M  V30 18 2 18 19
M  V30 19 1 19 20
M  V30 20 2 20 21
M  V30 21 1 21 22
M  V30 22 2 22 23
M  V30 23 1 16 24
M  V30 24 2 24 25
M  V30 25 2 11 26
M  V30 26 1 26 27
M  V30 27 2 27 28
M  V30 28 1 28 29
M  V30 29 1 29 30
M  V30 30 1 28 3
M  V30 31 1 26 5
M  V30 32 1 25 13
M  V30 33 1 23 18
M  V30 34 1 1 31
M  V30 35 1 1 32
M  V30 36 1 1 33
M  V30 37 1 4 34
M  V30 38 1 7 35
M  V30 39 1 12 36
M  V30 40 1 14 37
M  V30 41 1 15 38
M  V30 42 1 19 39
M  V30 43 1 20 40
M  V30 44 1 21 41
M  V30 45 1 22 42
M  V30 46 1 23 43
M  V30 47 1 24 44
M  V30 48 1 25 45
M  V30 49 1 27 46
M  V30 50 1 30 47
M  V30 51 1 30 48
M  V30 52 1 30 49
M  V30 END BOND
M  V30 END CTAB
M  END
>  <Dataset>  (610) 
ChEMBL_Kinases

>  <Ligand_Instance>  (610) 
nan

>  <PDB_ID>  (610) 
nan

>  <Standardized_SMILES>  (610) 
COc1cc2ncc(C#N)c(Nc3ccc(Oc4ccccc4)cc3)c2cc1OC

>  <Name>  (610) 
nan

>  <Pocket>  (610) 
nan

>  <ATP_Site>  (610) 
nan

>  <Peripheral>  (610) 
nan

>  <Num_H_Atoms_ProtBoundConf>  (610) 
nan

>  <Num_Resolved_Atoms>  (610) 
nan

>  <Num_Not_Resolved_Atoms>  (610) 
nan

$$$$
CHEMBL3120984
     RDKit          3D

  0  0  0  0  0  0  0  0  0  0999 V3000
M  V30 BEGIN CTAB
M  V30 COUNTS 49 52 0 0 0
M  V30 BEGIN ATOM
M  V30 1 C -0.876128 -2.160226 3.487292 0
M  V30 2 N -0.868087 -1.911811 2.058694 0
M  V30 3 C 0.265367 -1.411278 1.494033 0
M  V30 4 C 1.590881 -1.021353 1.967892 0
M  V30 5 C 1.980688 0.307751 2.040969 0
M  V30 6 N 3.244769 0.386380 2.508560 0
M  V30 7 C 3.994603 1.635207 2.720953 0
M  V30 8 C 4.758000 2.010817 1.468563 0
M  V30 9 O 5.490927 3.186015 1.602420 0
M  V30 10 P 6.222826 3.434118 0.075237 0
M  V30 11 O 7.478726 4.257646 0.227875 0
M  V30 12 O 5.156475 4.293235 -0.937773 0
M  V30 13 O 6.645194 1.943513 -0.602892 0
M  V30 14 N 3.627385 -0.857016 2.719024 0
M  V30 15 N 2.672776 -1.707205 2.409038 0
M  V30 16 N 0.014210 -1.272243 0.165161 0
M  V30 17 C -1.248328 -1.677914 -0.088882 0
M  V30 18 C -1.965679 -1.717265 -1.355206 0
M  V30 19 C -2.439472 -2.775317 -2.096007 0
M  V30 20 C -3.100218 -2.538738 -3.280272 0
M  V30 21 C -3.327069 -1.278640 -3.790813 0
M  V30 22 F -3.987889 -1.118387 -4.968124 0
M  V30 23 C -2.847626 -0.213453 -3.040897 0
M  V30 24 C -2.173267 -0.419918 -1.835561 0
M  V30 25 C -1.802485 -2.080856 1.106999 0
M  V30 26 C -3.107380 -2.608483 1.479250 0
M  V30 27 C -3.796398 -1.752869 2.347064 0
M  V30 28 C -5.058799 -2.041901 2.841023 0
M  V30 29 N -5.621561 -3.198917 2.454130 0
M  V30 30 C -4.996888 -4.053589 1.620687 0
M  V30 31 C -3.746988 -3.778463 1.125284 0
M  V30 32 H -1.699515 -2.881413 3.751868 0
M  V30 33 H -1.046613 -1.185324 4.011534 0
M  V30 34 H 0.087173 -2.531887 3.848841 0
M  V30 35 H 1.402996 1.194889 1.776638 0
M  V30 36 H 3.243174 2.449386 2.894788 0
M  V30 37 H 4.700136 1.573248 3.548395 0
M  V30 38 H 4.115423 1.998086 0.576588 0
M  V30 39 H 5.537708 1.211084 1.298146 0
M  V30 40 H 4.244538 3.940062 -0.831996 0
M  V30 41 H 5.967113 1.639829 -1.273566 0
M  V30 42 H -2.224860 -3.714687 -1.639400 0
M  V30 43 H -3.440198 -3.420061 -3.800812 0
M  V30 44 H -3.033439 0.769667 -3.454907 0
M  V30 45 H -1.859962 0.522190 -1.368160 0
M  V30 46 H -3.404834 -0.792342 2.708101 0
M  V30 47 H -5.587672 -1.379719 3.510804 0
M  V30 48 H -5.441187 -4.980218 1.307799 0
M  V30 49 H -3.145644 -4.379078 0.457220 0
M  V30 END ATOM
M  V30 BEGIN BOND
M  V30 1 1 1 2
M  V30 2 1 2 3
M  V30 3 1 3 4
M  V30 4 2 4 5
M  V30 5 1 5 6
M  V30 6 1 6 7
M  V30 7 1 7 8
M  V30 8 1 8 9
M  V30 9 1 9 10
M  V30 10 2 10 11
M  V30 11 1 10 12
M  V30 12 1 10 13
M  V30 13 1 6 14
M  V30 14 2 14 15
M  V30 15 2 3 16
M  V30 16 1 16 17
M  V30 17 1 17 18
M  V30 18 2 18 19
M  V30 19 1 19 20
M  V30 20 2 20 21
M  V30 21 1 21 22
M  V30 22 1 21 23
M  V30 23 2 23 24
M  V30 24 2 17 25
M  V30 25 1 25 26
M  V30 26 2 26 27
M  V30 27 1 27 28
M  V30 28 2 28 29
M  V30 29 1 29 30
M  V30 30 2 30 31
M  V30 31 1 25 2
M  V30 32 1 31 26
M  V30 33 1 15 4
M  V30 34 1 24 18
M  V30 35 1 1 32
M  V30 36 1 1 33
M  V30 37 1 1 34
M  V30 38 1 5 35
M  V30 39 1 7 36
M  V30 40 1 7 37
M  V30 41 1 8 38
M  V30 42 1 8 39
M  V30 43 1 12 40
M  V30 44 1 13 41
M  V30 45 1 19 42
M  V30 46 1 20 43
M  V30 47 1 23 44
M  V30 48 1 24 45
M  V30 49 1 27 46
M  V30 50 1 28 47
M  V30 51 1 30 48
M  V30 52 1 31 49
M  V30 END BOND
M  V30 END CTAB
M  END
>  <Dataset>  (611) 
ChEMBL_Kinases

>  <Ligand_Instance>  (611) 
nan

>  <PDB_ID>  (611) 
nan

>  <Standardized_SMILES>  (611) 
Cn1c(-c2cn(CCOP(=O)(O)O)nn2)nc(-c2ccc(F)cc2)c1-c1ccncc1

>  <Name>  (611) 
nan

>  <Pocket>  (611) 
nan

>  <ATP_Site>  (611) 
nan

>  <Peripheral>  (611) 
nan

>  <Num_H_Atoms_ProtBoundConf>  (611) 
nan

>  <Num_Resolved_Atoms>  (611) 
nan

>  <Num_Not_Resolved_Atoms>  (611) 
nan

$$$$
CHEMBL3120982
     RDKit          3D

  0  0  0  0  0  0  0  0  0  0999 V3000
M  V30 BEGIN CTAB
M  V30 COUNTS 49 52 0 0 0
M  V30 BEGIN ATOM
M  V30 1 C 0.406122 -2.803592 2.672823 0
M  V30 2 N -0.234276 -1.911639 1.758176 0
M  V30 3 C 0.167873 -0.656991 1.502607 0
M  V30 4 C 1.289700 0.112742 2.037121 0
M  V30 5 C 2.342984 0.314708 1.139513 0
M  V30 6 N 3.285597 1.039730 1.798189 0
M  V30 7 C 4.587122 1.563115 1.424148 0 CFG=1
M  V30 8 C 4.481078 3.053500 1.134311 0
M  V30 9 C 3.544061 3.334453 0.034054 0
M  V30 10 O 2.816756 2.631941 -0.715202 0
M  V30 11 O 3.461504 4.717060 -0.217606 0
M  V30 12 C 5.552812 1.285558 2.498196 0
M  V30 13 O 6.621925 0.598126 2.533066 0
M  V30 14 O 5.241492 1.892487 3.721969 0
M  V30 15 N 2.848225 1.273669 3.024612 0
M  V30 16 N 1.641386 0.719547 3.186149 0
M  V30 17 N -0.679667 -0.112554 0.583625 0
M  V30 18 C -1.630014 -1.027944 0.250695 0
M  V30 19 C -2.688762 -0.745635 -0.716187 0
M  V30 20 C -2.380914 -0.423030 -2.042146 0
M  V30 21 C -3.365265 -0.146793 -2.996161 0
M  V30 22 C -4.675995 -0.205062 -2.574533 0
M  V30 23 F -5.604696 0.066814 -3.519879 0
M  V30 24 C -5.040822 -0.521186 -1.266869 0
M  V30 25 C -4.034697 -0.785307 -0.364061 0
M  V30 26 C -1.322966 -2.143323 1.003333 0
M  V30 27 C -2.117747 -3.358068 0.931219 0
M  V30 28 C -2.788621 -3.895576 2.035236 0
M  V30 29 C -3.531244 -5.053390 1.910613 0
M  V30 30 N -3.634304 -5.698132 0.736203 0
M  V30 31 C -3.009397 -5.223026 -0.353032 0
M  V30 32 C -2.265258 -4.073199 -0.254072 0
M  V30 33 H 1.501964 -2.556087 2.739913 0
M  V30 34 H 0.348951 -3.869855 2.367395 0
M  V30 35 H 0.020828 -2.647818 3.708011 0
M  V30 36 H 2.529116 0.023329 0.102963 0
M  V30 37 H 4.940537 1.087119 0.474080 0
M  V30 38 H 5.456502 3.522232 1.009266 0
M  V30 39 H 4.023674 3.520214 2.048248 0
M  V30 40 H 2.927066 5.079293 -1.021875 0
M  V30 41 H 5.969094 2.075477 4.428739 0
M  V30 42 H -1.330895 -0.381150 -2.360288 0
M  V30 43 H -3.097723 0.100583 -4.016018 0
M  V30 44 H -6.090064 -0.542826 -1.029670 0
M  V30 45 H -4.283501 -1.034340 0.658385 0
M  V30 46 H -2.707965 -3.378852 2.982835 0
M  V30 47 H -4.055310 -5.486008 2.739268 0
M  V30 48 H -3.072464 -5.724119 -1.326944 0
M  V30 49 H -1.770904 -3.713641 -1.154816 0
M  V30 END ATOM
M  V30 BEGIN BOND
M  V30 1 1 1 2
M  V30 2 1 2 3
M  V30 3 1 3 4
M  V30 4 2 4 5
M  V30 5 1 5 6
M  V30 6 1 6 7
M  V30 7 1 7 8
M  V30 8 1 8 9
M  V30 9 2 9 10
M  V30 10 1 9 11
M  V30 11 1 7 12
M  V30 12 2 12 13
M  V30 13 1 12 14
M  V30 14 1 6 15
M  V30 15 2 15 16
M  V30 16 2 3 17
M  V30 17 1 17 18
M  V30 18 1 18 19
M  V30 19 2 19 20
M  V30 20 1 20 21
M  V30 21 2 21 22
M  V30 22 1 22 23
M  V30 23 1 22 24
M  V30 24 2 24 25
M  V30 25 2 18 26
M  V30 26 1 26 27
M  V30 27 2 27 28
M  V30 28 1 28 29
M  V30 29 2 29 30
M  V30 30 1 30 31
M  V30 31 2 31 32
M  V30 32 1 26 2
M  V30 33 1 32 27
M  V30 34 1 16 4
M  V30 35 1 25 19
M  V30 36 1 1 33
M  V30 37 1 1 34
M  V30 38 1 1 35
M  V30 39 1 5 36
M  V30 40 1 7 37 CFG=3
M  V30 41 1 8 38
M  V30 42 1 8 39
M  V30 43 1 11 40
M  V30 44 1 14 41
M  V30 45 1 20 42
M  V30 46 1 21 43
M  V30 47 1 24 44
M  V30 48 1 25 45
M  V30 49 1 28 46
M  V30 50 1 29 47
M  V30 51 1 31 48
M  V30 52 1 32 49
M  V30 END BOND
M  V30 END CTAB
M  END
>  <Dataset>  (612) 
ChEMBL_Kinases

>  <Ligand_Instance>  (612) 
nan

>  <PDB_ID>  (612) 
nan

>  <Standardized_SMILES>  (612) 
Cn1c(-c2cn([C@@H](CC(=O)O)C(=O)O)nn2)nc(-c2ccc(F)cc2)c1-c1ccncc1

>  <Name>  (612) 
nan

>  <Pocket>  (612) 
nan

>  <ATP_Site>  (612) 
nan

>  <Peripheral>  (612) 
nan

>  <Num_H_Atoms_ProtBoundConf>  (612) 
nan

>  <Num_Resolved_Atoms>  (612) 
nan

>  <Num_Not_Resolved_Atoms>  (612) 
nan

$$$$
CHEMBL3120981
     RDKit          3D

  0  0  0  0  0  0  0  0  0  0999 V3000
M  V30 BEGIN CTAB
M  V30 COUNTS 39 42 0 0 0
M  V30 BEGIN ATOM
M  V30 1 O 5.877257 -5.866691 0.914621 0
M  V30 2 C 4.789854 -5.234630 1.130075 0
M  V30 3 O 4.584139 -4.582037 2.356124 0
M  V30 4 C 3.866220 -5.306894 -0.042229 0
M  V30 5 N 2.669571 -4.559353 0.305225 0
M  V30 6 C 2.430712 -3.249401 0.101380 0
M  V30 7 C 1.160388 -2.973524 0.592697 0
M  V30 8 C 0.429535 -1.706975 0.615128 0
M  V30 9 N 0.966878 -0.564441 0.114116 0
M  V30 10 C 0.081012 0.443690 0.265339 0
M  V30 11 C -0.002725 1.868176 -0.030936 0
M  V30 12 C -0.808364 2.532027 -0.903889 0
M  V30 13 C -0.757522 3.900395 -1.055637 0
M  V30 14 C 0.145217 4.634207 -0.293957 0
M  V30 15 F 0.129669 5.972516 -0.505833 0
M  V30 16 C 0.986073 3.998780 0.609289 0
M  V30 17 C 0.896374 2.636738 0.722365 0
M  V30 18 C -1.028394 -0.129843 0.882811 0
M  V30 19 C -2.348718 0.241825 1.371554 0
M  V30 20 C -2.563699 0.146623 2.752556 0
M  V30 21 C -3.776146 0.465817 3.362279 0
M  V30 22 N -4.763410 0.881936 2.550881 0
M  V30 23 C -4.629869 0.996852 1.226002 0
M  V30 24 C -3.420763 0.675315 0.643945 0
M  V30 25 O -0.763175 -1.396599 1.062802 0
M  V30 26 N 0.684267 -4.140856 1.075701 0
M  V30 27 N 1.601817 -5.101598 0.900058 0
M  V30 28 H 5.050397 -4.952956 3.182675 0
M  V30 29 H 4.352945 -4.738708 -0.877600 0
M  V30 30 H 3.636771 -6.349342 -0.320090 0
M  V30 31 H 3.076534 -2.523424 -0.351849 0
M  V30 32 H -1.474432 1.897836 -1.457044 0
M  V30 33 H -1.441492 4.342869 -1.780649 0
M  V30 34 H 1.657287 4.615745 1.166517 0
M  V30 35 H 1.594599 2.234351 1.455036 0
M  V30 36 H -1.745436 -0.193922 3.388740 0
M  V30 37 H -3.839070 0.357261 4.435366 0
M  V30 38 H -5.437236 1.334566 0.593068 0
M  V30 39 H -3.280101 0.752865 -0.410524 0
M  V30 END ATOM
M  V30 BEGIN BOND
M  V30 1 2 1 2
M  V30 2 1 2 3
M  V30 3 1 2 4
M  V30 4 1 4 5
M  V30 5 1 5 6
M  V30 6 2 6 7
M  V30 7 1 7 8
M  V30 8 2 8 9
M  V30 9 1 9 10
M  V30 10 1 10 11
M  V30 11 2 11 12
M  V30 12 1 12 13
M  V30 13 2 13 14
M  V30 14 1 14 15
M  V30 15 1 14 16
M  V30 16 2 16 17
M  V30 17 2 10 18
M  V30 18 1 18 19
M  V30 19 2 19 20
M  V30 20 1 20 21
M  V30 21 2 21 22
M  V30 22 1 22 23
M  V30 23 2 23 24
M  V30 24 1 18 25
M  V30 25 1 7 26
M  V30 26 2 26 27
M  V30 27 1 27 5
M  V30 28 1 25 8
M  V30 29 1 17 11
M  V30 30 1 24 19
M  V30 31 1 3 28
M  V30 32 1 4 29
M  V30 33 1 4 30
M  V30 34 1 6 31
M  V30 35 1 12 32
M  V30 36 1 13 33
M  V30 37 1 16 34
M  V30 38 1 17 35
M  V30 39 1 20 36
M  V30 40 1 21 37
M  V30 41 1 23 38
M  V30 42 1 24 39
M  V30 END BOND
M  V30 END CTAB
M  END
>  <Dataset>  (613) 
ChEMBL_Kinases

>  <Ligand_Instance>  (613) 
nan

>  <PDB_ID>  (613) 
nan

>  <Standardized_SMILES>  (613) 
O=C(O)Cn1cc(-c2nc(-c3ccc(F)cc3)c(-c3ccncc3)o2)nn1

>  <Name>  (613) 
nan

>  <Pocket>  (613) 
nan

>  <ATP_Site>  (613) 
nan

>  <Peripheral>  (613) 
nan

>  <Num_H_Atoms_ProtBoundConf>  (613) 
nan

>  <Num_Resolved_Atoms>  (613) 
nan

>  <Num_Not_Resolved_Atoms>  (613) 
nan

$$$$
CHEMBL3120980
     RDKit          3D

  0  0  0  0  0  0  0  0  0  0999 V3000
M  V30 BEGIN CTAB
M  V30 COUNTS 43 46 0 0 0
M  V30 BEGIN ATOM
M  V30 1 C 1.529996 -1.011410 -0.869900 0
M  V30 2 N 0.861949 -0.541656 0.317273 0
M  V30 3 C 0.752236 0.734988 0.722983 0
M  V30 4 C 1.322175 1.851168 -0.023719 0
M  V30 5 C 1.085774 2.067267 -1.360613 0
M  V30 6 N 1.740009 3.167938 -1.782611 0
M  V30 7 C 1.718531 3.696269 -3.142090 0
M  V30 8 C 2.810746 3.111920 -3.959526 0
M  V30 9 O 3.960340 3.616922 -4.053687 0
M  V30 10 O 2.823725 1.974571 -4.742559 0
M  V30 11 N 2.369468 3.619190 -0.713636 0
M  V30 12 N 2.137750 2.858476 0.335852 0
M  V30 13 N 0.052384 0.750638 1.883396 0
M  V30 14 C -0.284440 -0.529139 2.215854 0
M  V30 15 C -1.047261 -0.800393 3.430110 0
M  V30 16 C -0.440378 -1.564815 4.379971 0
M  V30 17 C -1.138629 -1.836022 5.537816 0
M  V30 18 C -2.415092 -1.387227 5.806859 0
M  V30 19 F -3.067042 -1.674786 6.954829 0
M  V30 20 C -2.986676 -0.614360 4.808196 0
M  V30 21 C -2.342162 -0.313497 3.640681 0
M  V30 22 C 0.230051 -1.307486 1.227972 0
M  V30 23 C 0.067444 -2.757953 1.241951 0
M  V30 24 C -1.093613 -3.516517 1.179565 0
M  V30 25 C -0.975597 -4.874451 1.210282 0
M  V30 26 N 0.208276 -5.509273 1.298020 0
M  V30 27 C 1.353817 -4.798553 1.360404 0
M  V30 28 C 1.287845 -3.436664 1.332815 0
M  V30 29 H 0.821503 -0.903178 -1.716693 0
M  V30 30 H 1.806213 -2.073159 -0.827807 0
M  V30 31 H 2.448239 -0.396041 -1.072974 0
M  V30 32 H 0.470745 1.469063 -2.021464 0
M  V30 33 H 1.901073 4.789661 -3.065665 0
M  V30 34 H 0.724844 3.493180 -3.548833 0
M  V30 35 H 3.446684 1.206823 -4.531381 0
M  V30 36 H 0.557264 -1.957424 4.252102 0
M  V30 37 H -0.647053 -2.448813 6.295166 0
M  V30 38 H -3.996230 -0.218990 4.941225 0
M  V30 39 H -2.780616 0.288290 2.857191 0
M  V30 40 H -1.971737 -2.909471 1.111843 0
M  V30 41 H -1.902459 -5.427941 1.159745 0
M  V30 42 H 2.310766 -5.333129 1.432039 0
M  V30 43 H 2.264108 -2.933397 1.387810 0
M  V30 END ATOM
M  V30 BEGIN BOND
M  V30 1 1 1 2
M  V30 2 1 2 3
M  V30 3 1 3 4
M  V30 4 2 4 5
M  V30 5 1 5 6
M  V30 6 1 6 7
M  V30 7 1 7 8
M  V30 8 2 8 9
M  V30 9 1 8 10
M  V30 10 1 6 11
M  V30 11 2 11 12
M  V30 12 2 3 13
M  V30 13 1 13 14
M  V30 14 1 14 15
M  V30 15 2 15 16
M  V30 16 1 16 17
M  V30 17 2 17 18
M  V30 18 1 18 19
M  V30 19 1 18 20
M  V30 20 2 20 21
M  V30 21 2 14 22
M  V30 22 1 22 23
M  V30 23 2 23 24
M  V30 24 1 24 25
M  V30 25 2 25 26
M  V30 26 1 26 27
M  V30 27 2 27 28
M  V30 28 1 22 2
M  V30 29 1 28 23
M  V30 30 1 12 4
M  V30 31 1 21 15
M  V30 32 1 1 29
M  V30 33 1 1 30
M  V30 34 1 1 31
M  V30 35 1 5 32
M  V30 36 1 7 33
M  V30 37 1 7 34
M  V30 38 1 10 35
M  V30 39 1 16 36
M  V30 40 1 17 37
M  V30 41 1 20 38
M  V30 42 1 21 39
M  V30 43 1 24 40
M  V30 44 1 25 41
M  V30 45 1 27 42
M  V30 46 1 28 43
M  V30 END BOND
M  V30 END CTAB
M  END
>  <Dataset>  (614) 
ChEMBL_Kinases

>  <Ligand_Instance>  (614) 
nan

>  <PDB_ID>  (614) 
nan

>  <Standardized_SMILES>  (614) 
Cn1c(-c2cn(CC(=O)O)nn2)nc(-c2ccc(F)cc2)c1-c1ccncc1

>  <Name>  (614) 
nan

>  <Pocket>  (614) 
nan

>  <ATP_Site>  (614) 
nan

>  <Peripheral>  (614) 
nan

>  <Num_H_Atoms_ProtBoundConf>  (614) 
nan

>  <Num_Resolved_Atoms>  (614) 
nan

>  <Num_Not_Resolved_Atoms>  (614) 
nan

$$$$
CHEMBL3120978
     RDKit          3D

  0  0  0  0  0  0  0  0  0  0999 V3000
M  V30 BEGIN CTAB
M  V30 COUNTS 53 57 0 0 0
M  V30 BEGIN ATOM
M  V30 1 O 4.056157 -5.189809 0.863085 0
M  V30 2 C 3.527406 -6.068959 1.607220 0
M  V30 3 O 3.988342 -7.361417 1.494328 0
M  V30 4 C 2.443600 -5.731120 2.575476 0 CFG=1
M  V30 5 O 2.195774 -4.367793 2.461573 0
M  V30 6 C 1.469577 -4.080876 1.302695 0
M  V30 7 N 1.525902 -2.673832 1.012968 0
M  V30 8 C 0.464683 -1.906448 0.698378 0
M  V30 9 C 1.025716 -0.645620 0.510798 0
M  V30 10 C 0.253095 0.538880 0.150902 0
M  V30 11 N 0.769208 1.776717 -0.044629 0
M  V30 12 C -0.242605 2.634541 -0.367485 0
M  V30 13 C -0.053760 4.031570 -0.641872 0
M  V30 14 C -0.245001 4.778391 -1.787306 0
M  V30 15 C 0.007737 6.126390 -1.804622 0
M  V30 16 C 0.457020 6.775660 -0.689846 0
M  V30 17 F 0.666286 8.091484 -0.835447 0
M  V30 18 C 0.666197 6.070242 0.489369 0
M  V30 19 C 0.405865 4.700777 0.495075 0
M  V30 20 C -1.362977 1.875008 -0.357335 0
M  V30 21 C -2.725651 2.310376 -0.637118 0
M  V30 22 C -3.515911 2.173828 0.503768 0
M  V30 23 C -4.861229 2.547763 0.405086 0
M  V30 24 N -5.421758 3.025361 -0.719400 0
M  V30 25 C -4.626278 3.147530 -1.816426 0
M  V30 26 C -3.306312 2.800783 -1.787605 0
M  V30 27 O -1.018671 0.651830 -0.047298 0
M  V30 28 N 2.353818 -0.701621 0.712748 0
M  V30 29 N 2.664402 -1.970041 1.026422 0
M  V30 30 C 0.055541 -4.544739 1.595865 0 CFG=2
M  V30 31 O -0.312251 -4.010026 2.822782 0
M  V30 32 C 0.102914 -6.048557 1.674269 0 CFG=1
M  V30 33 O 0.014714 -6.625340 0.404417 0
M  V30 34 C 1.242522 -6.597639 2.462689 0 CFG=2
M  V30 35 O 0.827455 -7.040404 3.739853 0
M  V30 36 H 4.588108 -7.600849 0.699867 0
M  V30 37 H 2.898457 -5.883248 3.580078 0
M  V30 38 H 1.803464 -4.665001 0.423121 0
M  V30 39 H -0.560506 -2.242940 0.623720 0
M  V30 40 H -0.598448 4.168862 -2.605497 0
M  V30 41 H -0.185229 6.578650 -2.761397 0
M  V30 42 H 1.022236 6.622201 1.347676 0
M  V30 43 H 0.609067 4.266595 1.476312 0
M  V30 44 H -3.221165 1.811893 1.469841 0
M  V30 45 H -5.525356 2.458035 1.279197 0
M  V30 46 H -4.914062 3.517448 -2.812723 0
M  V30 47 H -2.593904 2.856920 -2.597121 0
M  V30 48 H -0.644067 -4.281620 0.777675 0
M  V30 49 H -1.211102 -4.260245 3.122984 0
M  V30 50 H -0.841013 -6.373493 2.198454 0
M  V30 51 H -0.934726 -6.725282 0.130928 0
M  V30 52 H 1.567577 -7.553882 1.955318 0
M  V30 53 H 0.835209 -6.200915 4.285796 0
M  V30 END ATOM
M  V30 BEGIN BOND
M  V30 1 2 1 2
M  V30 2 1 2 3
M  V30 3 1 2 4
M  V30 4 1 4 5
M  V30 5 1 5 6
M  V30 6 1 6 7
M  V30 7 1 7 8
M  V30 8 2 8 9
M  V30 9 1 9 10
M  V30 10 2 10 11
M  V30 11 1 11 12
M  V30 12 1 12 13
M  V30 13 2 13 14
M  V30 14 1 14 15
M  V30 15 2 15 16
M  V30 16 1 16 17
M  V30 17 1 16 18
M  V30 18 2 18 19
M  V30 19 2 12 20
M  V30 20 1 20 21
M  V30 21 2 21 22
M  V30 22 1 22 23
M  V30 23 2 23 24
M  V30 24 1 24 25
M  V30 25 2 25 26
M  V30 26 1 20 27
M  V30 27 1 9 28
M  V30 28 2 28 29
M  V30 29 1 6 30
M  V30 30 1 30 31
M  V30 31 1 30 32
M  V30 32 1 32 33
M  V30 33 1 32 34
M  V30 34 1 34 35
M  V30 35 1 34 4
M  V30 36 1 29 7
M  V30 37 1 27 10
M  V30 38 1 19 13
M  V30 39 1 26 21
M  V30 40 1 3 36
M  V30 41 1 4 37 CFG=1
M  V30 42 1 6 38
M  V30 43 1 8 39
M  V30 44 1 14 40
M  V30 45 1 15 41
M  V30 46 1 18 42
M  V30 47 1 19 43
M  V30 48 1 22 44
M  V30 49 1 23 45
M  V30 50 1 25 46
M  V30 51 1 26 47
M  V30 52 1 30 48 CFG=3
M  V30 53 1 31 49
M  V30 54 1 32 50 CFG=1
M  V30 55 1 33 51
M  V30 56 1 34 52 CFG=3
M  V30 57 1 35 53
M  V30 END BOND
M  V30 END CTAB
M  END
>  <Dataset>  (615) 
ChEMBL_Kinases

>  <Ligand_Instance>  (615) 
nan

>  <PDB_ID>  (615) 
nan

>  <Standardized_SMILES>  (615) 
O=C(O)[C@H]1OC(n2cc(-c3nc(-c4ccc(F)cc4)c(-c4ccncc4)o3)nn2)[C@H](O)[C@@H](O)[C@@H]1O

>  <Name>  (615) 
nan

>  <Pocket>  (615) 
nan

>  <ATP_Site>  (615) 
nan

>  <Peripheral>  (615) 
nan

>  <Num_H_Atoms_ProtBoundConf>  (615) 
nan

>  <Num_Resolved_Atoms>  (615) 
nan

>  <Num_Not_Resolved_Atoms>  (615) 
nan

$$$$
CHEMBL3120977
     RDKit          3D

  0  0  0  0  0  0  0  0  0  0999 V3000
M  V30 BEGIN CTAB
M  V30 COUNTS 57 61 0 0 0
M  V30 BEGIN ATOM
M  V30 1 C 0.794797 -2.147555 -0.628534 0
M  V30 2 N -0.438594 -2.369113 0.122759 0
M  V30 3 C -0.740102 -1.802716 1.323528 0
M  V30 4 C 0.153485 -0.881444 2.023311 0
M  V30 5 C 0.715003 0.195692 1.328984 0
M  V30 6 N 1.506608 0.925340 2.149304 0
M  V30 7 C 2.255758 2.113556 1.789486 0
M  V30 8 O 1.592642 3.271586 2.154063 0
M  V30 9 C 2.204393 4.369221 1.587619 0 CFG=2
M  V30 10 C 1.227199 4.956910 0.604647 0
M  V30 11 O 1.417148 5.974339 -0.118376 0
M  V30 12 O -0.058360 4.818964 0.047188 0
M  V30 13 C 3.453424 4.081514 0.812746 0 CFG=1
M  V30 14 O 4.119597 5.317005 0.666613 0
M  V30 15 C 4.418251 3.157681 1.491368 0 CFG=2
M  V30 16 O 5.047521 2.380308 0.492944 0
M  V30 17 C 3.634025 2.165508 2.355031 0 CFG=1
M  V30 18 O 3.559310 2.711763 3.646915 0
M  V30 19 N 1.435925 0.315654 3.318637 0
M  V30 20 N 0.646514 -0.748429 3.268061 0
M  V30 21 N -1.970436 -2.240048 1.722746 0
M  V30 22 C -2.454802 -3.084128 0.780011 0
M  V30 23 C -3.692707 -3.828070 0.683838 0
M  V30 24 C -3.977074 -4.786517 1.658290 0
M  V30 25 C -5.160008 -5.494449 1.562909 0
M  V30 26 C -6.019762 -5.250401 0.533428 0
M  V30 27 F -7.195358 -5.957912 0.445452 0
M  V30 28 C -5.770676 -4.306005 -0.452978 0
M  V30 29 C -4.586417 -3.609536 -0.341518 0
M  V30 30 C -1.478117 -3.152355 -0.217081 0
M  V30 31 C -1.502642 -3.933131 -1.469252 0
M  V30 32 C -1.945610 -3.266755 -2.595524 0
M  V30 33 C -1.977365 -3.984717 -3.791906 0
M  V30 34 N -1.602158 -5.276990 -3.899252 0
M  V30 35 C -1.176126 -5.890479 -2.775466 0
M  V30 36 C -1.107849 -5.262359 -1.536747 0
M  V30 37 H 1.131931 -3.070450 -1.142837 0
M  V30 38 H 1.579533 -1.747224 0.037430 0
M  V30 39 H 0.560726 -1.362429 -1.376223 0
M  V30 40 H 0.579772 0.473836 0.274626 0
M  V30 41 H 2.357798 2.161657 0.678733 0
M  V30 42 H 2.389368 5.153869 2.355882 0
M  V30 43 H -0.216923 4.250711 -0.792417 0
M  V30 44 H 3.221703 3.770939 -0.240901 0
M  V30 45 H 4.557825 5.409195 -0.207507 0
M  V30 46 H 5.181689 3.689121 2.099451 0
M  V30 47 H 4.521529 1.539481 0.321162 0
M  V30 48 H 4.115438 1.179059 2.388064 0
M  V30 49 H 4.475914 3.099744 3.817318 0
M  V30 50 H -3.274326 -4.960504 2.468653 0
M  V30 51 H -5.342570 -6.236861 2.346112 0
M  V30 52 H -6.470865 -4.131369 -1.259628 0
M  V30 53 H -4.407750 -2.880455 -1.117364 0
M  V30 54 H -2.256294 -2.234870 -2.565860 0
M  V30 55 H -2.332698 -3.431602 -4.666106 0
M  V30 56 H -0.868685 -6.927012 -2.833861 0
M  V30 57 H -0.768541 -5.740520 -0.636881 0
M  V30 END ATOM
M  V30 BEGIN BOND
M  V30 1 1 1 2
M  V30 2 1 2 3
M  V30 3 1 3 4
M  V30 4 2 4 5
M  V30 5 1 5 6
M  V30 6 1 6 7
M  V30 7 1 7 8
M  V30 8 1 8 9
M  V30 9 1 9 10
M  V30 10 2 10 11
M  V30 11 1 10 12
M  V30 12 1 9 13
M  V30 13 1 13 14
M  V30 14 1 13 15
M  V30 15 1 15 16
M  V30 16 1 15 17
M  V30 17 1 17 18
M  V30 18 1 6 19
M  V30 19 2 19 20
M  V30 20 2 3 21
M  V30 21 1 21 22
M  V30 22 1 22 23
M  V30 23 2 23 24
M  V30 24 1 24 25
M  V30 25 2 25 26
M  V30 26 1 26 27
M  V30 27 1 26 28
M  V30 28 2 28 29
M  V30 29 2 22 30
M  V30 30 1 30 31
M  V30 31 2 31 32
M  V30 32 1 32 33
M  V30 33 2 33 34
M  V30 34 1 34 35
M  V30 35 2 35 36
M  V30 36 1 30 2
M  V30 37 1 36 31
M  V30 38 1 20 4
M  V30 39 1 29 23
M  V30 40 1 17 7
M  V30 41 1 1 37
M  V30 42 1 1 38
M  V30 43 1 1 39
M  V30 44 1 5 40
M  V30 45 1 7 41
M  V30 46 1 9 42 CFG=1
M  V30 47 1 12 43
M  V30 48 1 13 44 CFG=3
M  V30 49 1 14 45
M  V30 50 1 15 46 CFG=1
M  V30 51 1 16 47
M  V30 52 1 17 48 CFG=1
M  V30 53 1 18 49
M  V30 54 1 24 50
M  V30 55 1 25 51
M  V30 56 1 28 52
M  V30 57 1 29 53
M  V30 58 1 32 54
M  V30 59 1 33 55
M  V30 60 1 35 56
M  V30 61 1 36 57
M  V30 END BOND
M  V30 END CTAB
M  END
>  <Dataset>  (616) 
ChEMBL_Kinases

>  <Ligand_Instance>  (616) 
nan

>  <PDB_ID>  (616) 
nan

>  <Standardized_SMILES>  (616) 
Cn1c(-c2cn(C3O[C@H](C(=O)O)[C@@H](O)[C@H](O)[C@H]3O)nn2)nc(-c2ccc(F)cc2)c1-c1ccncc1

>  <Name>  (616) 
nan

>  <Pocket>  (616) 
nan

>  <ATP_Site>  (616) 
nan

>  <Peripheral>  (616) 
nan

>  <Num_H_Atoms_ProtBoundConf>  (616) 
nan

>  <Num_Resolved_Atoms>  (616) 
nan

>  <Num_Not_Resolved_Atoms>  (616) 
nan

$$$$
CHEMBL3120976
     RDKit          3D

  0  0  0  0  0  0  0  0  0  0999 V3000
M  V30 BEGIN CTAB
M  V30 COUNTS 54 58 0 0 0
M  V30 BEGIN ATOM
M  V30 1 O 5.021028 -2.237989 1.729929 0
M  V30 2 C 5.188467 -0.983910 1.165302 0 CFG=2
M  V30 3 C 5.188889 0.103600 2.220179 0 CFG=1
M  V30 4 O 6.464087 0.362813 2.705920 0
M  V30 5 C 4.488379 1.320199 1.716497 0 CFG=2
M  V30 6 O 3.128308 1.198256 2.022597 0
M  V30 7 O 4.719447 1.665360 0.418038 0
M  V30 8 C 4.499694 0.653338 -0.478946 0 CFG=2
M  V30 9 C 3.541856 0.990098 -1.589867 0
M  V30 10 N 2.227169 1.347714 -1.127766 0
M  V30 11 C 1.256041 0.422338 -0.956952 0
M  V30 12 C 0.102959 1.035264 -0.508502 0
M  V30 13 C -1.160036 0.367237 -0.209396 0
M  V30 14 N -2.292516 0.946972 0.227557 0
M  V30 15 C -3.232819 -0.015924 0.383772 0
M  V30 16 C -4.609632 -0.188469 0.789427 0
M  V30 17 C -4.900952 -0.966155 1.914757 0
M  V30 18 C -6.188749 -1.177439 2.362474 0
M  V30 19 C -7.221927 -0.589297 1.659109 0
M  V30 20 F -8.487073 -0.817142 2.127239 0
M  V30 21 C -6.971970 0.192612 0.532791 0
M  V30 22 C -5.678637 0.392678 0.100128 0
M  V30 23 C -2.609064 -1.214360 0.017315 0
M  V30 24 C -2.973654 -2.646670 -0.073376 0
M  V30 25 C -3.968973 -3.076494 -0.935187 0
M  V30 26 C -4.189495 -4.435707 -0.903291 0
M  V30 27 N -3.515569 -5.296350 -0.116836 0
M  V30 28 C -2.566524 -4.847984 0.698049 0
M  V30 29 C -2.260702 -3.499540 0.748635 0
M  V30 30 O -1.355959 -0.923023 -0.332810 0
M  V30 31 N 0.411883 2.341429 -0.417737 0
M  V30 32 N 1.689969 2.495420 -0.795191 0
M  V30 33 C 4.109357 -0.664114 0.125651 0 CFG=1
M  V30 34 O 4.200815 -1.635316 -0.870242 0
M  V30 35 H 4.086992 -2.524302 1.790807 0
M  V30 36 H 6.178472 -0.962824 0.693148 0
M  V30 37 H 4.618655 -0.296071 3.084154 0
M  V30 38 H 6.764617 1.261173 2.462107 0
M  V30 39 H 4.836796 2.190837 2.343895 0
M  V30 40 H 2.974834 0.790335 2.894695 0
M  V30 41 H 5.490475 0.477388 -0.992659 0
M  V30 42 H 3.964267 1.825675 -2.212257 0
M  V30 43 H 3.525128 0.114446 -2.272183 0
M  V30 44 H 1.345209 -0.660679 -1.140172 0
M  V30 45 H -4.048872 -1.413418 2.443402 0
M  V30 46 H -6.313011 -1.798948 3.247604 0
M  V30 47 H -7.811072 0.635579 0.008966 0
M  V30 48 H -5.485325 0.999460 -0.771901 0
M  V30 49 H -4.496461 -2.392092 -1.552742 0
M  V30 50 H -4.951992 -4.852173 -1.548189 0
M  V30 51 H -1.966156 -5.467512 1.373073 0
M  V30 52 H -1.487348 -3.116070 1.409989 0
M  V30 53 H 3.123897 -0.645762 0.586733 0
M  V30 54 H 3.487757 -2.307937 -0.789037 0
M  V30 END ATOM
M  V30 BEGIN BOND
M  V30 1 1 1 2
M  V30 2 1 2 3
M  V30 3 1 3 4
M  V30 4 1 3 5
M  V30 5 1 5 6
M  V30 6 1 5 7
M  V30 7 1 7 8
M  V30 8 1 8 9
M  V30 9 1 9 10
M  V30 10 1 10 11
M  V30 11 2 11 12
M  V30 12 1 12 13
M  V30 13 2 13 14
M  V30 14 1 14 15
M  V30 15 1 15 16
M  V30 16 2 16 17
M  V30 17 1 17 18
M  V30 18 2 18 19
M  V30 19 1 19 20
M  V30 20 1 19 21
M  V30 21 2 21 22
M  V30 22 2 15 23
M  V30 23 1 23 24
M  V30 24 2 24 25
M  V30 25 1 25 26
M  V30 26 2 26 27
M  V30 27 1 27 28
M  V30 28 2 28 29
M  V30 29 1 23 30
M  V30 30 1 12 31
M  V30 31 2 31 32
M  V30 32 1 8 33
M  V30 33 1 33 34
M  V30 34 1 33 2
M  V30 35 1 32 10
M  V30 36 1 30 13
M  V30 37 1 22 16
M  V30 38 1 29 24
M  V30 39 1 1 35
M  V30 40 1 2 36 CFG=3
M  V30 41 1 3 37 CFG=1
M  V30 42 1 4 38
M  V30 43 1 5 39 CFG=1
M  V30 44 1 6 40
M  V30 45 1 8 41 CFG=3
M  V30 46 1 9 42
M  V30 47 1 9 43
M  V30 48 1 11 44
M  V30 49 1 17 45
M  V30 50 1 18 46
M  V30 51 1 21 47
M  V30 52 1 22 48
M  V30 53 1 25 49
M  V30 54 1 26 50
M  V30 55 1 28 51
M  V30 56 1 29 52
M  V30 57 1 33 53 CFG=1
M  V30 58 1 34 54
M  V30 END BOND
M  V30 END CTAB
M  END
>  <Dataset>  (617) 
ChEMBL_Kinases

>  <Ligand_Instance>  (617) 
nan

>  <PDB_ID>  (617) 
nan

>  <Standardized_SMILES>  (617) 
O[C@@H]1[C@@H](O)[C@H](O)O[C@H](Cn2cc(-c3nc(-c4ccc(F)cc4)c(-c4ccncc4)o3)nn2)[C@H]1O

>  <Name>  (617) 
nan

>  <Pocket>  (617) 
nan

>  <ATP_Site>  (617) 
nan

>  <Peripheral>  (617) 
nan

>  <Num_H_Atoms_ProtBoundConf>  (617) 
nan

>  <Num_Resolved_Atoms>  (617) 
nan

>  <Num_Not_Resolved_Atoms>  (617) 
nan

$$$$
CHEMBL3120975
     RDKit          3D

  0  0  0  0  0  0  0  0  0  0999 V3000
M  V30 BEGIN CTAB
M  V30 COUNTS 58 62 0 0 0
M  V30 BEGIN ATOM
M  V30 1 C -1.541749 0.027814 1.321697 0
M  V30 2 N -1.444726 -1.368903 1.015275 0
M  V30 3 C -0.323570 -2.092453 0.846687 0
M  V30 4 C 1.061489 -1.642166 0.934235 0
M  V30 5 C 1.579271 -0.477379 1.463324 0
M  V30 6 N 2.908198 -0.444382 1.349280 0
M  V30 7 C 3.781931 0.632059 1.798283 0
M  V30 8 C 3.902858 1.581346 0.628264 0 CFG=1
M  V30 9 O 2.616925 2.031750 0.331840 0
M  V30 10 C 2.590779 3.176251 -0.430246 0 CFG=1
M  V30 11 O 2.556718 4.259182 0.449753 0
M  V30 12 C 3.800783 3.358519 -1.312176 0 CFG=2
M  V30 13 O 3.851696 2.414208 -2.333879 0
M  V30 14 C 5.051810 3.402733 -0.489783 0 CFG=1
M  V30 15 O 5.339268 4.737592 -0.206893 0
M  V30 16 C 4.862481 2.702541 0.859292 0 CFG=2
M  V30 17 O 6.092162 2.171078 1.210437 0
M  V30 18 N 3.258174 -1.590453 0.744411 0
M  V30 19 N 2.151884 -2.301847 0.498791 0
M  V30 20 N -0.689602 -3.361679 0.571180 0
M  V30 21 C -2.021872 -3.480025 0.557058 0
M  V30 22 C -2.702316 -4.737244 0.287816 0
M  V30 23 C -3.490360 -5.549056 1.073879 0
M  V30 24 C -4.015731 -6.699223 0.539659 0
M  V30 25 C -3.801162 -7.101190 -0.756130 0
M  V30 26 F -4.360546 -8.255397 -1.203031 0
M  V30 27 C -3.014451 -6.300172 -1.557201 0
M  V30 28 C -2.467779 -5.124884 -1.038892 0
M  V30 29 C -2.479303 -2.213323 0.839062 0
M  V30 30 C -3.890724 -1.862004 0.928982 0
M  V30 31 C -4.764822 -2.322958 1.882617 0
M  V30 32 C -6.099275 -1.986515 1.955931 0
M  V30 33 N -6.583559 -1.142976 1.024023 0
M  V30 34 C -5.772277 -0.660619 0.066459 0
M  V30 35 C -4.422150 -0.986526 -0.027088 0
M  V30 36 H -0.958123 0.605394 0.577163 0
M  V30 37 H -1.343831 0.272349 2.369614 0
M  V30 38 H -2.604667 0.374012 1.149166 0
M  V30 39 H 1.010065 0.316280 1.913840 0
M  V30 40 H 4.732229 0.279456 2.191837 0
M  V30 41 H 3.265424 1.134141 2.668145 0
M  V30 42 H 4.307465 0.970209 -0.210749 0
M  V30 43 H 1.665187 3.162801 -1.041534 0
M  V30 44 H 1.637546 4.622376 0.525011 0
M  V30 45 H 3.664369 4.337471 -1.826924 0
M  V30 46 H 3.000805 1.983537 -2.526003 0
M  V30 47 H 5.890802 2.901754 -1.033218 0
M  V30 48 H 5.444483 5.174993 -1.093772 0
M  V30 49 H 4.538014 3.388617 1.652235 0
M  V30 50 H 6.198369 1.239886 0.886362 0
M  V30 51 H -3.595058 -5.155453 2.055858 0
M  V30 52 H -4.628734 -7.278708 1.241646 0
M  V30 53 H -2.865227 -6.638654 -2.562605 0
M  V30 54 H -1.867465 -4.596914 -1.794144 0
M  V30 55 H -4.399097 -2.986868 2.626691 0
M  V30 56 H -6.745941 -2.390472 2.744847 0
M  V30 57 H -6.280819 0.009719 -0.625026 0
M  V30 58 H -3.841642 -0.557477 -0.824090 0
M  V30 END ATOM
M  V30 BEGIN BOND
M  V30 1 1 1 2
M  V30 2 1 2 3
M  V30 3 1 3 4
M  V30 4 2 4 5
M  V30 5 1 5 6
M  V30 6 1 6 7
M  V30 7 1 7 8
M  V30 8 1 8 9
M  V30 9 1 9 10
M  V30 10 1 10 11
M  V30 11 1 10 12
M  V30 12 1 12 13
M  V30 13 1 12 14
M  V30 14 1 14 15
M  V30 15 1 14 16
M  V30 16 1 16 17
M  V30 17 1 6 18
M  V30 18 2 18 19
M  V30 19 2 3 20
M  V30 20 1 20 21
M  V30 21 1 21 22
M  V30 22 2 22 23
M  V30 23 1 23 24
M  V30 24 2 24 25
M  V30 25 1 25 26
M  V30 26 1 25 27
M  V30 27 2 27 28
M  V30 28 2 21 29
M  V30 29 1 29 30
M  V30 30 2 30 31
M  V30 31 1 31 32
M  V30 32 2 32 33
M  V30 33 1 33 34
M  V30 34 2 34 35
M  V30 35 1 29 2
M  V30 36 1 35 30
M  V30 37 1 19 4
M  V30 38 1 28 22
M  V30 39 1 16 8
M  V30 40 1 1 36
M  V30 41 1 1 37
M  V30 42 1 1 38
M  V30 43 1 5 39
M  V30 44 1 7 40
M  V30 45 1 7 41
M  V30 46 1 8 42 CFG=3
M  V30 47 1 10 43 CFG=3
M  V30 48 1 11 44
M  V30 49 1 12 45 CFG=3
M  V30 50 1 13 46
M  V30 51 1 14 47 CFG=3
M  V30 52 1 15 48
M  V30 53 1 16 49 CFG=1
M  V30 54 1 17 50
M  V30 55 1 23 51
M  V30 56 1 24 52
M  V30 57 1 27 53
M  V30 58 1 28 54
M  V30 59 1 31 55
M  V30 60 1 32 56
M  V30 61 1 34 57
M  V30 62 1 35 58
M  V30 END BOND
M  V30 END CTAB
M  END
>  <Dataset>  (618) 
ChEMBL_Kinases

>  <Ligand_Instance>  (618) 
nan

>  <PDB_ID>  (618) 
nan

>  <Standardized_SMILES>  (618) 
Cn1c(-c2cn(C[C@H]3O[C@@H](O)[C@H](O)[C@@H](O)[C@@H]3O)nn2)nc(-c2ccc(F)cc2)c1-c1ccncc1

>  <Name>  (618) 
nan

>  <Pocket>  (618) 
nan

>  <ATP_Site>  (618) 
nan

>  <Peripheral>  (618) 
nan

>  <Num_H_Atoms_ProtBoundConf>  (618) 
nan

>  <Num_Resolved_Atoms>  (618) 
nan

>  <Num_Not_Resolved_Atoms>  (618) 
nan

$$$$
CHEMBL3120974
     RDKit          3D

  0  0  0  0  0  0  0  0  0  0999 V3000
M  V30 BEGIN CTAB
M  V30 COUNTS 37 39 0 0 0
M  V30 BEGIN ATOM
M  V30 1 C 0.428792 -3.372195 1.161081 0
M  V30 2 N 0.535185 -1.936746 1.238360 0
M  V30 3 C 1.197800 -1.272335 2.217288 0
M  V30 4 C 1.903256 -1.839569 3.336267 0
M  V30 5 C 2.488429 -2.332949 4.270224 0
M  V30 6 C 3.186681 -2.954565 5.413604 0
M  V30 7 O 4.586318 -2.879092 5.255058 0
M  V30 8 N 1.088206 0.062670 1.967022 0
M  V30 9 C 0.371564 0.271696 0.851631 0
M  V30 10 C 0.042027 1.542201 0.265314 0
M  V30 11 C -1.053017 2.286295 0.667499 0
M  V30 12 C -1.367696 3.506052 0.105854 0
M  V30 13 C -0.581407 4.044657 -0.905163 0
M  V30 14 F -0.825260 5.231260 -1.503120 0
M  V30 15 C 0.504410 3.293015 -1.294752 0
M  V30 16 C 0.830623 2.065869 -0.737629 0
M  V30 17 C 0.033847 -0.986097 0.409067 0
M  V30 18 C -0.754368 -1.331259 -0.782470 0
M  V30 19 C -2.071833 -0.945528 -0.953929 0
M  V30 20 C -2.710047 -1.329319 -2.111698 0
M  V30 21 N -2.119700 -2.061112 -3.087428 0
M  V30 22 C -0.822681 -2.465152 -2.964155 0
M  V30 23 C -0.178547 -2.081109 -1.801971 0
M  V30 24 H 1.342542 -3.838095 0.737816 0
M  V30 25 H 0.170786 -3.825666 2.140680 0
M  V30 26 H -0.390053 -3.651913 0.466362 0
M  V30 27 H 2.949885 -4.048818 5.437481 0
M  V30 28 H 2.882914 -2.454505 6.355639 0
M  V30 29 H 4.754501 -2.958538 4.275167 0
M  V30 30 H -1.695188 1.912453 1.448501 0
M  V30 31 H -2.243844 4.082997 0.440597 0
M  V30 32 H 1.175658 3.619549 -2.068097 0
M  V30 33 H 1.691057 1.480488 -1.053188 0
M  V30 34 H -2.552900 -0.361370 -0.181754 0
M  V30 35 H -3.753486 -1.004285 -2.210589 0
M  V30 36 H -0.305318 -3.048670 -3.710335 0
M  V30 37 H 0.858513 -2.376740 -1.651263 0
M  V30 END ATOM
M  V30 BEGIN BOND
M  V30 1 1 1 2
M  V30 2 1 2 3
M  V30 3 1 3 4
M  V30 4 3 4 5
M  V30 5 1 5 6
M  V30 6 1 6 7
M  V30 7 2 3 8
M  V30 8 1 8 9
M  V30 9 1 9 10
M  V30 10 2 10 11
M  V30 11 1 11 12
M  V30 12 2 12 13
M  V30 13 1 13 14
M  V30 14 1 13 15
M  V30 15 2 15 16
M  V30 16 2 9 17
M  V30 17 1 17 18
M  V30 18 2 18 19
M  V30 19 1 19 20
M  V30 20 2 20 21
M  V30 21 1 21 22
M  V30 22 2 22 23
M  V30 23 1 17 2
M  V30 24 1 23 18
M  V30 25 1 16 10
M  V30 26 1 1 24
M  V30 27 1 1 25
M  V30 28 1 1 26
M  V30 29 1 6 27
M  V30 30 1 6 28
M  V30 31 1 7 29
M  V30 32 1 11 30
M  V30 33 1 12 31
M  V30 34 1 15 32
M  V30 35 1 16 33
M  V30 36 1 19 34
M  V30 37 1 20 35
M  V30 38 1 22 36
M  V30 39 1 23 37
M  V30 END BOND
M  V30 END CTAB
M  END
>  <Dataset>  (619) 
ChEMBL_Kinases

>  <Ligand_Instance>  (619) 
nan

>  <PDB_ID>  (619) 
nan

>  <Standardized_SMILES>  (619) 
Cn1c(C#CCO)nc(-c2ccc(F)cc2)c1-c1ccncc1

>  <Name>  (619) 
nan

>  <Pocket>  (619) 
nan

>  <ATP_Site>  (619) 
nan

>  <Peripheral>  (619) 
nan

>  <Num_H_Atoms_ProtBoundConf>  (619) 
nan

>  <Num_Resolved_Atoms>  (619) 
nan

>  <Num_Not_Resolved_Atoms>  (619) 
nan

$$$$
CHEMBL3120973
     RDKit          3D

  0  0  0  0  0  0  0  0  0  0999 V3000
M  V30 BEGIN CTAB
M  V30 COUNTS 29 31 0 0 0
M  V30 BEGIN ATOM
M  V30 1 C -0.673053 -4.797600 4.652344 0
M  V30 2 C -0.528642 -3.916534 3.844735 0
M  V30 3 C -0.334680 -2.869605 2.884292 0
M  V30 4 N 0.803619 -2.464560 2.241362 0
M  V30 5 C 0.439761 -1.426346 1.431076 0
M  V30 6 C 1.573327 -0.861783 0.670747 0
M  V30 7 C 2.153376 0.366780 1.011869 0
M  V30 8 C 3.198023 0.871221 0.278349 0
M  V30 9 C 3.663524 0.144673 -0.799544 0
M  V30 10 F 4.701941 0.602314 -1.566212 0
M  V30 11 C 3.163307 -1.067762 -1.214194 0
M  V30 12 C 2.092991 -1.553255 -0.438170 0
M  V30 13 C -0.909737 -1.226890 1.601684 0
M  V30 14 C -1.468620 -0.138518 0.796388 0
M  V30 15 C -1.409537 -0.176122 -0.588874 0
M  V30 16 C -1.954339 0.888995 -1.274758 0
M  V30 17 N -2.530825 1.942604 -0.650430 0
M  V30 18 C -2.625555 2.048007 0.700011 0
M  V30 19 C -2.071350 0.966745 1.361021 0
M  V30 20 O -1.361770 -2.119772 2.492859 0
M  V30 21 H -0.810651 -5.586804 5.383160 0
M  V30 22 H 1.767787 0.923971 1.863605 0
M  V30 23 H 3.679795 1.829946 0.534523 0
M  V30 24 H 3.532613 -1.613076 -2.048983 0
M  V30 25 H 1.661604 -2.495872 -0.718891 0
M  V30 26 H -0.956860 -1.006849 -1.080791 0
M  V30 27 H -1.894393 0.842527 -2.372568 0
M  V30 28 H -3.085752 2.886000 1.201456 0
M  V30 29 H -2.093009 0.955166 2.452628 0
M  V30 END ATOM
M  V30 BEGIN BOND
M  V30 1 3 1 2
M  V30 2 1 2 3
M  V30 3 2 3 4
M  V30 4 1 4 5
M  V30 5 1 5 6
M  V30 6 2 6 7
M  V30 7 1 7 8
M  V30 8 2 8 9
M  V30 9 1 9 10
M  V30 10 1 9 11
M  V30 11 2 11 12
M  V30 12 2 5 13
M  V30 13 1 13 14
M  V30 14 2 14 15
M  V30 15 1 15 16
M  V30 16 2 16 17
M  V30 17 1 17 18
M  V30 18 2 18 19
M  V30 19 1 13 20
M  V30 20 1 20 3
M  V30 21 1 12 6
M  V30 22 1 19 14
M  V30 23 1 1 21
M  V30 24 1 7 22
M  V30 25 1 8 23
M  V30 26 1 11 24
M  V30 27 1 12 25
M  V30 28 1 15 26
M  V30 29 1 16 27
M  V30 30 1 18 28
M  V30 31 1 19 29
M  V30 END BOND
M  V30 END CTAB
M  END
>  <Dataset>  (620) 
ChEMBL_Kinases

>  <Ligand_Instance>  (620) 
nan

>  <PDB_ID>  (620) 
nan

>  <Standardized_SMILES>  (620) 
C#Cc1nc(-c2ccc(F)cc2)c(-c2ccncc2)o1

>  <Name>  (620) 
nan

>  <Pocket>  (620) 
nan

>  <ATP_Site>  (620) 
nan

>  <Peripheral>  (620) 
nan

>  <Num_H_Atoms_ProtBoundConf>  (620) 
nan

>  <Num_Resolved_Atoms>  (620) 
nan

>  <Num_Not_Resolved_Atoms>  (620) 
nan

$$$$
CHEMBL3120972
     RDKit          3D

  0  0  0  0  0  0  0  0  0  0999 V3000
M  V30 BEGIN CTAB
M  V30 COUNTS 33 35 0 0 0
M  V30 BEGIN ATOM
M  V30 1 C -4.980342 -2.709334 0.615568 0
M  V30 2 C -3.851570 -2.271978 0.564977 0
M  V30 3 C -2.512953 -1.751552 0.520538 0
M  V30 4 N -1.470137 -2.217019 -0.224193 0
M  V30 5 C -0.417394 -1.420377 0.057233 0
M  V30 6 C 0.838927 -1.682782 -0.596098 0
M  V30 7 C 2.028470 -2.050986 0.022943 0
M  V30 8 C 3.182322 -2.280166 -0.693053 0
M  V30 9 C 3.192578 -2.148995 -2.069415 0
M  V30 10 F 4.335280 -2.377678 -2.755441 0
M  V30 11 C 2.027440 -1.781236 -2.749002 0
M  V30 12 C 0.889643 -1.561231 -1.981692 0
M  V30 13 C -0.807160 -0.465012 0.973056 0
M  V30 14 C 0.072716 0.542073 1.486812 0
M  V30 15 C 0.615640 1.474782 0.600234 0
M  V30 16 C 1.484671 2.498857 0.995671 0
M  V30 17 N 1.813365 2.589472 2.293528 0
M  V30 18 C 1.312638 1.717121 3.157728 0
M  V30 19 C 0.457529 0.700715 2.802594 0
M  V30 20 N -2.108598 -0.691047 1.244001 0
M  V30 21 C -2.850717 0.140660 2.181016 0
M  V30 22 H -5.987190 -3.082013 0.653058 0
M  V30 23 H 1.996427 -2.147962 1.107948 0
M  V30 24 H 4.071572 -2.564882 -0.137638 0
M  V30 25 H 2.019278 -1.675629 -3.814295 0
M  V30 26 H 0.007805 -1.277781 -2.546068 0
M  V30 27 H 0.363517 1.423090 -0.463909 0
M  V30 28 H 1.874719 3.194052 0.259651 0
M  V30 29 H 1.584387 1.797358 4.209290 0
M  V30 30 H 0.049279 -0.008453 3.500329 0
M  V30 31 H -2.858922 -0.274765 3.207174 0
M  V30 32 H -3.920804 0.181808 1.871377 0
M  V30 33 H -2.511436 1.198818 2.141186 0
M  V30 END ATOM
M  V30 BEGIN BOND
M  V30 1 3 1 2
M  V30 2 1 2 3
M  V30 3 2 3 4
M  V30 4 1 4 5
M  V30 5 1 5 6
M  V30 6 2 6 7
M  V30 7 1 7 8
M  V30 8 2 8 9
M  V30 9 1 9 10
M  V30 10 1 9 11
M  V30 11 2 11 12
M  V30 12 2 5 13
M  V30 13 1 13 14
M  V30 14 2 14 15
M  V30 15 1 15 16
M  V30 16 2 16 17
M  V30 17 1 17 18
M  V30 18 2 18 19
M  V30 19 1 13 20
M  V30 20 1 20 21
M  V30 21 1 20 3
M  V30 22 1 12 6
M  V30 23 1 19 14
M  V30 24 1 1 22
M  V30 25 1 7 23
M  V30 26 1 8 24
M  V30 27 1 11 25
M  V30 28 1 12 26
M  V30 29 1 15 27
M  V30 30 1 16 28
M  V30 31 1 18 29
M  V30 32 1 19 30
M  V30 33 1 21 31
M  V30 34 1 21 32
M  V30 35 1 21 33
M  V30 END BOND
M  V30 END CTAB
M  END
>  <Dataset>  (621) 
ChEMBL_Kinases

>  <Ligand_Instance>  (621) 
nan

>  <PDB_ID>  (621) 
nan

>  <Standardized_SMILES>  (621) 
C#Cc1nc(-c2ccc(F)cc2)c(-c2ccncc2)n1C

>  <Name>  (621) 
nan

>  <Pocket>  (621) 
nan

>  <ATP_Site>  (621) 
nan

>  <Peripheral>  (621) 
nan

>  <Num_H_Atoms_ProtBoundConf>  (621) 
nan

>  <Num_Resolved_Atoms>  (621) 
nan

>  <Num_Not_Resolved_Atoms>  (621) 
nan

$$$$
CHEMBL3120971
     RDKit          3D

  0  0  0  0  0  0  0  0  0  0999 V3000
M  V30 BEGIN CTAB
M  V30 COUNTS 31 33 0 0 0
M  V30 BEGIN ATOM
M  V30 1 C -0.525273 -1.571626 4.203758 0
M  V30 2 N 0.104476 -1.916455 2.943611 0
M  V30 3 C 0.864702 -3.015860 2.660460 0
M  V30 4 N 1.252872 -2.937185 1.352083 0
M  V30 5 C 0.730868 -1.788400 0.830874 0
M  V30 6 C 1.049548 -1.543854 -0.569601 0
M  V30 7 C 1.796380 -0.408231 -0.905768 0
M  V30 8 C 2.134520 -0.118220 -2.225109 0
M  V30 9 C 1.707672 -0.993420 -3.208811 0
M  V30 10 F 2.018886 -0.742375 -4.503417 0
M  V30 11 C 0.976457 -2.103264 -2.869575 0
M  V30 12 C 0.631397 -2.407834 -1.570187 0
M  V30 13 C 0.022978 -1.168505 1.828187 0
M  V30 14 C -0.637241 0.072768 1.550985 0
M  V30 15 C -0.201301 1.170180 2.265225 0
M  V30 16 C -0.751580 2.434129 2.098702 0
M  V30 17 N -1.753886 2.573459 1.195278 0
M  V30 18 C -2.202409 1.520744 0.481726 0
M  V30 19 C -1.672652 0.236908 0.623607 0
M  V30 20 H -1.610212 -1.850926 4.058401 0
M  V30 21 H -0.486105 -0.487694 4.334090 0
M  V30 22 H -0.068358 -2.143423 5.018559 0
M  V30 23 H 1.121759 -3.815335 3.342215 0
M  V30 24 H 2.110088 0.250569 -0.102374 0
M  V30 25 H 2.717089 0.769086 -2.476088 0
M  V30 26 H 0.633174 -2.804335 -3.642438 0
M  V30 27 H 0.054663 -3.278214 -1.285652 0
M  V30 28 H 0.592246 1.201850 3.018677 0
M  V30 29 H -0.452721 3.326500 2.628101 0
M  V30 30 H -3.017204 1.638968 -0.250211 0
M  V30 31 H -1.986196 -0.624318 0.090158 0
M  V30 END ATOM
M  V30 BEGIN BOND
M  V30 1 1 1 2
M  V30 2 1 2 3
M  V30 3 2 3 4
M  V30 4 1 4 5
M  V30 5 1 5 6
M  V30 6 2 6 7
M  V30 7 1 7 8
M  V30 8 2 8 9
M  V30 9 1 9 10
M  V30 10 1 9 11
M  V30 11 2 11 12
M  V30 12 2 5 13
M  V30 13 1 13 14
M  V30 14 2 14 15
M  V30 15 1 15 16
M  V30 16 2 16 17
M  V30 17 1 17 18
M  V30 18 2 18 19
M  V30 19 1 13 2
M  V30 20 1 19 14
M  V30 21 1 12 6
M  V30 22 1 1 20
M  V30 23 1 1 21
M  V30 24 1 1 22
M  V30 25 1 3 23
M  V30 26 1 7 24
M  V30 27 1 8 25
M  V30 28 1 11 26
M  V30 29 1 12 27
M  V30 30 1 15 28
M  V30 31 1 16 29
M  V30 32 1 18 30
M  V30 33 1 19 31
M  V30 END BOND
M  V30 END CTAB
M  END
>  <Dataset>  (622) 
ChEMBL_Kinases

>  <Ligand_Instance>  (622) 
nan

>  <PDB_ID>  (622) 
nan

>  <Standardized_SMILES>  (622) 
Cn1cnc(-c2ccc(F)cc2)c1-c1ccncc1

>  <Name>  (622) 
nan

>  <Pocket>  (622) 
nan

>  <ATP_Site>  (622) 
nan

>  <Peripheral>  (622) 
nan

>  <Num_H_Atoms_ProtBoundConf>  (622) 
nan

>  <Num_Resolved_Atoms>  (622) 
nan

>  <Num_Not_Resolved_Atoms>  (622) 
nan

$$$$
CHEMBL3120970
     RDKit          3D

  0  0  0  0  0  0  0  0  0  0999 V3000
M  V30 BEGIN CTAB
M  V30 COUNTS 52 56 0 0 0
M  V30 BEGIN ATOM
M  V30 1 C -1.081770 -3.930190 1.102850 0
M  V30 2 C 0.421111 -4.211702 1.075968 0 CFG=2
M  V30 3 N 1.159519 -3.471508 2.042768 0
M  V30 4 C 1.248661 -2.114081 2.445307 0
M  V30 5 N 2.061061 -1.507831 3.364156 0
M  V30 6 C 1.916211 -0.192576 3.570759 0
M  V30 7 C 1.019706 0.643395 2.947641 0
M  V30 8 C 0.221056 -0.004056 2.030459 0
M  V30 9 C -0.776180 0.796507 1.307872 0
M  V30 10 C -0.363530 1.884084 0.528937 0
M  V30 11 C 0.940498 2.471066 0.241766 0
M  V30 12 C 0.996298 3.795501 0.693217 0
M  V30 13 C 2.135384 4.559349 0.533229 0
M  V30 14 C 3.244060 3.985631 -0.092603 0
M  V30 15 F 4.401067 4.706609 -0.274111 0
M  V30 16 C 3.184756 2.679130 -0.536574 0
M  V30 17 C 2.044452 1.919339 -0.374571 0
M  V30 18 N -1.507977 2.385933 0.009658 0
M  V30 19 C -2.568185 1.657079 0.437829 0
M  V30 20 N -3.913925 1.712755 0.232602 0
M  V30 21 C -4.748846 0.827489 0.805297 0
M  V30 22 N -6.146214 0.925455 0.561274 0
M  V30 23 C -4.249716 -0.178073 1.631150 0
M  V30 24 C -2.889831 -0.249091 1.849709 0
M  V30 25 N -2.111666 0.676947 1.239112 0
M  V30 26 N 0.361932 -1.316048 1.821605 0
M  V30 27 C 0.895467 -4.160078 -0.311202 0
M  V30 28 C 0.926515 -5.339297 -1.075146 0
M  V30 29 C 1.335432 -5.494634 -2.373581 0
M  V30 30 C 1.771301 -4.353437 -3.011910 0
M  V30 31 C 1.780523 -3.145334 -2.350082 0
M  V30 32 C 1.349766 -3.088128 -1.043601 0
M  V30 33 H -1.421622 -3.595377 2.100687 0
M  V30 34 H -1.256588 -3.148299 0.311855 0
M  V30 35 H -1.593218 -4.858116 0.775497 0
M  V30 36 H 0.517941 -5.312282 1.389932 0
M  V30 37 H 1.850977 -3.976578 2.676038 0
M  V30 38 H 2.635575 0.138045 4.330165 0
M  V30 39 H 0.993634 1.676724 3.191856 0
M  V30 40 H 0.201061 4.340616 1.190584 0
M  V30 41 H 2.221998 5.591531 0.868399 0
M  V30 42 H 4.017977 2.190308 -1.027434 0
M  V30 43 H 1.881048 0.897053 -0.677893 0
M  V30 44 H -6.816057 1.433052 1.212684 0
M  V30 45 H -7.045491 1.302197 0.927441 0
M  V30 46 H -4.922069 -0.892023 2.092951 0
M  V30 47 H -2.449185 -1.008354 2.480872 0
M  V30 48 H 0.582492 -6.259100 -0.585242 0
M  V30 49 H 1.312244 -6.454105 -2.853450 0
M  V30 50 H 2.098187 -4.454564 -4.036444 0
M  V30 51 H 2.122108 -2.244697 -2.844922 0
M  V30 52 H 1.376388 -2.132780 -0.569674 0
M  V30 END ATOM
M  V30 BEGIN BOND
M  V30 1 1 1 2
M  V30 2 1 2 3
M  V30 3 1 3 4
M  V30 4 2 4 5
M  V30 5 1 5 6
M  V30 6 2 6 7
M  V30 7 1 7 8
M  V30 8 1 8 9
M  V30 9 2 9 10
M  V30 10 1 10 11
M  V30 11 2 11 12
M  V30 12 1 12 13
M  V30 13 2 13 14
M  V30 14 1 14 15
M  V30 15 1 14 16
M  V30 16 2 16 17
M  V30 17 1 10 18
M  V30 18 2 18 19
M  V30 19 1 19 20
M  V30 20 2 20 21
M  V30 21 1 21 22
M  V30 22 1 21 23
M  V30 23 2 23 24
M  V30 24 1 24 25
M  V30 25 2 8 26
M  V30 26 1 2 27
M  V30 27 2 27 28
M  V30 28 1 28 29
M  V30 29 2 29 30
M  V30 30 1 30 31
M  V30 31 2 31 32
M  V30 32 1 26 4
M  V30 33 1 32 27
M  V30 34 1 25 9
M  V30 35 1 17 11
M  V30 36 1 25 19
M  V30 37 1 1 33
M  V30 38 1 1 34
M  V30 39 1 1 35
M  V30 40 1 2 36 CFG=1
M  V30 41 1 3 37
M  V30 42 1 6 38
M  V30 43 1 7 39
M  V30 44 1 12 40
M  V30 45 1 13 41
M  V30 46 1 16 42
M  V30 47 1 17 43
M  V30 48 1 22 44
M  V30 49 1 22 45
M  V30 50 1 23 46
M  V30 51 1 24 47
M  V30 52 1 28 48
M  V30 53 1 29 49
M  V30 54 1 30 50
M  V30 55 1 31 51
M  V30 56 1 32 52
M  V30 END BOND
M  V30 END CTAB
M  END
>  <Dataset>  (623) 
ChEMBL_Kinases

>  <Ligand_Instance>  (623) 
nan

>  <PDB_ID>  (623) 
nan

>  <Standardized_SMILES>  (623) 
C[C@H](Nc1nccc(-c2c(-c3ccc(F)cc3)nc3nc(N)ccn23)n1)c1ccccc1

>  <Name>  (623) 
nan

>  <Pocket>  (623) 
nan

>  <ATP_Site>  (623) 
nan

>  <Peripheral>  (623) 
nan

>  <Num_H_Atoms_ProtBoundConf>  (623) 
nan

>  <Num_Resolved_Atoms>  (623) 
nan

>  <Num_Not_Resolved_Atoms>  (623) 
nan

$$$$
CHEMBL3120968
     RDKit          3D

  0  0  0  0  0  0  0  0  0  0999 V3000
M  V30 BEGIN CTAB
M  V30 COUNTS 49 52 0 0 0
M  V30 BEGIN ATOM
M  V30 1 C 0.592837 -2.908394 1.379448 0
M  V30 2 N -0.253038 -1.737799 1.193291 0
M  V30 3 C 0.135954 -0.482563 1.484564 0
M  V30 4 C 1.408827 0.010665 2.022578 0
M  V30 5 C 2.411341 0.304108 1.090456 0
M  V30 6 N 3.461689 0.731162 1.819633 0
M  V30 7 C 4.754071 1.154485 1.260122 0
M  V30 8 C 5.665827 1.609352 2.350106 0
M  V30 9 C 4.439976 2.180295 0.220018 0
M  V30 10 C 5.357431 -0.044145 0.586195 0
M  V30 11 O 5.659159 -0.096215 -0.628896 0
M  V30 12 O 5.643470 -1.227129 1.253131 0
M  V30 13 N 3.152333 0.711563 3.119447 0
M  V30 14 N 1.903905 0.274709 3.261547 0
M  V30 15 N -0.884365 0.357056 1.194619 0
M  V30 16 C -1.901974 -0.401426 0.722364 0
M  V30 17 C -3.168001 0.196097 0.311562 0
M  V30 18 C -3.677970 0.147265 -0.989920 0
M  V30 19 C -4.898826 0.756574 -1.258149 0
M  V30 20 C -5.599133 1.398645 -0.264667 0
M  V30 21 F -6.777372 1.980132 -0.549570 0
M  V30 22 C -5.100740 1.452830 1.032637 0
M  V30 23 C -3.883996 0.847262 1.306577 0
M  V30 24 C -1.512295 -1.724650 0.718074 0
M  V30 25 C -2.312517 -2.835091 0.287563 0
M  V30 26 C -3.500722 -3.290508 0.820874 0
M  V30 27 C -4.166875 -4.382976 0.296745 0
M  V30 28 N -3.644066 -5.029231 -0.770264 0
M  V30 29 C -2.485428 -4.643140 -1.347266 0
M  V30 30 C -1.839394 -3.549048 -0.805012 0
M  V30 31 H 1.281844 -3.087293 0.542061 0
M  V30 32 H -0.006711 -3.806845 1.676045 0
M  V30 33 H 1.261951 -2.721769 2.265611 0
M  V30 34 H 2.437368 0.237652 0.011373 0
M  V30 35 H 6.458810 0.864634 2.571644 0
M  V30 36 H 5.101277 1.771115 3.297827 0
M  V30 37 H 6.155014 2.544671 2.002381 0
M  V30 38 H 5.352743 2.671004 -0.173682 0
M  V30 39 H 3.682264 2.888745 0.591283 0
M  V30 40 H 3.941641 1.632110 -0.620239 0
M  V30 41 H 5.432680 -2.152866 0.905327 0
M  V30 42 H -3.058267 -0.380512 -1.710358 0
M  V30 43 H -5.248195 0.689094 -2.283850 0
M  V30 44 H -5.679277 1.969627 1.800098 0
M  V30 45 H -3.533378 0.917711 2.345727 0
M  V30 46 H -3.863399 -2.723115 1.678533 0
M  V30 47 H -5.094212 -4.712236 0.738487 0
M  V30 48 H -2.089453 -5.181757 -2.203750 0
M  V30 49 H -0.919908 -3.287305 -1.306725 0
M  V30 END ATOM
M  V30 BEGIN BOND
M  V30 1 1 1 2
M  V30 2 1 2 3
M  V30 3 1 3 4
M  V30 4 2 4 5
M  V30 5 1 5 6
M  V30 6 1 6 7
M  V30 7 1 7 8
M  V30 8 1 7 9
M  V30 9 1 7 10
M  V30 10 2 10 11
M  V30 11 1 10 12
M  V30 12 1 6 13
M  V30 13 2 13 14
M  V30 14 2 3 15
M  V30 15 1 15 16
M  V30 16 1 16 17
M  V30 17 2 17 18
M  V30 18 1 18 19
M  V30 19 2 19 20
M  V30 20 1 20 21
M  V30 21 1 20 22
M  V30 22 2 22 23
M  V30 23 2 16 24
M  V30 24 1 24 25
M  V30 25 2 25 26
M  V30 26 1 26 27
M  V30 27 2 27 28
M  V30 28 1 28 29
M  V30 29 2 29 30
M  V30 30 1 24 2
M  V30 31 1 30 25
M  V30 32 1 14 4
M  V30 33 1 23 17
M  V30 34 1 1 31
M  V30 35 1 1 32
M  V30 36 1 1 33
M  V30 37 1 5 34
M  V30 38 1 8 35
M  V30 39 1 8 36
M  V30 40 1 8 37
M  V30 41 1 9 38
M  V30 42 1 9 39
M  V30 43 1 9 40
M  V30 44 1 12 41
M  V30 45 1 18 42
M  V30 46 1 19 43
M  V30 47 1 22 44
M  V30 48 1 23 45
M  V30 49 1 26 46
M  V30 50 1 27 47
M  V30 51 1 29 48
M  V30 52 1 30 49
M  V30 END BOND
M  V30 END CTAB
M  END
>  <Dataset>  (624) 
ChEMBL_Kinases

>  <Ligand_Instance>  (624) 
nan

>  <PDB_ID>  (624) 
nan

>  <Standardized_SMILES>  (624) 
Cn1c(-c2cn(C(C)(C)C(=O)O)nn2)nc(-c2ccc(F)cc2)c1-c1ccncc1

>  <Name>  (624) 
nan

>  <Pocket>  (624) 
nan

>  <ATP_Site>  (624) 
nan

>  <Peripheral>  (624) 
nan

>  <Num_H_Atoms_ProtBoundConf>  (624) 
nan

>  <Num_Resolved_Atoms>  (624) 
nan

>  <Num_Not_Resolved_Atoms>  (624) 
nan

$$$$
CHEMBL3125370
     RDKit          3D

  0  0  0  0  0  0  0  0  0  0999 V3000
M  V30 BEGIN CTAB
M  V30 COUNTS 33 36 0 0 0
M  V30 BEGIN ATOM
M  V30 1 O 3.377808 0.407022 0.958224 0
M  V30 2 C 2.821061 -0.374055 0.127806 0
M  V30 3 N 3.394936 -1.136188 -0.912601 0
M  V30 4 C 2.280042 -1.821198 -1.500333 0
M  V30 5 C 2.497791 -2.738442 -2.525903 0
M  V30 6 C 1.425419 -3.451516 -2.993168 0
M  V30 7 Br 1.601844 -4.726378 -4.392787 0
M  V30 8 C 0.178301 -3.211256 -2.404287 0
M  V30 9 C 0.117414 -2.277900 -1.407611 0
M  V30 10 C 1.098501 -1.507501 -0.869008 0
M  V30 11 C 1.384224 -0.568710 0.189207 0
M  V30 12 C 0.556251 -0.258045 1.102745 0
M  V30 13 N 0.658961 0.292771 2.317595 0
M  V30 14 C -0.465654 0.718787 2.907550 0
M  V30 15 C -0.596862 1.299401 4.147418 0
M  V30 16 C -1.887871 1.628580 4.499788 0
M  V30 17 C -2.949449 1.385046 3.657823 0
M  V30 18 C -2.728161 0.800005 2.433480 0
M  V30 19 C -1.478365 0.427405 1.973209 0
M  V30 20 C -0.791323 -0.154349 0.900115 0
M  V30 21 C -1.596529 -0.143850 -0.148118 0
M  V30 22 O -2.956813 -0.052929 -0.389565 0
M  V30 23 H 4.420392 -1.105731 -1.094374 0
M  V30 24 H 3.421590 -2.954525 -3.002755 0
M  V30 25 H -0.638291 -3.796770 -2.799304 0
M  V30 26 H -0.880141 -2.311044 -1.010813 0
M  V30 27 H 1.640151 0.347473 2.715405 0
M  V30 28 H 0.259235 1.474537 4.779490 0
M  V30 29 H -2.059624 2.088589 5.463039 0
M  V30 30 H -3.977498 1.626281 3.892828 0
M  V30 31 H -3.535309 0.592694 1.748572 0
M  V30 32 H -1.215213 -0.202589 -1.150892 0
M  V30 33 H -3.435837 0.722314 -0.777669 0
M  V30 END ATOM
M  V30 BEGIN BOND
M  V30 1 2 1 2
M  V30 2 1 2 3
M  V30 3 1 3 4
M  V30 4 2 4 5
M  V30 5 1 5 6
M  V30 6 1 6 7
M  V30 7 2 6 8
M  V30 8 1 8 9
M  V30 9 2 9 10
M  V30 10 1 10 11
M  V30 11 2 11 12
M  V30 12 1 12 13
M  V30 13 1 13 14
M  V30 14 2 14 15
M  V30 15 1 15 16
M  V30 16 2 16 17
M  V30 17 1 17 18
M  V30 18 2 18 19
M  V30 19 1 19 20
M  V30 20 2 20 21
M  V30 21 1 21 22
M  V30 22 1 11 2
M  V30 23 1 20 12
M  V30 24 1 10 4
M  V30 25 1 19 14
M  V30 26 1 3 23
M  V30 27 1 5 24
M  V30 28 1 8 25
M  V30 29 1 9 26
M  V30 30 1 13 27
M  V30 31 1 15 28
M  V30 32 1 16 29
M  V30 33 1 17 30
M  V30 34 1 18 31
M  V30 35 1 21 32
M  V30 36 1 22 33
M  V30 END BOND
M  V30 END CTAB
M  END
>  <Dataset>  (625) 
ChEMBL_Kinases

>  <Ligand_Instance>  (625) 
nan

>  <PDB_ID>  (625) 
nan

>  <Standardized_SMILES>  (625) 
O=C1Nc2cc(Br)ccc2/C1=c1/[nH]c2ccccc2/c1=C\O

>  <Name>  (625) 
nan

>  <Pocket>  (625) 
nan

>  <ATP_Site>  (625) 
nan

>  <Peripheral>  (625) 
nan

>  <Num_H_Atoms_ProtBoundConf>  (625) 
nan

>  <Num_Resolved_Atoms>  (625) 
nan

>  <Num_Not_Resolved_Atoms>  (625) 
nan

$$$$
CHEMBL3113148
     RDKit          3D

  0  0  0  0  0  0  0  0  0  0999 V3000
M  V30 BEGIN CTAB
M  V30 COUNTS 47 50 0 0 0
M  V30 BEGIN ATOM
M  V30 1 Cl 1.940724 -6.872957 2.476159 0
M  V30 2 C 1.569371 -5.413348 1.575932 0
M  V30 3 C 2.454865 -4.785978 0.727537 0
M  V30 4 C 2.080693 -3.639410 0.056927 0
M  V30 5 C 0.818504 -3.067971 0.197817 0
M  V30 6 C 0.403666 -1.827453 -0.522091 0
M  V30 7 N 1.478545 -0.824981 -0.431656 0
M  V30 8 C 1.085959 0.392851 -1.127735 0
M  V30 9 C 2.108562 1.445830 -1.065142 0
M  V30 10 C 3.157821 1.711528 -1.917731 0
M  V30 11 C 3.986089 2.774212 -1.632022 0
M  V30 12 C 3.818115 3.577555 -0.544740 0
M  V30 13 C 2.765952 3.332192 0.333960 0
M  V30 14 C 1.917298 2.258117 0.057795 0
M  V30 15 C -0.709815 -1.233231 0.303764 0
M  V30 16 C -0.303307 -0.699377 1.533139 0
M  V30 17 C -1.156298 -0.107009 2.442239 0
M  V30 18 C -2.490417 -0.059393 2.073607 0
M  V30 19 C -3.420989 0.561259 3.010835 0
M  V30 20 C -3.225021 0.500521 4.389056 0
M  V30 21 N -4.235467 1.157522 5.002163 0
M  V30 22 N -5.067424 1.634465 4.070326 0
M  V30 23 C -4.590300 1.282828 2.851626 0
M  V30 24 C -2.915338 -0.575735 0.873656 0
M  V30 25 C -2.048436 -1.164449 -0.023105 0
M  V30 26 C -0.067683 -3.719180 1.063844 0
M  V30 27 C 0.309654 -4.878710 1.742475 0
M  V30 28 H 3.432430 -5.230246 0.619559 0
M  V30 29 H 2.788865 -3.178692 -0.591976 0
M  V30 30 H 0.100213 -2.010685 -1.552633 0
M  V30 31 H 2.369053 -1.192421 -0.777817 0
M  V30 32 H 0.085065 0.730041 -0.851165 0
M  V30 33 H 1.025901 0.086192 -2.212244 0
M  V30 34 H 3.211183 1.023197 -2.750034 0
M  V30 35 H 4.802698 2.935794 -2.346154 0
M  V30 36 H 4.487202 4.407420 -0.346197 0
M  V30 37 H 2.650767 3.978363 1.186562 0
M  V30 38 H 1.130454 2.160508 0.811514 0
M  V30 39 H 0.755446 -0.731630 1.837096 0
M  V30 40 H -0.779688 0.286641 3.375774 0
M  V30 41 H -2.432446 0.032544 4.971077 0
M  V30 42 H -5.955363 2.194025 4.213577 0
M  V30 43 H -4.970040 1.475629 1.864378 0
M  V30 44 H -3.944777 -0.539810 0.587784 0
M  V30 45 H -2.294834 -1.593860 -0.983792 0
M  V30 46 H -1.046837 -3.265524 1.165475 0
M  V30 47 H -0.490526 -5.271457 2.382175 0
M  V30 END ATOM
M  V30 BEGIN BOND
M  V30 1 1 1 2
M  V30 2 2 2 3
M  V30 3 1 3 4
M  V30 4 2 4 5
M  V30 5 1 5 6
M  V30 6 1 6 7
M  V30 7 1 7 8
M  V30 8 1 8 9
M  V30 9 2 9 10
M  V30 10 1 10 11
M  V30 11 2 11 12
M  V30 12 1 12 13
M  V30 13 2 13 14
M  V30 14 1 6 15
M  V30 15 2 15 16
M  V30 16 1 16 17
M  V30 17 2 17 18
M  V30 18 1 18 19
M  V30 19 1 19 20
M  V30 20 2 20 21
M  V30 21 1 21 22
M  V30 22 1 22 23
M  V30 23 1 18 24
M  V30 24 2 24 25
M  V30 25 1 5 26
M  V30 26 2 26 27
M  V30 27 1 27 2
M  V30 28 1 14 9
M  V30 29 1 25 15
M  V30 30 2 23 19
M  V30 31 1 3 28
M  V30 32 1 4 29
M  V30 33 1 6 30
M  V30 34 1 7 31
M  V30 35 1 8 32
M  V30 36 1 8 33
M  V30 37 1 10 34
M  V30 38 1 11 35
M  V30 39 1 12 36
M  V30 40 1 13 37
M  V30 41 1 14 38
M  V30 42 1 16 39
M  V30 43 1 17 40
M  V30 44 1 20 41
M  V30 45 1 22 42
M  V30 46 1 23 43
M  V30 47 1 24 44
M  V30 48 1 25 45
M  V30 49 1 26 46
M  V30 50 1 27 47
M  V30 END BOND
M  V30 END CTAB
M  END
>  <Dataset>  (626) 
ChEMBL_Kinases

>  <Ligand_Instance>  (626) 
nan

>  <PDB_ID>  (626) 
nan

>  <Standardized_SMILES>  (626) 
Clc1ccc(C(NCc2ccccc2)c2ccc(-c3cn[nH]c3)cc2)cc1

>  <Name>  (626) 
nan

>  <Pocket>  (626) 
nan

>  <ATP_Site>  (626) 
nan

>  <Peripheral>  (626) 
nan

>  <Num_H_Atoms_ProtBoundConf>  (626) 
nan

>  <Num_Resolved_Atoms>  (626) 
nan

>  <Num_Not_Resolved_Atoms>  (626) 
nan

$$$$
CHEMBL3113149
     RDKit          3D

  0  0  0  0  0  0  0  0  0  0999 V3000
M  V30 BEGIN CTAB
M  V30 COUNTS 41 43 0 0 0
M  V30 BEGIN ATOM
M  V30 1 O 2.370604 -4.622691 2.851335 0
M  V30 2 C 2.053208 -4.128096 1.580795 0
M  V30 3 C 2.415200 -2.663163 1.418597 0
M  V30 4 N 2.061688 -2.191499 0.097551 0
M  V30 5 C 2.194928 -0.730373 0.014469 0
M  V30 6 C 1.768535 -0.339635 -1.367512 0
M  V30 7 C 1.436441 -1.138669 -2.420477 0
M  V30 8 C 1.060222 -0.597986 -3.648096 0
M  V30 9 C 1.036506 0.795861 -3.757443 0
M  V30 10 Cl 0.545466 1.382763 -5.344694 0
M  V30 11 C 1.367594 1.618999 -2.710661 0
M  V30 12 C 1.737384 1.055792 -1.502475 0
M  V30 13 C 1.080390 -0.233812 0.910469 0
M  V30 14 C 1.202770 0.609978 1.974274 0
M  V30 15 C 0.064087 0.928470 2.677826 0
M  V30 16 C -1.198914 0.463078 2.392238 0
M  V30 17 C -2.325565 0.839631 3.234140 0
M  V30 18 C -3.397284 -0.051730 3.381020 0
M  V30 19 N -4.273804 0.526883 4.215435 0
M  V30 20 N -3.833012 1.726913 4.611988 0
M  V30 21 C -2.631789 1.923310 4.006258 0
M  V30 22 C -1.296457 -0.397901 1.296210 0
M  V30 23 C -0.178914 -0.745263 0.563365 0
M  V30 24 H 1.627699 -4.368356 3.455732 0
M  V30 25 H 0.942775 -4.190112 1.408462 0
M  V30 26 H 2.543263 -4.715225 0.795323 0
M  V30 27 H 2.026958 -2.052425 2.244800 0
M  V30 28 H 3.539874 -2.635120 1.538993 0
M  V30 29 H 1.104927 -2.443222 -0.152187 0
M  V30 30 H 3.167452 -0.356086 0.311527 0
M  V30 31 H 1.498755 -2.174060 -2.194152 0
M  V30 32 H 0.810056 -1.279802 -4.444539 0
M  V30 33 H 1.293275 2.657971 -2.981999 0
M  V30 34 H 1.973445 1.829876 -0.762939 0
M  V30 35 H 2.201839 0.964709 2.178126 0
M  V30 36 H 0.186739 1.599477 3.514388 0
M  V30 37 H -3.567912 -1.032187 2.948800 0
M  V30 38 H -4.289214 2.429603 5.263551 0
M  V30 39 H -1.934265 2.762368 4.046337 0
M  V30 40 H -2.330642 -0.724121 1.133736 0
M  V30 41 H -0.501472 -1.400197 -0.223489 0
M  V30 END ATOM
M  V30 BEGIN BOND
M  V30 1 1 1 2
M  V30 2 1 2 3
M  V30 3 1 3 4
M  V30 4 1 4 5
M  V30 5 1 5 6
M  V30 6 2 6 7
M  V30 7 1 7 8
M  V30 8 2 8 9
M  V30 9 1 9 10
M  V30 10 1 9 11
M  V30 11 2 11 12
M  V30 12 1 5 13
M  V30 13 2 13 14
M  V30 14 1 14 15
M  V30 15 2 15 16
M  V30 16 1 16 17
M  V30 17 1 17 18
M  V30 18 2 18 19
M  V30 19 1 19 20
M  V30 20 1 20 21
M  V30 21 1 16 22
M  V30 22 2 22 23
M  V30 23 1 12 6
M  V30 24 1 23 13
M  V30 25 2 21 17
M  V30 26 1 1 24
M  V30 27 1 2 25
M  V30 28 1 2 26
M  V30 29 1 3 27
M  V30 30 1 3 28
M  V30 31 1 4 29
M  V30 32 1 5 30
M  V30 33 1 7 31
M  V30 34 1 8 32
M  V30 35 1 11 33
M  V30 36 1 12 34
M  V30 37 1 14 35
M  V30 38 1 15 36
M  V30 39 1 18 37
M  V30 40 1 20 38
M  V30 41 1 21 39
M  V30 42 1 22 40
M  V30 43 1 23 41
M  V30 END BOND
M  V30 END CTAB
M  END
>  <Dataset>  (627) 
ChEMBL_Kinases

>  <Ligand_Instance>  (627) 
nan

>  <PDB_ID>  (627) 
nan

>  <Standardized_SMILES>  (627) 
OCCNC(c1ccc(Cl)cc1)c1ccc(-c2cn[nH]c2)cc1

>  <Name>  (627) 
nan

>  <Pocket>  (627) 
nan

>  <ATP_Site>  (627) 
nan

>  <Peripheral>  (627) 
nan

>  <Num_H_Atoms_ProtBoundConf>  (627) 
nan

>  <Num_Resolved_Atoms>  (627) 
nan

>  <Num_Not_Resolved_Atoms>  (627) 
nan

$$$$
CHEMBL3113150
     RDKit          3D

  0  0  0  0  0  0  0  0  0  0999 V3000
M  V30 BEGIN CTAB
M  V30 COUNTS 42 44 0 0 0
M  V30 BEGIN ATOM
M  V30 1 N -0.131361 -5.413352 -0.869289 0
M  V30 2 C 0.935075 -4.659040 -0.300185 0
M  V30 3 C 0.705974 -3.135073 -0.494598 0
M  V30 4 N 1.796425 -2.490215 0.091874 0
M  V30 5 C 1.912093 -1.096379 0.184875 0
M  V30 6 C 1.855024 -0.308766 -1.048740 0
M  V30 7 C 0.817747 -0.244161 -1.941264 0
M  V30 8 C 0.811899 0.495866 -3.103467 0
M  V30 9 C 1.916562 1.249039 -3.436977 0
M  V30 10 Cl 1.921848 2.193876 -4.909076 0
M  V30 11 C 3.018847 1.255922 -2.604843 0
M  V30 12 C 2.936659 0.485565 -1.463125 0
M  V30 13 C 1.025798 -0.508273 1.246134 0
M  V30 14 C 0.293779 0.630758 0.975529 0
M  V30 15 C -0.549181 1.224785 1.920373 0
M  V30 16 C -0.637180 0.623721 3.180060 0
M  V30 17 C -1.531082 1.263120 4.167278 0
M  V30 18 C -2.281177 0.693344 5.207223 0
M  V30 19 N -2.934679 1.722553 5.822275 0
M  V30 20 N -2.639873 2.855970 5.240182 0
M  V30 21 C -1.779153 2.627636 4.215125 0
M  V30 22 C 0.088456 -0.520199 3.474463 0
M  V30 23 C 0.918985 -1.077539 2.494747 0
M  V30 24 H -0.076770 -6.380747 -0.512881 0
M  V30 25 H -1.039502 -4.971347 -0.701301 0
M  V30 26 H 1.917777 -4.928919 -0.746120 0
M  V30 27 H 1.026905 -4.878410 0.781447 0
M  V30 28 H 0.594037 -2.966652 -1.608523 0
M  V30 29 H -0.293000 -2.947089 -0.062476 0
M  V30 30 H 2.693830 -2.959995 -0.021351 0
M  V30 31 H 2.947008 -0.907861 0.623001 0
M  V30 32 H -0.080268 -0.780659 -1.752058 0
M  V30 33 H -0.041438 0.509075 -3.775743 0
M  V30 34 H 3.905932 1.821233 -2.812122 0
M  V30 35 H 3.827824 0.506269 -0.812740 0
M  V30 36 H 0.318013 1.132514 0.040732 0
M  V30 37 H -1.123640 2.131524 1.683440 0
M  V30 38 H -2.280893 -0.368679 5.408708 0
M  V30 39 H -2.980715 3.820379 5.480576 0
M  V30 40 H -1.367423 3.406528 3.557053 0
M  V30 41 H -0.025380 -0.931295 4.461201 0
M  V30 42 H 1.471110 -1.967571 2.752297 0
M  V30 END ATOM
M  V30 BEGIN BOND
M  V30 1 1 1 2
M  V30 2 1 2 3
M  V30 3 1 3 4
M  V30 4 1 4 5
M  V30 5 1 5 6
M  V30 6 2 6 7
M  V30 7 1 7 8
M  V30 8 2 8 9
M  V30 9 1 9 10
M  V30 10 1 9 11
M  V30 11 2 11 12
M  V30 12 1 5 13
M  V30 13 2 13 14
M  V30 14 1 14 15
M  V30 15 2 15 16
M  V30 16 1 16 17
M  V30 17 1 17 18
M  V30 18 2 18 19
M  V30 19 1 19 20
M  V30 20 1 20 21
M  V30 21 1 16 22
M  V30 22 2 22 23
M  V30 23 1 12 6
M  V30 24 1 23 13
M  V30 25 2 21 17
M  V30 26 1 1 24
M  V30 27 1 1 25
M  V30 28 1 2 26
M  V30 29 1 2 27
M  V30 30 1 3 28
M  V30 31 1 3 29
M  V30 32 1 4 30
M  V30 33 1 5 31
M  V30 34 1 7 32
M  V30 35 1 8 33
M  V30 36 1 11 34
M  V30 37 1 12 35
M  V30 38 1 14 36
M  V30 39 1 15 37
M  V30 40 1 18 38
M  V30 41 1 20 39
M  V30 42 1 21 40
M  V30 43 1 22 41
M  V30 44 1 23 42
M  V30 END BOND
M  V30 END CTAB
M  END
>  <Dataset>  (628) 
ChEMBL_Kinases

>  <Ligand_Instance>  (628) 
nan

>  <PDB_ID>  (628) 
nan

>  <Standardized_SMILES>  (628) 
NCCNC(c1ccc(Cl)cc1)c1ccc(-c2cn[nH]c2)cc1

>  <Name>  (628) 
nan

>  <Pocket>  (628) 
nan

>  <ATP_Site>  (628) 
nan

>  <Peripheral>  (628) 
nan

>  <Num_H_Atoms_ProtBoundConf>  (628) 
nan

>  <Num_Resolved_Atoms>  (628) 
nan

>  <Num_Not_Resolved_Atoms>  (628) 
nan

$$$$
CHEMBL3113284
     RDKit          3D

  0  0  0  0  0  0  0  0  0  0999 V3000
M  V30 BEGIN CTAB
M  V30 COUNTS 54 58 0 0 0
M  V30 BEGIN ATOM
M  V30 1 C 0.311122 -2.167618 6.461516 0
M  V30 2 O -0.039408 -1.275309 5.446867 0
M  V30 3 C 0.744524 -0.879065 4.396867 0
M  V30 4 C 2.047155 -1.315355 4.170389 0
M  V30 5 C 2.759831 -0.850663 3.070765 0
M  V30 6 C 2.198740 0.055541 2.171861 0
M  V30 7 S 3.328178 0.459376 0.904806 0
M  V30 8 O 4.705236 0.657780 1.429447 0
M  V30 9 O 2.831455 1.771716 0.306340 0
M  V30 10 N 3.251928 -0.691171 -0.377892 0
M  V30 11 C 2.126985 -0.965326 -1.180016 0
M  V30 12 C 1.028547 -0.138572 -1.242665 0
M  V30 13 C -0.087102 -0.360362 -2.019221 0
M  V30 14 S -1.499782 0.726653 -2.083949 0
M  V30 15 C -2.744207 0.312428 -0.887490 0
M  V30 16 N -2.645815 -0.723763 -0.003562 0
M  V30 17 C -3.706436 -0.874421 0.828448 0
M  V30 18 N -4.818030 -0.121700 0.867183 0
M  V30 19 C -4.916434 0.908482 -0.011554 0
M  V30 20 N -5.860088 1.833091 -0.241502 0
M  V30 21 C -5.466044 2.643543 -1.241879 0
M  V30 22 N -4.257459 2.185398 -1.612514 0
M  V30 23 C -3.867488 1.112590 -0.884746 0
M  V30 24 C -0.135971 -1.490805 -2.805884 0
M  V30 25 O -1.226532 -1.780548 -3.614042 0
M  V30 26 C 0.944493 -2.345975 -2.772403 0
M  V30 27 C 0.867889 -3.483232 -3.576873 0
M  V30 28 C 1.915756 -4.378455 -3.585696 0
M  V30 29 C 3.023466 -4.155843 -2.812700 0
M  V30 30 C 3.042634 -3.004501 -2.031256 0
M  V30 31 C 2.040381 -2.084254 -1.980028 0
M  V30 32 C 0.913240 0.481182 2.402226 0
M  V30 33 C 0.221032 0.016300 3.489250 0
M  V30 34 O -1.066261 0.483382 3.664797 0
M  V30 35 C -1.704701 1.389871 2.818282 0
M  V30 36 H 1.142420 -2.844883 6.229674 0
M  V30 37 H 0.424677 -1.655511 7.456216 0
M  V30 38 H -0.585876 -2.836393 6.613457 0
M  V30 39 H 2.442163 -2.019060 4.894378 0
M  V30 40 H 3.768050 -1.288450 3.035812 0
M  V30 41 H 4.154803 -1.186646 -0.518277 0
M  V30 42 H 0.974946 0.769942 -0.665598 0
M  V30 43 H -3.636169 -1.693700 1.533007 0
M  V30 44 H -5.974754 3.496799 -1.690721 0
M  V30 45 H -3.696247 2.622089 -2.379586 0
M  V30 46 H -2.054698 -2.259145 -3.323221 0
M  V30 47 H 0.018824 -3.689882 -4.192845 0
M  V30 48 H 1.840952 -5.258386 -4.217059 0
M  V30 49 H 3.852211 -4.869161 -2.822921 0
M  V30 50 H 3.944313 -2.901849 -1.452091 0
M  V30 51 H 0.580858 1.179190 1.649172 0
M  V30 52 H -2.792985 1.418157 3.033248 0
M  V30 53 H -1.267855 2.404063 3.019508 0
M  V30 54 H -1.505510 1.138978 1.743375 0
M  V30 END ATOM
M  V30 BEGIN BOND
M  V30 1 1 1 2
M  V30 2 1 2 3
M  V30 3 2 3 4
M  V30 4 1 4 5
M  V30 5 2 5 6
M  V30 6 1 6 7
M  V30 7 2 7 8
M  V30 8 2 7 9
M  V30 9 1 7 10
M  V30 10 1 10 11
M  V30 11 2 11 12
M  V30 12 1 12 13
M  V30 13 1 13 14
M  V30 14 1 14 15
M  V30 15 2 15 16
M  V30 16 1 16 17
M  V30 17 2 17 18
M  V30 18 1 18 19
M  V30 19 1 19 20
M  V30 20 2 20 21
M  V30 21 1 21 22
M  V30 22 1 22 23
M  V30 23 2 13 24
M  V30 24 1 24 25
M  V30 25 1 24 26
M  V30 26 2 26 27
M  V30 27 1 27 28
M  V30 28 2 28 29
M  V30 29 1 29 30
M  V30 30 2 30 31
M  V30 31 1 6 32
M  V30 32 2 32 33
M  V30 33 1 33 34
M  V30 34 1 34 35
M  V30 35 1 33 3
M  V30 36 1 31 11
M  V30 37 1 23 15
M  V30 38 1 31 26
M  V30 39 2 23 19
M  V30 40 1 1 36
M  V30 41 1 1 37
M  V30 42 1 1 38
M  V30 43 1 4 39
M  V30 44 1 5 40
M  V30 45 1 10 41
M  V30 46 1 12 42
M  V30 47 1 17 43
M  V30 48 1 21 44
M  V30 49 1 22 45
M  V30 50 1 25 46
M  V30 51 1 27 47
M  V30 52 1 28 48
M  V30 53 1 29 49
M  V30 54 1 30 50
M  V30 55 1 32 51
M  V30 56 1 35 52
M  V30 57 1 35 53
M  V30 58 1 35 54
M  V30 END BOND
M  V30 END CTAB
M  END
>  <Dataset>  (629) 
ChEMBL_Kinases

>  <Ligand_Instance>  (629) 
nan

>  <PDB_ID>  (629) 
nan

>  <Standardized_SMILES>  (629) 
COc1ccc(S(=O)(=O)Nc2cc(Sc3ncnc4nc[nH]c34)c(O)c3ccccc23)cc1OC

>  <Name>  (629) 
nan

>  <Pocket>  (629) 
nan

>  <ATP_Site>  (629) 
nan

>  <Peripheral>  (629) 
nan

>  <Num_H_Atoms_ProtBoundConf>  (629) 
nan

>  <Num_Resolved_Atoms>  (629) 
nan

>  <Num_Not_Resolved_Atoms>  (629) 
nan

$$$$
CHEMBL311389
     RDKit          3D

  0  0  0  0  0  0  0  0  0  0999 V3000
M  V30 BEGIN CTAB
M  V30 COUNTS 21 22 0 0 0
M  V30 BEGIN ATOM
M  V30 1 O 0.477480 -0.215951 4.797206 0
M  V30 2 C 1.026377 -0.796535 3.826717 0
M  V30 3 O 1.780628 -1.813646 4.418849 0
M  V30 4 C 0.937655 -0.521972 2.396796 0
M  V30 5 C 1.636619 -1.299476 1.496230 0
M  V30 6 C 1.458194 -0.924809 0.179166 0
M  V30 7 O 2.098229 -1.614388 -0.841896 0
M  V30 8 C 0.649254 0.134101 -0.175217 0
M  V30 9 C 0.504746 0.468970 -1.517730 0
M  V30 10 C -0.314099 1.535812 -1.832229 0
M  V30 11 C -0.995712 2.286307 -0.886389 0
M  V30 12 Cl -2.022944 3.627892 -1.309586 0
M  V30 13 C -0.837693 1.936166 0.440877 0
M  V30 14 C -0.026084 0.875660 0.779746 0
M  V30 15 N 0.140347 0.517627 2.083371 0
M  V30 16 H 1.377002 -2.503710 5.064003 0
M  V30 17 H 2.260970 -2.119286 1.791916 0
M  V30 18 H 2.626499 -2.448021 -0.620378 0
M  V30 19 H 1.019712 -0.091793 -2.287051 0
M  V30 20 H -0.415520 1.780854 -2.862359 0
M  V30 21 H -1.333822 2.471362 1.226516 0
M  V30 END ATOM
M  V30 BEGIN BOND
M  V30 1 2 1 2
M  V30 2 1 2 3
M  V30 3 1 2 4
M  V30 4 2 4 5
M  V30 5 1 5 6
M  V30 6 1 6 7
M  V30 7 2 6 8
M  V30 8 1 8 9
M  V30 9 2 9 10
M  V30 10 1 10 11
M  V30 11 1 11 12
M  V30 12 2 11 13
M  V30 13 1 13 14
M  V30 14 2 14 15
M  V30 15 1 15 4
M  V30 16 1 14 8
M  V30 17 1 3 16
M  V30 18 1 5 17
M  V30 19 1 7 18
M  V30 20 1 9 19
M  V30 21 1 10 20
M  V30 22 1 13 21
M  V30 END BOND
M  V30 END CTAB
M  END
>  <Dataset>  (630) 
ChEMBL_Kinases

>  <Ligand_Instance>  (630) 
nan

>  <PDB_ID>  (630) 
nan

>  <Standardized_SMILES>  (630) 
O=C(O)c1cc(O)c2ccc(Cl)cc2n1

>  <Name>  (630) 
7-CHLOROKYNURENIC ACID

>  <Pocket>  (630) 
nan

>  <ATP_Site>  (630) 
nan

>  <Peripheral>  (630) 
nan

>  <Num_H_Atoms_ProtBoundConf>  (630) 
nan

>  <Num_Resolved_Atoms>  (630) 
nan

>  <Num_Not_Resolved_Atoms>  (630) 
nan

$$$$
CHEMBL3114296
     RDKit          3D

  0  0  0  0  0  0  0  0  0  0999 V3000
M  V30 BEGIN CTAB
M  V30 COUNTS 56 61 0 0 0
M  V30 BEGIN ATOM
M  V30 1 O 9.094402 -3.909389 -1.744689 0
M  V30 2 C 7.950443 -4.159830 -1.250097 0
M  V30 3 O 7.747833 -5.432281 -0.732462 0
M  V30 4 C 6.864713 -3.180735 -1.206736 0
M  V30 5 C 5.634315 -3.536712 -0.644541 0
M  V30 6 C 4.593043 -2.630181 -0.591411 0
M  V30 7 C 4.885784 -1.395615 -1.127552 0
M  V30 8 C 3.782946 -0.375425 -1.091655 0
M  V30 9 C 3.668941 0.908936 -1.500337 0
M  V30 10 N 2.509443 1.487210 -1.289142 0
M  V30 11 C 1.551403 1.064421 -0.799566 0
M  V30 12 C 0.172866 1.493904 -0.457399 0
M  V30 13 C -0.224938 2.777644 -0.765243 0
M  V30 14 C -1.515027 3.115662 -0.422200 0
M  V30 15 C -2.373500 2.221815 0.198335 0
M  V30 16 O -3.604724 2.776772 0.445408 0
M  V30 17 C -1.986390 0.923072 0.514881 0
M  V30 18 C -2.960513 0.046465 1.170692 0
M  V30 19 C -3.432578 0.595120 2.500058 0
M  V30 20 C -4.385991 -0.408360 3.109205 0
M  V30 21 C -5.565075 -0.562215 2.202976 0
M  V30 22 C -5.094212 -1.169804 0.890608 0
M  V30 23 C -4.409494 -2.478804 1.096456 0
M  V30 24 C -3.260326 -2.291642 2.045190 0
M  V30 25 C -3.700279 -1.731672 3.377357 0
M  V30 26 C -2.262629 -1.277167 1.467213 0
M  V30 27 C -4.144154 -0.173436 0.256208 0
M  V30 28 C -0.687339 0.630413 0.153043 0
M  V30 29 S 2.165290 -0.688863 -0.405138 0
M  V30 30 C 6.044309 -0.944488 -1.697504 0
M  V30 31 C 7.062702 -1.909625 -1.721973 0
M  V30 32 H 8.328781 -6.187727 -1.095132 0
M  V30 33 H 5.522593 -4.531086 -0.256725 0
M  V30 34 H 3.638220 -2.860369 -0.171182 0
M  V30 35 H 4.572052 1.330242 -1.969884 0
M  V30 36 H 0.505547 3.388489 -1.240847 0
M  V30 37 H -1.771070 4.145660 -0.691730 0
M  V30 38 H -3.798437 3.537542 1.063531 0
M  V30 39 H -4.022968 1.527750 2.388980 0
M  V30 40 H -2.545645 0.789411 3.142147 0
M  V30 41 H -4.746931 -0.029501 4.106566 0
M  V30 42 H -6.370363 -1.168880 2.662360 0
M  V30 43 H -5.948815 0.445458 1.951408 0
M  V30 44 H -5.924377 -1.332039 0.186004 0
M  V30 45 H -5.065944 -3.252771 1.489567 0
M  V30 46 H -4.000740 -2.804075 0.123439 0
M  V30 47 H -2.683569 -3.232272 2.150675 0
M  V30 48 H -2.818139 -1.513338 3.986459 0
M  V30 49 H -4.436003 -2.387347 3.861465 0
M  V30 50 H -1.798269 -1.688782 0.546204 0
M  V30 51 H -1.540323 -1.076182 2.280103 0
M  V30 52 H -4.707444 0.772856 0.200945 0
M  V30 53 H -3.735232 -0.522654 -0.702437 0
M  V30 54 H -0.325070 -0.362122 0.376093 0
M  V30 55 H 6.153417 0.047130 -2.083330 0
M  V30 56 H 8.020974 -1.626448 -2.161816 0
M  V30 END ATOM
M  V30 BEGIN BOND
M  V30 1 2 1 2
M  V30 2 1 2 3
M  V30 3 1 2 4
M  V30 4 2 4 5
M  V30 5 1 5 6
M  V30 6 2 6 7
M  V30 7 1 7 8
M  V30 8 2 8 9
M  V30 9 1 9 10
M  V30 10 2 10 11
M  V30 11 1 11 12
M  V30 12 2 12 13
M  V30 13 1 13 14
M  V30 14 2 14 15
M  V30 15 1 15 16
M  V30 16 1 15 17
M  V30 17 1 17 18
M  V30 18 1 18 19
M  V30 19 1 19 20
M  V30 20 1 20 21
M  V30 21 1 21 22
M  V30 22 1 22 23
M  V30 23 1 23 24
M  V30 24 1 24 25
M  V30 25 1 24 26
M  V30 26 1 22 27
M  V30 27 2 17 28
M  V30 28 1 11 29
M  V30 29 1 7 30
M  V30 30 2 30 31
M  V30 31 1 31 4
M  V30 32 1 29 8
M  V30 33 1 28 12
M  V30 34 1 26 18
M  V30 35 1 27 18
M  V30 36 1 25 20
M  V30 37 1 3 32
M  V30 38 1 5 33
M  V30 39 1 6 34
M  V30 40 1 9 35
M  V30 41 1 13 36
M  V30 42 1 14 37
M  V30 43 1 16 38
M  V30 44 1 19 39
M  V30 45 1 19 40
M  V30 46 1 20 41
M  V30 47 1 21 42
M  V30 48 1 21 43
M  V30 49 1 22 44
M  V30 50 1 23 45
M  V30 51 1 23 46
M  V30 52 1 24 47
M  V30 53 1 25 48
M  V30 54 1 25 49
M  V30 55 1 26 50
M  V30 56 1 26 51
M  V30 57 1 27 52
M  V30 58 1 27 53
M  V30 59 1 28 54
M  V30 60 1 30 55
M  V30 61 1 31 56
M  V30 END BOND
M  V30 END CTAB
M  END
>  <Dataset>  (631) 
ChEMBL_Kinases

>  <Ligand_Instance>  (631) 
nan

>  <PDB_ID>  (631) 
nan

>  <Standardized_SMILES>  (631) 
O=C(O)c1ccc(-c2cnc(-c3ccc(O)c(C45CC6CC(CC(C6)C4)C5)c3)s2)cc1

>  <Name>  (631) 
nan

>  <Pocket>  (631) 
nan

>  <ATP_Site>  (631) 
nan

>  <Peripheral>  (631) 
nan

>  <Num_H_Atoms_ProtBoundConf>  (631) 
nan

>  <Num_Resolved_Atoms>  (631) 
nan

>  <Num_Not_Resolved_Atoms>  (631) 
nan

$$$$
CHEMBL3114297
     RDKit          3D

  0  0  0  0  0  0  0  0  0  0999 V3000
M  V30 BEGIN CTAB
M  V30 COUNTS 59 64 0 0 0
M  V30 BEGIN ATOM
M  V30 1 C 1.847493 -2.889551 2.793794 0
M  V30 2 C 1.749006 -1.559840 2.151091 0
M  V30 3 C 2.683567 -0.550936 2.399192 0
M  V30 4 C 2.568086 0.689176 1.782165 0
M  V30 5 O 3.571143 1.547414 2.145675 0
M  V30 6 C 1.546499 0.992199 0.906648 0
M  V30 7 C 1.497467 2.319270 0.293690 0
M  V30 8 C 1.394778 3.459893 1.265906 0
M  V30 9 C 1.384736 4.747121 0.467843 0
M  V30 10 C 2.613730 4.933233 -0.378162 0
M  V30 11 C 2.715639 3.797176 -1.343961 0
M  V30 12 C 1.514039 3.809356 -2.251071 0
M  V30 13 C 0.268049 3.702861 -1.410043 0
M  V30 14 C 0.153737 4.823877 -0.408425 0
M  V30 15 C 0.321596 2.362924 -0.687638 0
M  V30 16 C 2.746255 2.519600 -0.533269 0
M  V30 17 C 0.616967 -0.007557 0.658220 0
M  V30 18 C 0.738133 -1.234493 1.273922 0
M  V30 19 C -0.312901 -2.239743 0.938970 0
M  V30 20 N -1.304228 -2.165431 0.183022 0
M  V30 21 C -2.130205 -3.165149 0.009617 0
M  V30 22 C -1.899721 -4.306427 0.668746 0
M  V30 23 C -2.679298 -5.587415 0.650646 0
M  V30 24 C -3.797636 -5.613734 -0.157100 0
M  V30 25 C -4.469514 -6.819310 -0.128175 0
M  V30 26 C -4.046360 -7.883659 0.641696 0
M  V30 27 C -4.773888 -9.156642 0.657917 0
M  V30 28 O -4.422317 -10.137159 1.340166 0
M  V30 29 O -5.921960 -9.389188 -0.084576 0
M  V30 30 C -2.918531 -7.803833 1.433229 0
M  V30 31 C -2.219690 -6.612897 1.430426 0
M  V30 32 S -0.415863 -3.864664 1.562525 0
M  V30 33 H 1.021014 -3.093501 3.511771 0
M  V30 34 H 2.065587 -3.717909 2.098902 0
M  V30 35 H 2.758790 -2.865200 3.463967 0
M  V30 36 H 3.471849 -0.825688 3.092059 0
M  V30 37 H 3.620012 1.799985 3.131996 0
M  V30 38 H 2.319999 3.500375 1.867668 0
M  V30 39 H 0.463946 3.446453 1.855397 0
M  V30 40 H 1.308453 5.589199 1.185695 0
M  V30 41 H 3.486885 5.023236 0.286831 0
M  V30 42 H 2.476361 5.882692 -0.922404 0
M  V30 43 H 3.646010 3.838179 -1.923358 0
M  V30 44 H 1.564760 2.898576 -2.884317 0
M  V30 45 H 1.550848 4.742807 -2.849041 0
M  V30 46 H -0.635787 3.637102 -2.062687 0
M  V30 47 H -0.750593 4.641365 0.197823 0
M  V30 48 H 0.141511 5.771511 -0.951967 0
M  V30 49 H -0.645292 2.136490 -0.194843 0
M  V30 50 H 0.470809 1.605035 -1.480446 0
M  V30 51 H 3.681660 2.463942 0.017749 0
M  V30 52 H 2.795508 1.685200 -1.291088 0
M  V30 53 H -0.196228 0.173837 -0.014808 0
M  V30 54 H -2.951556 -2.967832 -0.674952 0
M  V30 55 H -4.076009 -4.757904 -0.730731 0
M  V30 56 H -5.365970 -6.895312 -0.751860 0
M  V30 57 H -6.257383 -10.334448 -0.299198 0
M  V30 58 H -2.588808 -8.626483 2.029842 0
M  V30 59 H -1.326317 -6.483116 2.028862 0
M  V30 END ATOM
M  V30 BEGIN BOND
M  V30 1 1 1 2
M  V30 2 2 2 3
M  V30 3 1 3 4
M  V30 4 1 4 5
M  V30 5 2 4 6
M  V30 6 1 6 7
M  V30 7 1 7 8
M  V30 8 1 8 9
M  V30 9 1 9 10
M  V30 10 1 10 11
M  V30 11 1 11 12
M  V30 12 1 12 13
M  V30 13 1 13 14
M  V30 14 1 13 15
M  V30 15 1 11 16
M  V30 16 1 6 17
M  V30 17 2 17 18
M  V30 18 1 18 19
M  V30 19 2 19 20
M  V30 20 1 20 21
M  V30 21 2 21 22
M  V30 22 1 22 23
M  V30 23 2 23 24
M  V30 24 1 24 25
M  V30 25 2 25 26
M  V30 26 1 26 27
M  V30 27 2 27 28
M  V30 28 1 27 29
M  V30 29 1 26 30
M  V30 30 2 30 31
M  V30 31 1 22 32
M  V30 32 1 18 2
M  V30 33 1 32 19
M  V30 34 1 15 7
M  V30 35 1 31 23
M  V30 36 1 16 7
M  V30 37 1 14 9
M  V30 38 1 1 33
M  V30 39 1 1 34
M  V30 40 1 1 35
M  V30 41 1 3 36
M  V30 42 1 5 37
M  V30 43 1 8 38
M  V30 44 1 8 39
M  V30 45 1 9 40
M  V30 46 1 10 41
M  V30 47 1 10 42
M  V30 48 1 11 43
M  V30 49 1 12 44
M  V30 50 1 12 45
M  V30 51 1 13 46
M  V30 52 1 14 47
M  V30 53 1 14 48
M  V30 54 1 15 49
M  V30 55 1 15 50
M  V30 56 1 16 51
M  V30 57 1 16 52
M  V30 58 1 17 53
M  V30 59 1 21 54
M  V30 60 1 24 55
M  V30 61 1 25 56
M  V30 62 1 29 57
M  V30 63 1 30 58
M  V30 64 1 31 59
M  V30 END BOND
M  V30 END CTAB
M  END
>  <Dataset>  (632) 
ChEMBL_Kinases

>  <Ligand_Instance>  (632) 
nan

>  <PDB_ID>  (632) 
nan

>  <Standardized_SMILES>  (632) 
Cc1cc(O)c(C23CC4CC(CC(C4)C2)C3)cc1-c1ncc(-c2ccc(C(=O)O)cc2)s1

>  <Name>  (632) 
nan

>  <Pocket>  (632) 
nan

>  <ATP_Site>  (632) 
nan

>  <Peripheral>  (632) 
nan

>  <Num_H_Atoms_ProtBoundConf>  (632) 
nan

>  <Num_Resolved_Atoms>  (632) 
nan

>  <Num_Not_Resolved_Atoms>  (632) 
nan

$$$$
CHEMBL3120966
     RDKit          3D

  0  0  0  0  0  0  0  0  0  0999 V3000
M  V30 BEGIN CTAB
M  V30 COUNTS 46 49 0 0 0
M  V30 BEGIN ATOM
M  V30 1 C 4.680837 -3.680404 0.470051 0
M  V30 2 C 4.197914 -3.785767 -0.977975 0 CFG=1
M  V30 3 C 3.463872 -5.057898 -1.114292 0
M  V30 4 O 3.861654 -5.938312 -1.940993 0
M  V30 5 O 2.330937 -5.310840 -0.343245 0
M  V30 6 N 3.305163 -2.656119 -1.274454 0
M  V30 7 C 2.458210 -2.073151 -0.393982 0
M  V30 8 C 1.786801 -1.038992 -1.058668 0
M  V30 9 C 0.811482 -0.261746 -0.300682 0
M  V30 10 N 0.911035 0.923946 0.331142 0
M  V30 11 C -0.246576 1.264288 0.908537 0
M  V30 12 C -0.414395 2.494605 1.660602 0
M  V30 13 C 0.444301 2.516911 2.767549 0
M  V30 14 C 0.458878 3.604118 3.636448 0
M  V30 15 C -0.372563 4.707582 3.444821 0
M  V30 16 F -0.383751 5.767519 4.260168 0
M  V30 17 C -1.204168 4.645959 2.341681 0
M  V30 18 C -1.235533 3.582316 1.469955 0
M  V30 19 C -1.096591 0.222620 0.607704 0
M  V30 20 C -2.488047 0.144276 1.027729 0
M  V30 21 C -3.592555 0.919462 0.713976 0
M  V30 22 C -4.821646 0.627831 1.259109 0
M  V30 23 N -5.003922 -0.403346 2.104721 0
M  V30 24 C -3.936854 -1.184880 2.432830 0
M  V30 25 C -2.686568 -0.926984 1.908912 0
M  V30 26 N -0.457175 -0.707722 -0.127593 0
M  V30 27 C -1.034418 -1.940639 -0.626458 0
M  V30 28 N 2.271232 -1.055609 -2.316806 0
M  V30 29 N 3.171785 -2.016965 -2.439774 0
M  V30 30 H 5.003671 -2.622630 0.673327 0
M  V30 31 H 5.548857 -4.362784 0.558205 0
M  V30 32 H 3.875635 -3.932185 1.181396 0
M  V30 33 H 5.047370 -3.765385 -1.658130 0
M  V30 34 H 1.996966 -6.273104 -0.176562 0
M  V30 35 H 2.381982 -2.416259 0.628028 0
M  V30 36 H 1.147349 1.745295 3.055813 0
M  V30 37 H 1.105709 3.659617 4.501618 0
M  V30 38 H -1.872469 5.470954 2.140265 0
M  V30 39 H -1.848432 3.476370 0.603755 0
M  V30 40 H -3.331120 1.709495 0.029520 0
M  V30 41 H -5.629467 1.306973 0.942965 0
M  V30 42 H -4.166756 -1.982157 3.110224 0
M  V30 43 H -1.949472 -1.635175 2.265635 0
M  V30 44 H -0.685280 -2.182466 -1.671861 0
M  V30 45 H -2.133290 -1.806327 -0.715036 0
M  V30 46 H -0.782298 -2.818763 -0.012276 0
M  V30 END ATOM
M  V30 BEGIN BOND
M  V30 1 1 1 2
M  V30 2 1 2 3
M  V30 3 2 3 4
M  V30 4 1 3 5
M  V30 5 1 2 6
M  V30 6 1 6 7
M  V30 7 2 7 8
M  V30 8 1 8 9
M  V30 9 2 9 10
M  V30 10 1 10 11
M  V30 11 1 11 12
M  V30 12 2 12 13
M  V30 13 1 13 14
M  V30 14 2 14 15
M  V30 15 1 15 16
M  V30 16 1 15 17
M  V30 17 2 17 18
M  V30 18 2 11 19
M  V30 19 1 19 20
M  V30 20 2 20 21
M  V30 21 1 21 22
M  V30 22 2 22 23
M  V30 23 1 23 24
M  V30 24 2 24 25
M  V30 25 1 19 26
M  V30 26 1 26 27
M  V30 27 1 8 28
M  V30 28 2 28 29
M  V30 29 1 29 6
M  V30 30 1 26 9
M  V30 31 1 18 12
M  V30 32 1 25 20
M  V30 33 1 1 30
M  V30 34 1 1 31
M  V30 35 1 1 32
M  V30 36 1 2 33 CFG=3
M  V30 37 1 5 34
M  V30 38 1 7 35
M  V30 39 1 13 36
M  V30 40 1 14 37
M  V30 41 1 17 38
M  V30 42 1 18 39
M  V30 43 1 21 40
M  V30 44 1 22 41
M  V30 45 1 24 42
M  V30 46 1 25 43
M  V30 47 1 27 44
M  V30 48 1 27 45
M  V30 49 1 27 46
M  V30 END BOND
M  V30 END CTAB
M  END
>  <Dataset>  (633) 
ChEMBL_Kinases

>  <Ligand_Instance>  (633) 
nan

>  <PDB_ID>  (633) 
nan

>  <Standardized_SMILES>  (633) 
C[C@@H](C(=O)O)n1cc(-c2nc(-c3ccc(F)cc3)c(-c3ccncc3)n2C)nn1

>  <Name>  (633) 
nan

>  <Pocket>  (633) 
nan

>  <ATP_Site>  (633) 
nan

>  <Peripheral>  (633) 
nan

>  <Num_H_Atoms_ProtBoundConf>  (633) 
nan

>  <Num_Resolved_Atoms>  (633) 
nan

>  <Num_Not_Resolved_Atoms>  (633) 
nan

$$$$
CHEMBL3114299
     RDKit          3D

  0  0  0  0  0  0  0  0  0  0999 V3000
M  V30 BEGIN CTAB
M  V30 COUNTS 73 78 0 0 0
M  V30 BEGIN ATOM
M  V30 1 C 6.563251 0.890639 4.125074 0
M  V30 2 O 6.490558 0.397243 2.846170 0
M  V30 3 C 6.331609 -0.959280 2.755116 0
M  V30 4 C 5.082705 -1.502151 3.406457 0
M  V30 5 O 3.929507 -0.961748 2.851042 0
M  V30 6 C 2.854367 -1.533198 3.522696 0
M  V30 7 O 1.600887 -1.086727 3.073890 0
M  V30 8 C 1.138675 -1.238552 1.777537 0
M  V30 9 C 1.975894 -1.873050 0.880974 0
M  V30 10 C 1.552540 -2.044305 -0.424222 0
M  V30 11 C 2.469862 -2.732898 -1.377196 0
M  V30 12 C 0.325419 -1.584915 -0.793764 0
M  V30 13 C 0.009676 -1.839191 -2.244741 0
M  V30 14 N 0.316355 -2.251061 -3.236186 0
M  V30 15 C -0.221389 -2.321919 -4.416859 0
M  V30 16 C -1.445975 -1.777319 -4.508455 0
M  V30 17 C -2.454759 -1.601011 -5.622777 0
M  V30 18 C -2.102439 -2.113351 -6.879060 0
M  V30 19 C -3.048852 -1.925322 -7.875171 0
M  V30 20 C -4.239629 -1.279004 -7.620635 0
M  V30 21 C -5.253700 -1.065724 -8.652674 0
M  V30 22 O -6.334143 -0.481169 -8.432912 0
M  V30 23 O -5.105035 -1.493370 -9.965180 0
M  V30 24 C -4.519325 -0.800258 -6.357894 0
M  V30 25 C -3.611193 -0.952977 -5.300506 0
M  V30 26 S -1.688277 -1.207329 -2.823941 0
M  V30 27 C -0.526001 -0.948778 0.085627 0
M  V30 28 C -0.108355 -0.775806 1.389233 0
M  V30 29 C -1.013063 -0.094910 2.356191 0
M  V30 30 C -1.331782 -1.040050 3.491241 0
M  V30 31 C -2.293973 -0.394557 4.465383 0
M  V30 32 C -1.583997 0.799016 5.044948 0
M  V30 33 C -1.292623 1.757697 3.918476 0
M  V30 34 C -2.596392 2.197488 3.256263 0
M  V30 35 C -3.229133 0.975196 2.656316 0
M  V30 36 C -3.572825 0.008619 3.756270 0
M  V30 37 C -2.308646 0.264389 1.685444 0
M  V30 38 C -0.408863 1.199675 2.854685 0
M  V30 39 H 7.408284 0.477115 4.722671 0
M  V30 40 H 5.609527 0.890667 4.686209 0
M  V30 41 H 6.809419 1.987961 4.011457 0
M  V30 42 H 7.219092 -1.517891 3.123916 0
M  V30 43 H 6.255972 -1.218943 1.672888 0
M  V30 44 H 5.059190 -2.593990 3.128738 0
M  V30 45 H 5.082223 -1.468746 4.497897 0
M  V30 46 H 2.907699 -2.626658 3.295296 0
M  V30 47 H 2.916193 -1.443904 4.624951 0
M  V30 48 H 2.954537 -2.244232 1.157516 0
M  V30 49 H 1.854879 -3.488387 -1.912788 0
M  V30 50 H 3.298381 -3.238882 -0.824984 0
M  V30 51 H 2.870358 -2.023128 -2.121703 0
M  V30 52 H 0.212710 -2.768764 -5.312450 0
M  V30 53 H -1.162066 -2.601115 -6.992483 0
M  V30 54 H -2.822996 -2.304512 -8.858810 0
M  V30 55 H -5.591288 -1.136282 -10.753339 0
M  V30 56 H -5.443171 -0.297656 -6.166811 0
M  V30 57 H -3.790092 -0.595442 -4.302917 0
M  V30 58 H -1.470766 -0.622938 -0.295094 0
M  V30 59 H -1.880629 -1.894587 3.018686 0
M  V30 60 H -0.474164 -1.369532 4.074771 0
M  V30 61 H -2.546262 -1.164727 5.222146 0
M  V30 62 H -2.160519 1.319344 5.814767 0
M  V30 63 H -0.601279 0.433949 5.425368 0
M  V30 64 H -0.805096 2.651413 4.399594 0
M  V30 65 H -2.374389 3.006123 2.557958 0
M  V30 66 H -3.266861 2.525305 4.086103 0
M  V30 67 H -4.140523 1.303572 2.108226 0
M  V30 68 H -4.225761 0.519334 4.493904 0
M  V30 69 H -4.030392 -0.907378 3.372688 0
M  V30 70 H -2.821328 -0.688625 1.438784 0
M  V30 71 H -2.137418 0.925667 0.810090 0
M  V30 72 H 0.651633 1.143629 3.110675 0
M  V30 73 H -0.475297 1.916583 1.982348 0
M  V30 END ATOM
M  V30 BEGIN BOND
M  V30 1 1 1 2
M  V30 2 1 2 3
M  V30 3 1 3 4
M  V30 4 1 4 5
M  V30 5 1 5 6
M  V30 6 1 6 7
M  V30 7 1 7 8
M  V30 8 2 8 9
M  V30 9 1 9 10
M  V30 10 1 10 11
M  V30 11 2 10 12
M  V30 12 1 12 13
M  V30 13 2 13 14
M  V30 14 1 14 15
M  V30 15 2 15 16
M  V30 16 1 16 17
M  V30 17 2 17 18
M  V30 18 1 18 19
M  V30 19 2 19 20
M  V30 20 1 20 21
M  V30 21 2 21 22
M  V30 22 1 21 23
M  V30 23 1 20 24
M  V30 24 2 24 25
M  V30 25 1 16 26
M  V30 26 1 12 27
M  V30 27 2 27 28
M  V30 28 1 28 29
M  V30 29 1 29 30
M  V30 30 1 30 31
M  V30 31 1 31 32
M  V30 32 1 32 33
M  V30 33 1 33 34
M  V30 34 1 34 35
M  V30 35 1 35 36
M  V30 36 1 35 37
M  V30 37 1 33 38
M  V30 38 1 28 8
M  V30 39 1 37 29
M  V30 40 1 26 13
M  V30 41 1 38 29
M  V30 42 1 25 17
M  V30 43 1 36 31
M  V30 44 1 1 39
M  V30 45 1 1 40
M  V30 46 1 1 41
M  V30 47 1 3 42
M  V30 48 1 3 43
M  V30 49 1 4 44
M  V30 50 1 4 45
M  V30 51 1 6 46
M  V30 52 1 6 47
M  V30 53 1 9 48
M  V30 54 1 11 49
M  V30 55 1 11 50
M  V30 56 1 11 51
M  V30 57 1 15 52
M  V30 58 1 18 53
M  V30 59 1 19 54
M  V30 60 1 23 55
M  V30 61 1 24 56
M  V30 62 1 25 57
M  V30 63 1 27 58
M  V30 64 1 30 59
M  V30 65 1 30 60
M  V30 66 1 31 61
M  V30 67 1 32 62
M  V30 68 1 32 63
M  V30 69 1 33 64
M  V30 70 1 34 65
M  V30 71 1 34 66
M  V30 72 1 35 67
M  V30 73 1 36 68
M  V30 74 1 36 69
M  V30 75 1 37 70
M  V30 76 1 37 71
M  V30 77 1 38 72
M  V30 78 1 38 73
M  V30 END BOND
M  V30 END CTAB
M  END
>  <Dataset>  (634) 
ChEMBL_Kinases

>  <Ligand_Instance>  (634) 
nan

>  <PDB_ID>  (634) 
nan

>  <Standardized_SMILES>  (634) 
COCCOCOc1cc(C)c(-c2ncc(-c3ccc(C(=O)O)cc3)s2)cc1C12CC3CC(CC(C3)C1)C2

>  <Name>  (634) 
nan

>  <Pocket>  (634) 
nan

>  <ATP_Site>  (634) 
nan

>  <Peripheral>  (634) 
nan

>  <Num_H_Atoms_ProtBoundConf>  (634) 
nan

>  <Num_Resolved_Atoms>  (634) 
nan

>  <Num_Not_Resolved_Atoms>  (634) 
nan

$$$$
CHEMBL3114304
     RDKit          3D

  0  0  0  0  0  0  0  0  0  0999 V3000
M  V30 BEGIN CTAB
M  V30 COUNTS 62 67 0 0 0
M  V30 BEGIN ATOM
M  V30 1 C 1.746911 -2.006164 2.750230 0
M  V30 2 O 0.859627 -1.103641 2.120722 0
M  V30 3 C 1.130619 0.189658 1.801350 0
M  V30 4 N 2.326615 0.740503 2.073547 0
M  V30 5 C 2.605480 2.020831 1.761434 0
M  V30 6 C 3.910466 2.600257 2.065681 0
M  V30 7 C 4.299734 3.893980 1.790883 0
M  V30 8 C 5.554976 4.368112 2.110843 0
M  V30 9 C 6.481673 3.562944 2.723848 0
M  V30 10 C 7.808245 4.067254 3.061015 0
M  V30 11 O 8.701193 3.385094 3.620988 0
M  V30 12 O 8.130825 5.379421 2.755224 0
M  V30 13 C 6.131080 2.261162 3.015887 0
M  V30 14 C 4.858305 1.809343 2.682022 0
M  V30 15 C 1.608748 2.749427 1.147340 0
M  V30 16 N 0.405008 2.203834 0.870487 0
M  V30 17 C 0.125853 0.909130 1.187173 0
M  V30 18 C -1.205460 0.415727 0.845231 0
M  V30 19 C -2.211016 1.303943 1.183558 0
M  V30 20 C -3.525416 0.955346 0.911031 0
M  V30 21 C -3.763004 -0.264962 0.313814 0
M  V30 22 O -5.081386 -0.605311 0.044772 0
M  V30 23 C -2.787219 -1.175120 -0.037319 0
M  V30 24 C -3.003362 -2.471872 -0.668528 0
M  V30 25 C -1.698702 -3.205871 -0.910408 0
M  V30 26 C -1.912230 -4.443833 -1.717991 0
M  V30 27 C -2.792168 -5.390034 -0.941513 0
M  V30 28 C -4.076146 -4.684154 -0.657740 0
M  V30 29 C -4.782896 -4.397357 -1.978449 0
M  V30 30 C -3.881171 -3.514778 -2.789239 0
M  V30 31 C -2.549286 -4.149899 -3.054413 0
M  V30 32 C -3.626786 -2.239284 -2.031141 0
M  V30 33 C -3.944642 -3.387135 0.072790 0
M  V30 34 C -1.489214 -0.783762 0.254127 0
M  V30 35 H 2.739946 -1.569158 2.943924 0
M  V30 36 H 1.888862 -2.840347 2.009125 0
M  V30 37 H 1.301527 -2.402419 3.685116 0
M  V30 38 H 3.580587 4.540122 1.308244 0
M  V30 39 H 5.834621 5.389693 1.883364 0
M  V30 40 H 9.081260 5.672125 2.483575 0
M  V30 41 H 6.875370 1.641914 3.499181 0
M  V30 42 H 4.655044 0.773289 2.943102 0
M  V30 43 H 1.750884 3.782763 0.864033 0
M  V30 44 H -2.082887 2.273369 1.653060 0
M  V30 45 H -4.339533 1.614830 1.156712 0
M  V30 46 H -5.770577 -0.372880 0.743654 0
M  V30 47 H -1.263324 -3.473080 0.062600 0
M  V30 48 H -1.023644 -2.562659 -1.529756 0
M  V30 49 H -0.938917 -4.916504 -1.931997 0
M  V30 50 H -2.322673 -5.827258 -0.061110 0
M  V30 51 H -3.056070 -6.208314 -1.672744 0
M  V30 52 H -4.778472 -5.335126 -0.076695 0
M  V30 53 H -5.051433 -5.299622 -2.532911 0
M  V30 54 H -5.691118 -3.794049 -1.710924 0
M  V30 55 H -4.374338 -3.216508 -3.730658 0
M  V30 56 H -2.631639 -5.087494 -3.628588 0
M  V30 57 H -1.923423 -3.421460 -3.620131 0
M  V30 58 H -2.897980 -1.628509 -2.633492 0
M  V30 59 H -4.536010 -1.640375 -1.978137 0
M  V30 60 H -3.625503 -3.617301 1.106000 0
M  V30 61 H -4.957413 -2.934230 0.015670 0
M  V30 62 H -0.599585 -1.355843 0.056234 0
M  V30 END ATOM
M  V30 BEGIN BOND
M  V30 1 1 1 2
M  V30 2 1 2 3
M  V30 3 2 3 4
M  V30 4 1 4 5
M  V30 5 1 5 6
M  V30 6 2 6 7
M  V30 7 1 7 8
M  V30 8 2 8 9
M  V30 9 1 9 10
M  V30 10 2 10 11
M  V30 11 1 10 12
M  V30 12 1 9 13
M  V30 13 2 13 14
M  V30 14 2 5 15
M  V30 15 1 15 16
M  V30 16 2 16 17
M  V30 17 1 17 18
M  V30 18 2 18 19
M  V30 19 1 19 20
M  V30 20 2 20 21
M  V30 21 1 21 22
M  V30 22 1 21 23
M  V30 23 1 23 24
M  V30 24 1 24 25
M  V30 25 1 25 26
M  V30 26 1 26 27
M  V30 27 1 27 28
M  V30 28 1 28 29
M  V30 29 1 29 30
M  V30 30 1 30 31
M  V30 31 1 30 32
M  V30 32 1 28 33
M  V30 33 2 23 34
M  V30 34 1 17 3
M  V30 35 1 34 18
M  V30 36 1 14 6
M  V30 37 1 32 24
M  V30 38 1 33 24
M  V30 39 1 31 26
M  V30 40 1 1 35
M  V30 41 1 1 36
M  V30 42 1 1 37
M  V30 43 1 7 38
M  V30 44 1 8 39
M  V30 45 1 12 40
M  V30 46 1 13 41
M  V30 47 1 14 42
M  V30 48 1 15 43
M  V30 49 1 19 44
M  V30 50 1 20 45
M  V30 51 1 22 46
M  V30 52 1 25 47
M  V30 53 1 25 48
M  V30 54 1 26 49
M  V30 55 1 27 50
M  V30 56 1 27 51
M  V30 57 1 28 52
M  V30 58 1 29 53
M  V30 59 1 29 54
M  V30 60 1 30 55
M  V30 61 1 31 56
M  V30 62 1 31 57
M  V30 63 1 32 58
M  V30 64 1 32 59
M  V30 65 1 33 60
M  V30 66 1 33 61
M  V30 67 1 34 62
M  V30 END BOND
M  V30 END CTAB
M  END
>  <Dataset>  (635) 
ChEMBL_Kinases

>  <Ligand_Instance>  (635) 
nan

>  <PDB_ID>  (635) 
nan

>  <Standardized_SMILES>  (635) 
COc1nc(-c2ccc(C(=O)O)cc2)cnc1-c1ccc(O)c(C23CC4CC(CC(C4)C2)C3)c1

>  <Name>  (635) 
nan

>  <Pocket>  (635) 
nan

>  <ATP_Site>  (635) 
nan

>  <Peripheral>  (635) 
nan

>  <Num_H_Atoms_ProtBoundConf>  (635) 
nan

>  <Num_Resolved_Atoms>  (635) 
nan

>  <Num_Not_Resolved_Atoms>  (635) 
nan

$$$$
CHEMBL3114502
     RDKit          3D

  0  0  0  0  0  0  0  0  0  0999 V3000
M  V30 BEGIN CTAB
M  V30 COUNTS 110 115 0 0 0
M  V30 BEGIN ATOM
M  V30 1 C 2.373518 8.079125 3.543756 0
M  V30 2 C 2.265799 7.223506 2.337138 0
M  V30 3 C 3.344768 6.547726 1.956259 0
M  V30 4 C 4.554891 6.732290 2.799647 0
M  V30 5 C 3.478484 5.649614 0.814619 0
M  V30 6 O 4.542891 5.046105 0.522096 0
M  V30 7 O 2.463777 5.348587 -0.083438 0
M  V30 8 C 2.619963 4.478981 -1.175186 0 CFG=2
M  V30 9 C 2.117522 5.019156 -2.481791 0
M  V30 10 C 2.510978 4.064521 -3.581436 0
M  V30 11 C 1.435293 4.125656 -4.645449 0
M  V30 12 C 3.814487 4.446527 -4.231411 0
M  V30 13 C 2.533203 2.641228 -3.036558 0
M  V30 14 C 1.369221 2.532500 -2.078063 0 CFG=1
M  V30 15 C 0.957390 1.158895 -1.802862 0
M  V30 16 C 0.294789 0.412923 -2.672084 0
M  V30 17 C -0.210930 -0.977888 -2.596618 0
M  V30 18 C 0.060449 -1.540762 -1.253398 0 CFG=2
M  V30 19 C -0.739652 -2.774192 -0.889919 0 CFG=1
M  V30 20 C -2.200821 -2.633371 -0.946614 0
M  V30 21 C -0.333298 -3.865031 -1.859658 0
M  V30 22 C -1.000367 -5.174425 -1.563832 0
M  V30 23 C -1.266147 -5.460784 -0.123740 0 CFG=2
M  V30 24 O -2.634061 -5.413127 0.243941 0
M  V30 25 C -3.384080 -6.456319 0.703502 0
M  V30 26 O -2.921668 -7.612873 0.853279 0
M  V30 27 C -4.805250 -6.228818 1.044403 0
M  V30 28 C -5.576469 -7.188561 1.491352 0
M  V30 29 C -6.975416 -7.044578 1.846241 0
M  V30 30 C -7.681470 -5.890248 1.762688 0
M  V30 31 C -9.018428 -5.827360 2.121480 0
M  V30 32 C -9.714195 -6.930561 2.584751 0
M  V30 33 C -8.996147 -8.114228 2.672115 0
M  V30 34 C -7.673906 -8.139284 2.308284 0
M  V30 35 C -0.507726 -4.613581 0.846366 0
M  V30 36 C -1.265044 -4.542287 2.176230 0
M  V30 37 C 0.774192 -5.344424 1.237840 0
M  V30 38 C -0.186772 -3.244546 0.432629 0 CFG=2
M  V30 39 C -0.523265 -2.210459 1.508752 0
M  V30 40 C 0.284903 -0.978388 1.182826 0
M  V30 41 C 0.062937 -0.479781 -0.224661 0 CFG=2
M  V30 42 C -1.178767 0.367824 -0.179268 0
M  V30 43 C 1.233725 0.433241 -0.531705 0 CFG=1
M  V30 44 C 2.491005 -0.375062 -0.824110 0
M  V30 45 C 1.554339 1.322288 0.626787 0
M  V30 46 C 2.356250 2.524668 0.247747 0
M  V30 47 C 1.694928 3.294615 -0.842624 0 CFG=1
M  V30 48 C 0.440732 3.906811 -0.311674 0
M  V30 49 O -0.709513 3.798470 -0.809863 0
M  V30 50 O 0.294223 4.701595 0.814127 0
M  V30 51 H 2.891093 9.025150 3.359513 0
M  V30 52 H 2.834519 7.515216 4.401848 0
M  V30 53 H 1.335535 8.303485 3.925301 0
M  V30 54 H 1.389110 7.063017 1.689465 0
M  V30 55 H 5.470328 6.621120 2.201301 0
M  V30 56 H 4.557628 5.984331 3.623961 0
M  V30 57 H 4.566774 7.732907 3.261650 0
M  V30 58 H 3.639650 4.055155 -1.252160 0
M  V30 59 H 1.011890 5.108594 -2.423365 0
M  V30 60 H 2.521550 5.997239 -2.753821 0
M  V30 61 H 0.445487 4.400841 -4.230533 0
M  V30 62 H 1.307518 3.143496 -5.154006 0
M  V30 63 H 1.672018 4.905012 -5.410983 0
M  V30 64 H 3.831758 3.944947 -5.228052 0
M  V30 65 H 3.770625 5.534016 -4.424106 0
M  V30 66 H 4.656540 4.112644 -3.623851 0
M  V30 67 H 3.466212 2.435824 -2.477519 0
M  V30 68 H 2.347617 1.941336 -3.868083 0
M  V30 69 H 0.527084 3.087868 -2.577179 0
M  V30 70 H 0.067542 0.898131 -3.640595 0
M  V30 71 H 0.248681 -1.559418 -3.426732 0
M  V30 72 H -1.314360 -0.875806 -2.822966 0
M  V30 73 H 1.127097 -1.928567 -1.297356 0
M  V30 74 H -2.741798 -2.681089 0.016764 0
M  V30 75 H -2.712665 -3.391722 -1.610488 0
M  V30 76 H -2.523884 -1.680481 -1.412111 0
M  V30 77 H -0.652374 -3.509922 -2.879788 0
M  V30 78 H 0.774894 -3.923472 -1.926314 0
M  V30 79 H -0.350667 -5.947035 -2.053924 0
M  V30 80 H -1.951535 -5.202354 -2.133631 0
M  V30 81 H -0.978402 -6.522906 0.054034 0
M  V30 82 H -5.240042 -5.237165 0.925932 0
M  V30 83 H -5.081557 -8.144748 1.584694 0
M  V30 84 H -7.200027 -4.990971 1.409102 0
M  V30 85 H -9.534806 -4.881699 2.036012 0
M  V30 86 H -10.745124 -6.800871 2.841641 0
M  V30 87 H -9.556296 -8.962789 3.035395 0
M  V30 88 H -7.181342 -9.095321 2.403608 0
M  V30 89 H -2.092723 -3.838173 2.164902 0
M  V30 90 H -1.727285 -5.567781 2.282854 0
M  V30 91 H -0.588972 -4.464733 3.047020 0
M  V30 92 H 1.348708 -4.683353 1.906093 0
M  V30 93 H 1.378937 -5.599982 0.343650 0
M  V30 94 H 0.542365 -6.295600 1.762890 0
M  V30 95 H 0.928818 -3.137746 0.317417 0
M  V30 96 H -0.177691 -2.553237 2.497461 0
M  V30 97 H -1.574394 -1.900556 1.489331 0
M  V30 98 H -0.021124 -0.173439 1.882704 0
M  V30 99 H 1.346548 -1.203733 1.398270 0
M  V30 100 H -1.999002 -0.117227 0.399324 0
M  V30 101 H -1.603564 0.502001 -1.195191 0
M  V30 102 H -1.019194 1.335913 0.336507 0
M  V30 103 H 2.656728 -1.216421 -0.160188 0
M  V30 104 H 2.576660 -0.637473 -1.897919 0
M  V30 105 H 3.351046 0.337541 -0.650606 0
M  V30 106 H 0.722880 1.649558 1.243471 0
M  V30 107 H 2.200504 0.698870 1.321416 0
M  V30 108 H 2.359052 3.195447 1.147547 0
M  V30 109 H 3.422365 2.302840 0.056289 0
M  V30 110 H -0.403974 4.525324 1.527499 0
M  V30 END ATOM
M  V30 BEGIN BOND
M  V30 1 1 1 2
M  V30 2 2 2 3
M  V30 3 1 3 4
M  V30 4 1 3 5
M  V30 5 2 5 6
M  V30 6 1 5 7
M  V30 7 1 7 8
M  V30 8 1 8 9
M  V30 9 1 9 10
M  V30 10 1 10 11
M  V30 11 1 10 12
M  V30 12 1 10 13
M  V30 13 1 13 14
M  V30 14 1 14 15
M  V30 15 2 15 16
M  V30 16 1 16 17
M  V30 17 1 17 18
M  V30 18 1 18 19
M  V30 19 1 19 20 CFG=1
M  V30 20 1 19 21
M  V30 21 1 21 22
M  V30 22 1 22 23
M  V30 23 1 23 24
M  V30 24 1 24 25
M  V30 25 2 25 26
M  V30 26 1 25 27
M  V30 27 2 27 28
M  V30 28 1 28 29
M  V30 29 2 29 30
M  V30 30 1 30 31
M  V30 31 2 31 32
M  V30 32 1 32 33
M  V30 33 2 33 34
M  V30 34 1 23 35
M  V30 35 1 35 36
M  V30 36 1 35 37
M  V30 37 1 35 38
M  V30 38 1 38 39
M  V30 39 1 39 40
M  V30 40 1 40 41
M  V30 41 1 41 42 CFG=1
M  V30 42 1 41 43
M  V30 43 1 43 44 CFG=3
M  V30 44 1 43 45
M  V30 45 1 45 46
M  V30 46 1 46 47
M  V30 47 1 47 48 CFG=1
M  V30 48 2 48 49
M  V30 49 1 48 50
M  V30 50 1 47 8
M  V30 51 1 47 14
M  V30 52 1 43 15
M  V30 53 1 41 18
M  V30 54 1 38 19
M  V30 55 1 34 29
M  V30 56 1 1 51
M  V30 57 1 1 52
M  V30 58 1 1 53
M  V30 59 1 2 54
M  V30 60 1 4 55
M  V30 61 1 4 56
M  V30 62 1 4 57
M  V30 63 1 8 58 CFG=3
M  V30 64 1 9 59
M  V30 65 1 9 60
M  V30 66 1 11 61
M  V30 67 1 11 62
M  V30 68 1 11 63
M  V30 69 1 12 64
M  V30 70 1 12 65
M  V30 71 1 12 66
M  V30 72 1 13 67
M  V30 73 1 13 68
M  V30 74 1 14 69 CFG=3
M  V30 75 1 16 70
M  V30 76 1 17 71
M  V30 77 1 17 72
M  V30 78 1 18 73 CFG=3
M  V30 79 1 20 74
M  V30 80 1 20 75
M  V30 81 1 20 76
M  V30 82 1 21 77
M  V30 83 1 21 78
M  V30 84 1 22 79
M  V30 85 1 22 80
M  V30 86 1 23 81 CFG=1
M  V30 87 1 27 82
M  V30 88 1 28 83
M  V30 89 1 30 84
M  V30 90 1 31 85
M  V30 91 1 32 86
M  V30 92 1 33 87
M  V30 93 1 34 88
M  V30 94 1 36 89
M  V30 95 1 36 90
M  V30 96 1 36 91
M  V30 97 1 37 92
M  V30 98 1 37 93
M  V30 99 1 37 94
M  V30 100 1 38 95 CFG=3
M  V30 101 1 39 96
M  V30 102 1 39 97
M  V30 103 1 40 98
M  V30 104 1 40 99
M  V30 105 1 42 100
M  V30 106 1 42 101
M  V30 107 1 42 102
M  V30 108 1 44 103
M  V30 109 1 44 104
M  V30 110 1 44 105
M  V30 111 1 45 106
M  V30 112 1 45 107
M  V30 113 1 46 108
M  V30 114 1 46 109
M  V30 115 1 50 110
M  V30 END BOND
M  V30 END CTAB
M  END
>  <Dataset>  (636) 
ChEMBL_Kinases

>  <Ligand_Instance>  (636) 
nan

>  <PDB_ID>  (636) 
nan

>  <Standardized_SMILES>  (636) 
C/C=C(\C)C(=O)O[C@@H]1CC(C)(C)C[C@H]2C3=CC[C@@H]4[C@@]5(C)CC[C@H](OC(=O)/C=C/c6ccccc6)C(C)(C)[C@@H]5CC[C@@]4(C)[C@]3(C)CC[C@@]12C(=O)O

>  <Name>  (636) 
nan

>  <Pocket>  (636) 
nan

>  <ATP_Site>  (636) 
nan

>  <Peripheral>  (636) 
nan

>  <Num_H_Atoms_ProtBoundConf>  (636) 
nan

>  <Num_Resolved_Atoms>  (636) 
nan

>  <Num_Not_Resolved_Atoms>  (636) 
nan

$$$$
CHEMBL3114503
     RDKit          3D

  0  0  0  0  0  0  0  0  0  0999 V3000
M  V30 BEGIN CTAB
M  V30 COUNTS 110 115 0 0 0
M  V30 BEGIN ATOM
M  V30 1 C -3.583770 8.692418 3.279202 0
M  V30 2 C -2.343256 8.435869 2.472586 0
M  V30 3 C -1.313270 9.534307 2.437760 0
M  V30 4 C -2.114755 7.301140 1.797246 0
M  V30 5 C -0.899260 7.034008 0.997430 0
M  V30 6 O -0.016051 7.892954 0.927123 0
M  V30 7 O -0.897805 5.818255 0.404900 0
M  V30 8 C 0.079590 5.231854 -0.423403 0 CFG=2
M  V30 9 C -0.642190 5.033875 -1.743032 0
M  V30 10 C -1.789727 4.081092 -1.576678 0
M  V30 11 C -2.885014 4.490236 -0.691144 0
M  V30 12 C -2.397081 3.947837 -2.986170 0
M  V30 13 C -1.178286 2.716206 -1.279888 0
M  V30 14 C -0.435289 2.810490 -0.025340 0 CFG=1
M  V30 15 C 0.224726 1.597931 0.524793 0
M  V30 16 C -0.363629 0.972703 1.579650 0
M  V30 17 C 0.198026 -0.259144 2.231804 0
M  V30 18 C 0.735266 -0.983366 1.051313 0 CFG=2
M  V30 19 C 0.820200 -2.442078 1.385396 0 CFG=1
M  V30 20 C 1.468971 -2.710533 2.707194 0
M  V30 21 C -0.612876 -2.909489 1.489793 0
M  V30 22 C -0.840015 -4.372614 1.329086 0
M  V30 23 C -0.289398 -4.780177 -0.000486 0 CFG=2
M  V30 24 O -0.768764 -5.928419 -0.580571 0
M  V30 25 C -1.497033 -5.989377 -1.761997 0
M  V30 26 O -1.679881 -4.831482 -2.275621 0
M  V30 27 C -2.049966 -7.143489 -2.453766 0
M  V30 28 C -1.968550 -8.396136 -2.086644 0
M  V30 29 C -2.520074 -9.567755 -2.772513 0
M  V30 30 C -3.227283 -9.404606 -3.951671 0
M  V30 31 C -3.776888 -10.483682 -4.656788 0
M  V30 32 C -3.578548 -11.759564 -4.110882 0
M  V30 33 C -2.873049 -11.931692 -2.933034 0
M  V30 34 C -2.346916 -10.833987 -2.269067 0
M  V30 35 C 1.216601 -4.598640 0.056704 0
M  V30 36 C 1.735714 -4.988362 -1.314187 0
M  V30 37 C 1.870755 -5.518116 1.032494 0
M  V30 38 C 1.414593 -3.146600 0.223355 0 CFG=2
M  V30 39 C 2.761981 -2.574292 -0.076489 0
M  V30 40 C 2.507613 -1.162552 -0.554515 0
M  V30 41 C 1.923786 -0.261594 0.544877 0 CFG=2
M  V30 42 C 3.060211 -0.076740 1.497505 0
M  V30 43 C 1.505124 1.070099 -0.032057 0 CFG=1
M  V30 44 C 1.368481 0.989801 -1.551858 0
M  V30 45 C 2.461287 2.208611 0.187261 0
M  V30 46 C 1.959693 3.565016 -0.139247 0
M  V30 47 C 0.545809 3.910712 0.156815 0 CFG=1
M  V30 48 C 0.536405 4.218809 1.649775 0
M  V30 49 O -0.058827 3.732166 2.647336 0
M  V30 50 O 0.849530 4.842879 2.848878 0
M  V30 51 H -3.390058 9.215691 4.224915 0
M  V30 52 H -3.964416 7.667193 3.559896 0
M  V30 53 H -4.380520 9.151443 2.676277 0
M  V30 54 H -0.387344 9.083233 2.895579 0
M  V30 55 H -1.131602 9.876573 1.412829 0
M  V30 56 H -1.615621 10.335675 3.128294 0
M  V30 57 H -2.944774 6.583850 1.908213 0
M  V30 58 H 0.909166 5.935605 -0.543145 0
M  V30 59 H -0.957921 6.012052 -2.101944 0
M  V30 60 H 0.036375 4.602822 -2.501379 0
M  V30 61 H -3.093079 5.568061 -0.922641 0
M  V30 62 H -3.825916 3.973476 -1.045748 0
M  V30 63 H -2.760577 4.423720 0.382981 0
M  V30 64 H -3.414698 3.515826 -2.880574 0
M  V30 65 H -2.379347 4.945104 -3.468111 0
M  V30 66 H -1.733453 3.267825 -3.579924 0
M  V30 67 H -0.679958 2.508085 -2.210977 0
M  V30 68 H -2.086808 2.079321 -1.104788 0
M  V30 69 H -1.289210 3.067348 0.704172 0
M  V30 70 H -1.307728 1.359007 2.011496 0
M  V30 71 H -0.533510 -0.744963 2.851571 0
M  V30 72 H 0.983660 0.136650 2.908985 0
M  V30 73 H -0.002566 -0.948670 0.191407 0
M  V30 74 H 1.494566 -1.776282 3.343556 0
M  V30 75 H 2.487807 -3.089677 2.681365 0
M  V30 76 H 0.887808 -3.426879 3.356909 0
M  V30 77 H -1.152746 -2.415590 0.627591 0
M  V30 78 H -1.088266 -2.628272 2.450470 0
M  V30 79 H -1.948638 -4.491430 1.268390 0
M  V30 80 H -0.506034 -4.991610 2.166378 0
M  V30 81 H -0.623003 -3.943564 -0.692887 0
M  V30 82 H -2.590340 -6.974478 -3.371371 0
M  V30 83 H -1.418850 -8.575308 -1.149513 0
M  V30 84 H -3.415268 -8.473841 -4.420042 0
M  V30 85 H -4.332751 -10.383380 -5.576517 0
M  V30 86 H -3.971910 -12.640989 -4.598470 0
M  V30 87 H -2.727000 -12.934951 -2.520945 0
M  V30 88 H -1.791182 -10.920047 -1.346161 0
M  V30 89 H 2.806275 -5.284588 -1.288750 0
M  V30 90 H 1.639761 -4.134515 -2.009440 0
M  V30 91 H 1.127526 -5.809194 -1.783708 0
M  V30 92 H 1.336960 -6.508284 0.905424 0
M  V30 93 H 1.708808 -5.268649 2.078842 0
M  V30 94 H 2.893336 -5.720422 0.717371 0
M  V30 95 H 0.775744 -2.736195 -0.640137 0
M  V30 96 H 3.126900 -3.113973 -0.987912 0
M  V30 97 H 3.532512 -2.674560 0.673603 0
M  V30 98 H 3.450942 -0.799778 -0.937553 0
M  V30 99 H 1.728271 -1.383441 -1.348404 0
M  V30 100 H 3.942128 0.238735 0.862528 0
M  V30 101 H 3.416936 -0.995337 1.965014 0
M  V30 102 H 2.890220 0.596685 2.341065 0
M  V30 103 H 0.475720 0.467236 -1.888871 0
M  V30 104 H 1.569874 1.977518 -2.050211 0
M  V30 105 H 2.202207 0.419454 -2.020104 0
M  V30 106 H 2.861957 2.287188 1.222712 0
M  V30 107 H 3.396852 2.070628 -0.398334 0
M  V30 108 H 2.653425 4.372537 0.275845 0
M  V30 109 H 2.112841 3.725091 -1.229520 0
M  V30 110 H 1.443827 5.678388 2.907466 0
M  V30 END ATOM
M  V30 BEGIN BOND
M  V30 1 1 1 2
M  V30 2 1 2 3
M  V30 3 2 2 4 CFG=2
M  V30 4 1 4 5
M  V30 5 2 5 6
M  V30 6 1 5 7
M  V30 7 1 7 8
M  V30 8 1 8 9
M  V30 9 1 9 10
M  V30 10 1 10 11
M  V30 11 1 10 12
M  V30 12 1 10 13
M  V30 13 1 13 14
M  V30 14 1 14 15
M  V30 15 2 15 16
M  V30 16 1 16 17
M  V30 17 1 17 18
M  V30 18 1 18 19
M  V30 19 1 19 20 CFG=1
M  V30 20 1 19 21
M  V30 21 1 21 22
M  V30 22 1 22 23
M  V30 23 1 23 24
M  V30 24 1 24 25
M  V30 25 2 25 26
M  V30 26 1 25 27
M  V30 27 2 27 28
M  V30 28 1 28 29
M  V30 29 2 29 30
M  V30 30 1 30 31
M  V30 31 2 31 32
M  V30 32 1 32 33
M  V30 33 2 33 34
M  V30 34 1 23 35
M  V30 35 1 35 36
M  V30 36 1 35 37
M  V30 37 1 35 38
M  V30 38 1 38 39
M  V30 39 1 39 40
M  V30 40 1 40 41
M  V30 41 1 41 42 CFG=1
M  V30 42 1 41 43
M  V30 43 1 43 44 CFG=3
M  V30 44 1 43 45
M  V30 45 1 45 46
M  V30 46 1 46 47
M  V30 47 1 47 48 CFG=1
M  V30 48 2 48 49
M  V30 49 1 48 50
M  V30 50 1 47 8
M  V30 51 1 47 14
M  V30 52 1 43 15
M  V30 53 1 41 18
M  V30 54 1 38 19
M  V30 55 1 34 29
M  V30 56 1 1 51
M  V30 57 1 1 52
M  V30 58 1 1 53
M  V30 59 1 3 54
M  V30 60 1 3 55
M  V30 61 1 3 56
M  V30 62 1 4 57
M  V30 63 1 8 58 CFG=3
M  V30 64 1 9 59
M  V30 65 1 9 60
M  V30 66 1 11 61
M  V30 67 1 11 62
M  V30 68 1 11 63
M  V30 69 1 12 64
M  V30 70 1 12 65
M  V30 71 1 12 66
M  V30 72 1 13 67
M  V30 73 1 13 68
M  V30 74 1 14 69 CFG=1
M  V30 75 1 16 70
M  V30 76 1 17 71
M  V30 77 1 17 72
M  V30 78 1 18 73 CFG=3
M  V30 79 1 20 74
M  V30 80 1 20 75
M  V30 81 1 20 76
M  V30 82 1 21 77
M  V30 83 1 21 78
M  V30 84 1 22 79
M  V30 85 1 22 80
M  V30 86 1 23 81 CFG=3
M  V30 87 1 27 82
M  V30 88 1 28 83
M  V30 89 1 30 84
M  V30 90 1 31 85
M  V30 91 1 32 86
M  V30 92 1 33 87
M  V30 93 1 34 88
M  V30 94 1 36 89
M  V30 95 1 36 90
M  V30 96 1 36 91
M  V30 97 1 37 92
M  V30 98 1 37 93
M  V30 99 1 37 94
M  V30 100 1 38 95 CFG=3
M  V30 101 1 39 96
M  V30 102 1 39 97
M  V30 103 1 40 98
M  V30 104 1 40 99
M  V30 105 1 42 100
M  V30 106 1 42 101
M  V30 107 1 42 102
M  V30 108 1 44 103
M  V30 109 1 44 104
M  V30 110 1 44 105
M  V30 111 1 45 106
M  V30 112 1 45 107
M  V30 113 1 46 108
M  V30 114 1 46 109
M  V30 115 1 50 110
M  V30 END BOND
M  V30 END CTAB
M  END
>  <Dataset>  (637) 
ChEMBL_Kinases

>  <Ligand_Instance>  (637) 
nan

>  <PDB_ID>  (637) 
nan

>  <Standardized_SMILES>  (637) 
CC(C)=CC(=O)O[C@@H]1CC(C)(C)C[C@H]2C3=CC[C@@H]4[C@@]5(C)CC[C@H](OC(=O)/C=C/c6ccccc6)C(C)(C)[C@@H]5CC[C@@]4(C)[C@]3(C)CC[C@@]12C(=O)O

>  <Name>  (637) 
nan

>  <Pocket>  (637) 
nan

>  <ATP_Site>  (637) 
nan

>  <Peripheral>  (637) 
nan

>  <Num_H_Atoms_ProtBoundConf>  (637) 
nan

>  <Num_Resolved_Atoms>  (637) 
nan

>  <Num_Not_Resolved_Atoms>  (637) 
nan

$$$$
CHEMBL3115681
     RDKit          3D

  0  0  0  0  0  0  0  0  0  0999 V3000
M  V30 BEGIN CTAB
M  V30 COUNTS 59 63 0 0 0
M  V30 BEGIN ATOM
M  V30 1 C 3.717622 -4.159878 6.704042 0
M  V30 2 N 3.898744 -3.356020 5.489812 0
M  V30 3 C 4.298956 -4.160041 4.376033 0
M  V30 4 C 4.175559 -3.473810 3.045844 0
M  V30 5 N 2.842354 -2.906194 2.943443 0
M  V30 6 C 2.449261 -2.124803 1.805143 0
M  V30 7 C 1.320102 -1.337591 1.706105 0
M  V30 8 C 1.009485 -0.633315 0.561500 0
M  V30 9 C 1.857242 -0.718455 -0.522149 0
M  V30 10 N 1.586313 -0.017924 -1.730435 0
M  V30 11 C 0.559804 0.930471 -1.952324 0
M  V30 12 N 1.059518 2.201724 -1.999837 0
M  V30 13 C 0.302259 3.283302 -2.193948 0
M  V30 14 C -1.043589 3.057204 -2.348369 0
M  V30 15 C -1.827496 4.197434 -2.555351 0
M  V30 16 C -3.190309 3.958416 -2.714698 0
M  V30 17 C -3.998261 5.122086 -2.928494 0
M  V30 18 N -4.653929 6.061582 -3.109495 0
M  V30 19 C -3.664391 2.679224 -2.661742 0
M  V30 20 O -4.886159 2.583980 -2.816478 0
M  V30 21 N -2.916125 1.581749 -2.462818 0
M  V30 22 C -3.372822 0.243340 -2.389800 0
M  V30 23 C -3.211808 -0.367224 -0.993990 0
M  V30 24 C -3.872257 -1.716992 -1.215518 0
M  V30 25 C -5.001723 -1.444472 -2.155478 0
M  V30 26 C -4.838703 0.017324 -2.605585 0
M  V30 27 C -1.601259 1.807015 -2.309618 0
M  V30 28 N -0.756509 0.786533 -2.110241 0
M  V30 29 C 2.994497 -1.492994 -0.462365 0
M  V30 30 C 3.273346 -2.184003 0.699311 0
M  V30 31 C 1.985189 -3.219009 4.070056 0
M  V30 32 C 2.653883 -2.634797 5.304714 0
M  V30 33 H 3.444634 -3.523811 7.551031 0
M  V30 34 H 2.858542 -4.836609 6.524281 0
M  V30 35 H 4.604507 -4.800359 6.895700 0
M  V30 36 H 3.810049 -5.149597 4.366831 0
M  V30 37 H 5.405968 -4.360590 4.514360 0
M  V30 38 H 4.936898 -2.660079 2.999891 0
M  V30 39 H 4.289865 -4.201975 2.235803 0
M  V30 40 H 0.712001 -1.328957 2.607743 0
M  V30 41 H 0.113287 -0.035795 0.543846 0
M  V30 42 H 2.161885 -0.160136 -2.586467 0
M  V30 43 H 0.717159 4.283381 -2.227608 0
M  V30 44 H -1.379333 5.172130 -2.584602 0
M  V30 45 H -2.825638 -0.427805 -3.062163 0
M  V30 46 H -3.859956 0.150773 -0.249610 0
M  V30 47 H -2.165340 -0.461596 -0.694364 0
M  V30 48 H -3.107798 -2.364982 -1.720120 0
M  V30 49 H -4.195126 -2.171323 -0.251945 0
M  V30 50 H -5.980774 -1.589459 -1.646011 0
M  V30 51 H -4.947894 -2.122266 -3.015927 0
M  V30 52 H -5.186254 0.153031 -3.641319 0
M  V30 53 H -5.462088 0.589176 -1.856051 0
M  V30 54 H 3.637950 -1.538498 -1.329015 0
M  V30 55 H 4.179934 -2.771254 0.679242 0
M  V30 56 H 0.950494 -2.840655 3.943221 0
M  V30 57 H 1.970826 -4.330660 4.176649 0
M  V30 58 H 1.987105 -2.703565 6.192492 0
M  V30 59 H 2.849173 -1.547317 5.176388 0
M  V30 END ATOM
M  V30 BEGIN BOND
M  V30 1 1 1 2
M  V30 2 1 2 3
M  V30 3 1 3 4
M  V30 4 1 4 5
M  V30 5 1 5 6
M  V30 6 2 6 7
M  V30 7 1 7 8
M  V30 8 2 8 9
M  V30 9 1 9 10
M  V30 10 1 10 11
M  V30 11 2 11 12
M  V30 12 1 12 13
M  V30 13 2 13 14
M  V30 14 1 14 15
M  V30 15 2 15 16
M  V30 16 1 16 17
M  V30 17 3 17 18
M  V30 18 1 16 19
M  V30 19 2 19 20
M  V30 20 1 19 21
M  V30 21 1 21 22
M  V30 22 1 22 23
M  V30 23 1 23 24
M  V30 24 1 24 25
M  V30 25 1 25 26
M  V30 26 1 21 27
M  V30 27 2 27 28
M  V30 28 1 9 29
M  V30 29 2 29 30
M  V30 30 1 5 31
M  V30 31 1 31 32
M  V30 32 1 32 2
M  V30 33 1 30 6
M  V30 34 1 28 11
M  V30 35 1 27 14
M  V30 36 1 26 22
M  V30 37 1 1 33
M  V30 38 1 1 34
M  V30 39 1 1 35
M  V30 40 1 3 36
M  V30 41 1 3 37
M  V30 42 1 4 38
M  V30 43 1 4 39
M  V30 44 1 7 40
M  V30 45 1 8 41
M  V30 46 1 10 42
M  V30 47 1 13 43
M  V30 48 1 15 44
M  V30 49 1 22 45
M  V30 50 1 23 46
M  V30 51 1 23 47
M  V30 52 1 24 48
M  V30 53 1 24 49
M  V30 54 1 25 50
M  V30 55 1 25 51
M  V30 56 1 26 52
M  V30 57 1 26 53
M  V30 58 1 29 54
M  V30 59 1 30 55
M  V30 60 1 31 56
M  V30 61 1 31 57
M  V30 62 1 32 58
M  V30 63 1 32 59
M  V30 END BOND
M  V30 END CTAB
M  END
>  <Dataset>  (638) 
ChEMBL_Kinases

>  <Ligand_Instance>  (638) 
nan

>  <PDB_ID>  (638) 
nan

>  <Standardized_SMILES>  (638) 
CN1CCN(c2ccc(Nc3ncc4cc(C#N)c(=O)n(C5CCCC5)c4n3)cc2)CC1

>  <Name>  (638) 
NARAZACICLIB

>  <Pocket>  (638) 
nan

>  <ATP_Site>  (638) 
nan

>  <Peripheral>  (638) 
nan

>  <Num_H_Atoms_ProtBoundConf>  (638) 
nan

>  <Num_Resolved_Atoms>  (638) 
nan

>  <Num_Not_Resolved_Atoms>  (638) 
nan

$$$$
CHEMBL3120961
     RDKit          3D

  0  0  0  0  0  0  0  0  0  0999 V3000
M  V30 BEGIN CTAB
M  V30 COUNTS 33 36 0 0 0
M  V30 BEGIN ATOM
M  V30 1 F -0.550806 -2.459174 5.972434 0
M  V30 2 C -0.214196 -1.933068 4.758708 0
M  V30 3 C 0.847733 -2.441820 4.034732 0
M  V30 4 C 1.162711 -1.882664 2.802034 0
M  V30 5 C 0.424260 -0.825972 2.297217 0
M  V30 6 C 0.817752 -0.299968 1.004212 0
M  V30 7 N 1.931097 0.294644 0.488972 0
M  V30 8 C 1.691602 0.567259 -0.807244 0
M  V30 9 C 2.596908 1.203097 -1.760539 0
M  V30 10 C 2.288221 1.455458 -3.078975 0
M  V30 11 N 3.371413 2.047525 -3.627305 0
M  V30 12 N 4.320949 2.161274 -2.688301 0
M  V30 13 N 3.848831 1.646233 -1.549166 0
M  V30 14 O 0.487112 0.162145 -1.087277 0
M  V30 15 C -0.101315 -0.377763 -0.022125 0
M  V30 16 C -1.465331 -0.871948 -0.214301 0
M  V30 17 C -1.553999 -2.231877 0.008944 0
M  V30 18 C -2.777997 -2.876521 -0.128114 0
M  V30 19 N -3.860044 -2.147960 -0.480126 0
M  V30 20 C -3.773140 -0.822893 -0.697753 0
M  V30 21 C -2.579392 -0.140627 -0.573429 0
M  V30 22 C -0.645268 -0.315969 3.029748 0
M  V30 23 C -0.975930 -0.866966 4.272608 0
M  V30 24 H 1.445249 -3.268198 4.401039 0
M  V30 25 H 2.011942 -2.314148 2.259371 0
M  V30 26 H 1.367678 1.236379 -3.609260 0
M  V30 27 H 3.516375 2.390054 -4.622508 0
M  V30 28 H -0.755530 -2.899224 0.291810 0
M  V30 29 H -2.913076 -3.936134 0.032700 0
M  V30 30 H -4.612134 -0.202163 -0.981213 0
M  V30 31 H -2.394672 0.907948 -0.721417 0
M  V30 32 H -1.204976 0.519354 2.598839 0
M  V30 33 H -1.811046 -0.458384 4.830791 0
M  V30 END ATOM
M  V30 BEGIN BOND
M  V30 1 1 1 2
M  V30 2 2 2 3
M  V30 3 1 3 4
M  V30 4 2 4 5
M  V30 5 1 5 6
M  V30 6 1 6 7
M  V30 7 2 7 8
M  V30 8 1 8 9
M  V30 9 2 9 10
M  V30 10 1 10 11
M  V30 11 1 11 12
M  V30 12 2 12 13
M  V30 13 1 8 14
M  V30 14 1 14 15
M  V30 15 1 15 16
M  V30 16 2 16 17
M  V30 17 1 17 18
M  V30 18 2 18 19
M  V30 19 1 19 20
M  V30 20 2 20 21
M  V30 21 1 5 22
M  V30 22 2 22 23
M  V30 23 1 23 2
M  V30 24 2 15 6
M  V30 25 1 21 16
M  V30 26 1 13 9
M  V30 27 1 3 24
M  V30 28 1 4 25
M  V30 29 1 10 26
M  V30 30 1 11 27
M  V30 31 1 17 28
M  V30 32 1 18 29
M  V30 33 1 20 30
M  V30 34 1 21 31
M  V30 35 1 22 32
M  V30 36 1 23 33
M  V30 END BOND
M  V30 END CTAB
M  END
>  <Dataset>  (639) 
ChEMBL_Kinases

>  <Ligand_Instance>  (639) 
nan

>  <PDB_ID>  (639) 
nan

>  <Standardized_SMILES>  (639) 
Fc1ccc(-c2nc(-c3c[nH]nn3)oc2-c2ccncc2)cc1

>  <Name>  (639) 
nan

>  <Pocket>  (639) 
nan

>  <ATP_Site>  (639) 
nan

>  <Peripheral>  (639) 
nan

>  <Num_H_Atoms_ProtBoundConf>  (639) 
nan

>  <Num_Resolved_Atoms>  (639) 
nan

>  <Num_Not_Resolved_Atoms>  (639) 
nan

$$$$
CHEMBL3120964
     RDKit          3D

  0  0  0  0  0  0  0  0  0  0999 V3000
M  V30 BEGIN CTAB
M  V30 COUNTS 49 52 0 0 0
M  V30 BEGIN ATOM
M  V30 1 C 1.603137 -2.089527 5.462232 0
M  V30 2 C 2.561447 -3.239136 5.133696 0
M  V30 3 O 3.187802 -2.986945 3.915551 0
M  V30 4 C 4.118211 -3.817790 3.287979 0
M  V30 5 O 3.894780 -4.498808 4.295376 0
M  V30 6 C 4.575784 -3.221696 2.000825 0
M  V30 7 N 3.446203 -3.222020 1.088238 0
M  V30 8 C 2.594950 -2.147175 1.028558 0
M  V30 9 C 1.612547 -2.399583 0.089755 0
M  V30 10 C 0.534930 -1.444564 -0.227850 0
M  V30 11 N 0.777882 -0.113383 -0.400456 0
M  V30 12 C -0.380570 0.527060 -0.679988 0
M  V30 13 C -0.462605 1.973073 -0.918958 0
M  V30 14 C -0.896740 2.500587 -2.102141 0
M  V30 15 C -0.940363 3.870645 -2.243287 0
M  V30 16 C -0.552669 4.696577 -1.208840 0
M  V30 17 F -0.605352 6.033305 -1.373462 0
M  V30 18 C -0.109902 4.190619 -0.003717 0
M  V30 19 C -0.075609 2.806766 0.112946 0
M  V30 20 C -1.355568 -0.476608 -0.671978 0
M  V30 21 C -2.761543 -0.178813 -0.931210 0
M  V30 22 C -3.327261 0.606309 0.065074 0
M  V30 23 C -4.665321 0.968378 -0.059933 0
M  V30 24 N -5.401892 0.582629 -1.100453 0
M  V30 25 C -4.870090 -0.177692 -2.073137 0
M  V30 26 C -3.552704 -0.572932 -2.013808 0
M  V30 27 N -0.798219 -1.653282 -0.400306 0
M  V30 28 C -1.436468 -2.928418 -0.298301 0
M  V30 29 N 1.897714 -3.620163 -0.389849 0
M  V30 30 N 2.983489 -4.107184 0.201091 0
M  V30 31 H 1.001685 -1.941975 4.533191 0
M  V30 32 H 2.132055 -1.170478 5.707274 0
M  V30 33 H 0.918487 -2.439876 6.247610 0
M  V30 34 H 3.274784 -3.383048 5.995551 0
M  V30 35 H 1.928302 -4.152555 5.081014 0
M  V30 36 H 4.888926 -2.182649 2.210031 0
M  V30 37 H 5.423167 -3.793988 1.568161 0
M  V30 38 H 2.662111 -1.243341 1.610423 0
M  V30 39 H -1.204854 1.828427 -2.916791 0
M  V30 40 H -1.289775 4.278083 -3.192493 0
M  V30 41 H 0.179812 4.859435 0.767040 0
M  V30 42 H 0.268612 2.414611 1.052489 0
M  V30 43 H -2.822105 0.968600 0.944798 0
M  V30 44 H -5.129062 1.580359 0.707543 0
M  V30 45 H -5.352612 -0.560427 -2.968073 0
M  V30 46 H -2.978623 -1.179972 -2.710115 0
M  V30 47 H -1.913796 -3.128010 0.687284 0
M  V30 48 H -0.749078 -3.765195 -0.587024 0
M  V30 49 H -2.241140 -2.955682 -1.075961 0
M  V30 END ATOM
M  V30 BEGIN BOND
M  V30 1 1 1 2
M  V30 2 1 2 3
M  V30 3 1 3 4
M  V30 4 2 4 5
M  V30 5 1 4 6
M  V30 6 1 6 7
M  V30 7 1 7 8
M  V30 8 2 8 9
M  V30 9 1 9 10
M  V30 10 2 10 11
M  V30 11 1 11 12
M  V30 12 1 12 13
M  V30 13 2 13 14
M  V30 14 1 14 15
M  V30 15 2 15 16
M  V30 16 1 16 17
M  V30 17 1 16 18
M  V30 18 2 18 19
M  V30 19 2 12 20
M  V30 20 1 20 21
M  V30 21 2 21 22
M  V30 22 1 22 23
M  V30 23 2 23 24
M  V30 24 1 24 25
M  V30 25 2 25 26
M  V30 26 1 20 27
M  V30 27 1 27 28
M  V30 28 1 9 29
M  V30 29 2 29 30
M  V30 30 1 30 7
M  V30 31 1 27 10
M  V30 32 1 19 13
M  V30 33 1 26 21
M  V30 34 1 1 31
M  V30 35 1 1 32
M  V30 36 1 1 33
M  V30 37 1 2 34
M  V30 38 1 2 35
M  V30 39 1 6 36
M  V30 40 1 6 37
M  V30 41 1 8 38
M  V30 42 1 14 39
M  V30 43 1 15 40
M  V30 44 1 18 41
M  V30 45 1 19 42
M  V30 46 1 22 43
M  V30 47 1 23 44
M  V30 48 1 25 45
M  V30 49 1 26 46
M  V30 50 1 28 47
M  V30 51 1 28 48
M  V30 52 1 28 49
M  V30 END BOND
M  V30 END CTAB
M  END
>  <Dataset>  (640) 
ChEMBL_Kinases

>  <Ligand_Instance>  (640) 
nan

>  <PDB_ID>  (640) 
nan

>  <Standardized_SMILES>  (640) 
CCOC(=O)Cn1cc(-c2nc(-c3ccc(F)cc3)c(-c3ccncc3)n2C)nn1

>  <Name>  (640) 
nan

>  <Pocket>  (640) 
nan

>  <ATP_Site>  (640) 
nan

>  <Peripheral>  (640) 
nan

>  <Num_H_Atoms_ProtBoundConf>  (640) 
nan

>  <Num_Resolved_Atoms>  (640) 
nan

>  <Num_Not_Resolved_Atoms>  (640) 
nan

$$$$
CHEMBL3114298
     RDKit          3D

  0  0  0  0  0  0  0  0  0  0999 V3000
M  V30 BEGIN CTAB
M  V30 COUNTS 70 75 0 0 0
M  V30 BEGIN ATOM
M  V30 1 C -0.622685 1.159256 7.794905 0
M  V30 2 O -0.485236 -0.187808 7.975709 0
M  V30 3 C -1.469499 -1.006213 7.512225 0
M  V30 4 C -1.749072 -0.982567 6.039902 0
M  V30 5 O -2.146463 0.235126 5.531513 0
M  V30 6 C -2.411314 0.266811 4.188773 0
M  V30 7 O -1.332911 -0.073908 3.346312 0
M  V30 8 C -1.422664 -0.093639 1.967282 0
M  V30 9 C -2.672774 0.249739 1.445985 0
M  V30 10 C -2.916909 0.278303 0.094060 0
M  V30 11 C -1.872637 -0.046466 -0.706570 0
M  V30 12 C -2.128646 -0.017035 -2.178213 0
M  V30 13 N -3.093713 0.239696 -2.851527 0
M  V30 14 C -3.112401 0.206002 -4.164093 0
M  V30 15 C -1.954805 -0.145366 -4.816034 0
M  V30 16 C -1.606646 -0.287153 -6.237044 0
M  V30 17 C -0.316218 -0.663884 -6.521575 0
M  V30 18 C -0.007640 -0.792514 -7.860438 0
M  V30 19 C -0.978080 -0.544699 -8.816903 0
M  V30 20 C -0.670937 -0.676365 -10.241108 0
M  V30 21 O -1.439416 -0.486148 -11.211445 0
M  V30 22 O 0.611891 -1.055431 -10.625389 0
M  V30 23 C -2.275244 -0.163660 -8.453800 0
M  V30 24 C -2.619752 -0.024391 -7.100835 0
M  V30 25 S -0.848594 -0.421395 -3.430011 0
M  V30 26 C -0.654253 -0.381342 -0.194667 0
M  V30 27 C -0.362241 -0.424462 1.153054 0
M  V30 28 C 0.952427 -0.792254 1.683668 0
M  V30 29 C 0.805373 -2.022715 2.550630 0
M  V30 30 C 2.168490 -2.455801 3.081186 0
M  V30 31 C 2.786288 -1.339912 3.878593 0
M  V30 32 C 2.936942 -0.153008 2.985422 0
M  V30 33 C 3.828998 -0.435229 1.801023 0
M  V30 34 C 3.213278 -1.567592 1.014738 0
M  V30 35 C 3.022236 -2.790140 1.878036 0
M  V30 36 C 1.872133 -1.079991 0.509824 0
M  V30 37 C 1.550413 0.275543 2.562720 0
M  V30 38 H -0.661840 1.415329 6.728337 0
M  V30 39 H -1.492521 1.578957 8.354972 0
M  V30 40 H 0.266782 1.721319 8.194179 0
M  V30 41 H -2.440214 -0.773056 8.057701 0
M  V30 42 H -1.275213 -2.086387 7.763539 0
M  V30 43 H -0.868347 -1.403350 5.502564 0
M  V30 44 H -2.579361 -1.707194 5.864983 0
M  V30 45 H -2.903584 1.204740 3.860946 0
M  V30 46 H -3.189241 -0.530275 4.000043 0
M  V30 47 H -3.540728 0.516894 2.068554 0
M  V30 48 H -3.881634 0.543065 -0.311851 0
M  V30 49 H -3.992953 0.440353 -4.772720 0
M  V30 50 H 0.422769 -0.851560 -5.759670 0
M  V30 51 H 0.994311 -1.086289 -8.123993 0
M  V30 52 H 0.800499 -1.652564 -11.443489 0
M  V30 53 H -3.046985 0.033761 -9.199044 0
M  V30 54 H -3.611702 0.268055 -6.785361 0
M  V30 55 H 0.076863 -0.607289 -0.957815 0
M  V30 56 H 0.143091 -1.778784 3.391566 0
M  V30 57 H 0.336996 -2.863009 2.005150 0
M  V30 58 H 1.986671 -3.363353 3.675594 0
M  V30 59 H 2.068588 -1.053257 4.682245 0
M  V30 60 H 3.739188 -1.723221 4.289538 0
M  V30 61 H 3.388147 0.696768 3.535159 0
M  V30 62 H 4.786445 -0.813687 2.199208 0
M  V30 63 H 3.924195 0.462718 1.193132 0
M  V30 64 H 3.832787 -1.870146 0.163754 0
M  V30 65 H 2.429206 -3.530472 1.270592 0
M  V30 66 H 3.987674 -3.210090 2.182405 0
M  V30 67 H 1.420548 -1.807927 -0.194907 0
M  V30 68 H 2.036225 -0.138841 -0.035847 0
M  V30 69 H 0.971300 0.261653 3.525370 0
M  V30 70 H 1.576091 1.273428 2.107764 0
M  V30 END ATOM
M  V30 BEGIN BOND
M  V30 1 1 1 2
M  V30 2 1 2 3
M  V30 3 1 3 4
M  V30 4 1 4 5
M  V30 5 1 5 6
M  V30 6 1 6 7
M  V30 7 1 7 8
M  V30 8 2 8 9
M  V30 9 1 9 10
M  V30 10 2 10 11
M  V30 11 1 11 12
M  V30 12 2 12 13
M  V30 13 1 13 14
M  V30 14 2 14 15
M  V30 15 1 15 16
M  V30 16 2 16 17
M  V30 17 1 17 18
M  V30 18 2 18 19
M  V30 19 1 19 20
M  V30 20 2 20 21
M  V30 21 1 20 22
M  V30 22 1 19 23
M  V30 23 2 23 24
M  V30 24 1 15 25
M  V30 25 1 11 26
M  V30 26 2 26 27
M  V30 27 1 27 28
M  V30 28 1 28 29
M  V30 29 1 29 30
M  V30 30 1 30 31
M  V30 31 1 31 32
M  V30 32 1 32 33
M  V30 33 1 33 34
M  V30 34 1 34 35
M  V30 35 1 34 36
M  V30 36 1 32 37
M  V30 37 1 27 8
M  V30 38 1 36 28
M  V30 39 1 25 12
M  V30 40 1 37 28
M  V30 41 1 24 16
M  V30 42 1 35 30
M  V30 43 1 1 38
M  V30 44 1 1 39
M  V30 45 1 1 40
M  V30 46 1 3 41
M  V30 47 1 3 42
M  V30 48 1 4 43
M  V30 49 1 4 44
M  V30 50 1 6 45
M  V30 51 1 6 46
M  V30 52 1 9 47
M  V30 53 1 10 48
M  V30 54 1 14 49
M  V30 55 1 17 50
M  V30 56 1 18 51
M  V30 57 1 22 52
M  V30 58 1 23 53
M  V30 59 1 24 54
M  V30 60 1 26 55
M  V30 61 1 29 56
M  V30 62 1 29 57
M  V30 63 1 30 58
M  V30 64 1 31 59
M  V30 65 1 31 60
M  V30 66 1 32 61
M  V30 67 1 33 62
M  V30 68 1 33 63
M  V30 69 1 34 64
M  V30 70 1 35 65
M  V30 71 1 35 66
M  V30 72 1 36 67
M  V30 73 1 36 68
M  V30 74 1 37 69
M  V30 75 1 37 70
M  V30 END BOND
M  V30 END CTAB
M  END
>  <Dataset>  (641) 
ChEMBL_Kinases

>  <Ligand_Instance>  (641) 
nan

>  <PDB_ID>  (641) 
nan

>  <Standardized_SMILES>  (641) 
COCCOCOc1ccc(-c2ncc(-c3ccc(C(=O)O)cc3)s2)cc1C12CC3CC(CC(C3)C1)C2

>  <Name>  (641) 
nan

>  <Pocket>  (641) 
nan

>  <ATP_Site>  (641) 
nan

>  <Peripheral>  (641) 
nan

>  <Num_H_Atoms_ProtBoundConf>  (641) 
nan

>  <Num_Resolved_Atoms>  (641) 
nan

>  <Num_Not_Resolved_Atoms>  (641) 
nan

$$$$
CHEMBL3124965
     RDKit          3D

  0  0  0  0  0  0  0  0  0  0999 V3000
M  V30 BEGIN CTAB
M  V30 COUNTS 45 47 0 0 0
M  V30 BEGIN ATOM
M  V30 1 C -0.601284 -6.075177 1.783688 0
M  V30 2 N -0.393436 -5.290395 3.005547 0
M  V30 3 C -0.998861 -4.001639 2.822138 0
M  V30 4 C -0.292569 -3.212322 1.916019 0
M  V30 5 C -0.730280 -1.935087 1.606684 0
M  V30 6 N 0.023735 -1.130056 0.673731 0
M  V30 7 C -0.693702 -0.787330 -0.539484 0
M  V30 8 C -0.162632 0.381898 -1.293512 0
M  V30 9 C 1.055979 1.032866 -0.736417 0
M  V30 10 C 1.802347 1.841960 -1.742416 0
M  V30 11 N 2.280994 1.120143 -2.876643 0
M  V30 12 C 0.721285 1.877835 0.430396 0
M  V30 13 C 1.717926 2.591836 1.059136 0
M  V30 14 C 1.466448 3.399354 2.161678 0
M  V30 15 C 0.193182 3.503225 2.656113 0
M  V30 16 Cl -0.196598 4.494934 4.048809 0
M  V30 17 C -0.828434 2.807398 2.056880 0
M  V30 18 Cl -2.487171 2.892763 2.647515 0
M  V30 19 C -0.549150 2.026114 0.980491 0
M  V30 20 C 1.986671 -0.108991 -0.307368 0
M  V30 21 C 1.378494 -0.706497 0.961166 0
M  V30 22 N -1.863583 -1.480752 2.211495 0
M  V30 23 C -2.535951 -2.250668 3.084644 0
M  V30 24 N -2.131871 -3.496005 3.403264 0
M  V30 25 H 0.116862 -6.930077 1.707061 0
M  V30 26 H -0.377967 -5.453888 0.861778 0
M  V30 27 H -1.640224 -6.409454 1.671522 0
M  V30 28 H 0.119772 -5.695368 3.822564 0
M  V30 29 H 0.608163 -3.541331 1.416896 0
M  V30 30 H -0.652027 -1.738636 -1.163061 0
M  V30 31 H -1.798644 -0.711017 -0.306354 0
M  V30 32 H 0.129854 0.005025 -2.326418 0
M  V30 33 H -0.965766 1.144203 -1.552504 0
M  V30 34 H 2.691412 2.312622 -1.275068 0
M  V30 35 H 1.143927 2.692080 -2.090721 0
M  V30 36 H 3.166777 0.628620 -2.776751 0
M  V30 37 H 1.592169 0.762566 -3.540858 0
M  V30 38 H 2.750756 2.578102 0.743770 0
M  V30 39 H 2.223543 3.960905 2.667874 0
M  V30 40 H -1.347935 1.489624 0.520963 0
M  V30 41 H 1.893443 -0.887331 -1.092056 0
M  V30 42 H 3.017844 0.210344 -0.168900 0
M  V30 43 H 2.054371 -1.487114 1.300203 0
M  V30 44 H 1.373410 0.110213 1.707972 0
M  V30 45 H -3.432444 -1.908499 3.578674 0
M  V30 END ATOM
M  V30 BEGIN BOND
M  V30 1 1 1 2
M  V30 2 1 2 3
M  V30 3 2 3 4
M  V30 4 1 4 5
M  V30 5 1 5 6
M  V30 6 1 6 7
M  V30 7 1 7 8
M  V30 8 1 8 9
M  V30 9 1 9 10
M  V30 10 1 10 11
M  V30 11 1 9 12
M  V30 12 2 12 13
M  V30 13 1 13 14
M  V30 14 2 14 15
M  V30 15 1 15 16
M  V30 16 1 15 17
M  V30 17 1 17 18
M  V30 18 2 17 19
M  V30 19 1 9 20
M  V30 20 1 20 21
M  V30 21 2 5 22
M  V30 22 1 22 23
M  V30 23 2 23 24
M  V30 24 1 24 3
M  V30 25 1 21 6
M  V30 26 1 19 12
M  V30 27 1 1 25
M  V30 28 1 1 26
M  V30 29 1 1 27
M  V30 30 1 2 28
M  V30 31 1 4 29
M  V30 32 1 7 30
M  V30 33 1 7 31
M  V30 34 1 8 32
M  V30 35 1 8 33
M  V30 36 1 10 34
M  V30 37 1 10 35
M  V30 38 1 11 36
M  V30 39 1 11 37
M  V30 40 1 13 38
M  V30 41 1 14 39
M  V30 42 1 19 40
M  V30 43 1 20 41
M  V30 44 1 20 42
M  V30 45 1 21 43
M  V30 46 1 21 44
M  V30 47 1 23 45
M  V30 END BOND
M  V30 END CTAB
M  END
>  <Dataset>  (642) 
ChEMBL_Kinases

>  <Ligand_Instance>  (642) 
nan

>  <PDB_ID>  (642) 
nan

>  <Standardized_SMILES>  (642) 
CNc1cc(N2CCC(CN)(c3ccc(Cl)c(Cl)c3)CC2)ncn1

>  <Name>  (642) 
nan

>  <Pocket>  (642) 
nan

>  <ATP_Site>  (642) 
nan

>  <Peripheral>  (642) 
nan

>  <Num_H_Atoms_ProtBoundConf>  (642) 
nan

>  <Num_Resolved_Atoms>  (642) 
nan

>  <Num_Not_Resolved_Atoms>  (642) 
nan

$$$$
CHEMBL3122122
     RDKit          3D

  0  0  0  0  0  0  0  0  0  0999 V3000
M  V30 BEGIN CTAB
M  V30 COUNTS 53 56 0 0 0
M  V30 BEGIN ATOM
M  V30 1 C 1.919640 -3.385556 4.364927 0
M  V30 2 N 1.925212 -3.977195 3.066484 0
M  V30 3 C 1.927105 -4.546870 1.784759 0
M  V30 4 N 1.572899 -3.488267 0.997911 0
M  V30 5 C 1.449255 -3.578806 -0.320974 0
M  V30 6 N 1.083006 -2.534753 -1.246315 0
M  V30 7 C 0.795557 -1.207894 -0.828199 0
M  V30 8 C 0.808735 -0.688286 0.448764 0
M  V30 9 N 0.483558 0.591180 0.425671 0
M  V30 10 N 0.246714 0.969430 -0.826814 0
M  V30 11 C -0.133278 2.259428 -1.314817 0
M  V30 12 C 0.054957 3.250092 -0.157317 0
M  V30 13 C -1.194456 3.507048 0.597064 0
M  V30 14 N -2.236767 2.575856 0.506626 0
M  V30 15 C -3.060347 2.368467 1.619418 0
M  V30 16 C -2.426069 1.883782 2.905534 0
M  V30 17 O -3.603894 1.126186 3.098153 0
M  V30 18 C -3.864651 1.120550 1.707485 0
M  V30 19 C -2.495792 1.916760 -0.703280 0
M  V30 20 C -1.535655 2.415179 -1.758666 0
M  V30 21 C 0.432406 -0.110194 -1.592718 0
M  V30 22 C 0.274877 -0.153847 -3.082148 0
M  V30 23 N 1.692222 -4.775468 -0.849384 0
M  V30 24 C 2.042430 -5.860127 -0.157851 0
M  V30 25 C 2.166818 -5.757934 1.194185 0
M  V30 26 C 2.533571 -6.766872 2.206792 0
M  V30 27 F 2.779642 -8.006108 1.609692 0
M  V30 28 F 1.481568 -6.989255 3.072411 0
M  V30 29 F 3.706792 -6.451026 2.864733 0
M  V30 30 H 2.918347 -3.353371 4.824153 0
M  V30 31 H 1.641194 -2.280102 4.277951 0
M  V30 32 H 1.123591 -3.791339 5.008155 0
M  V30 33 H 2.207673 -4.896486 3.536977 0
M  V30 34 H 1.014988 -2.712607 -2.258629 0
M  V30 35 H 1.043154 -1.206844 1.368350 0
M  V30 36 H 0.532966 2.552640 -2.155283 0
M  V30 37 H 0.853304 2.888015 0.531815 0
M  V30 38 H 0.440747 4.211286 -0.554741 0
M  V30 39 H -1.610430 4.521324 0.323899 0
M  V30 40 H -0.923502 3.644605 1.684631 0
M  V30 41 H -3.691199 3.263561 1.840319 0
M  V30 42 H -1.597183 1.160131 2.788994 0
M  V30 43 H -2.303435 2.618655 3.699259 0
M  V30 44 H -3.483520 0.214807 1.226633 0
M  V30 45 H -4.961131 1.293922 1.512287 0
M  V30 46 H -2.528863 0.812098 -0.656056 0
M  V30 47 H -3.513588 2.240730 -1.061287 0
M  V30 48 H -1.723271 3.529387 -1.801907 0
M  V30 49 H -1.769472 2.073098 -2.772829 0
M  V30 50 H 0.646258 0.757778 -3.575894 0
M  V30 51 H -0.747487 -0.437002 -3.375076 0
M  V30 52 H 0.934824 -0.971451 -3.488679 0
M  V30 53 H 2.256045 -6.852316 -0.487565 0
M  V30 END ATOM
M  V30 BEGIN BOND
M  V30 1 1 1 2
M  V30 2 1 2 3
M  V30 3 2 3 4
M  V30 4 1 4 5
M  V30 5 1 5 6
M  V30 6 1 6 7
M  V30 7 1 7 8
M  V30 8 2 8 9
M  V30 9 1 9 10
M  V30 10 1 10 11
M  V30 11 1 11 12
M  V30 12 1 12 13
M  V30 13 1 13 14
M  V30 14 1 14 15
M  V30 15 1 15 16
M  V30 16 1 16 17
M  V30 17 1 17 18
M  V30 18 1 14 19
M  V30 19 1 19 20
M  V30 20 1 10 21
M  V30 21 1 21 22
M  V30 22 2 5 23
M  V30 23 1 23 24
M  V30 24 2 24 25
M  V30 25 1 25 26
M  V30 26 1 26 27
M  V30 27 1 26 28
M  V30 28 1 26 29
M  V30 29 1 25 3
M  V30 30 2 21 7
M  V30 31 1 20 11
M  V30 32 1 18 15
M  V30 33 1 1 30
M  V30 34 1 1 31
M  V30 35 1 1 32
M  V30 36 1 2 33
M  V30 37 1 6 34
M  V30 38 1 8 35
M  V30 39 1 11 36
M  V30 40 1 12 37
M  V30 41 1 12 38
M  V30 42 1 13 39
M  V30 43 1 13 40
M  V30 44 1 15 41
M  V30 45 1 16 42
M  V30 46 1 16 43
M  V30 47 1 18 44
M  V30 48 1 18 45
M  V30 49 1 19 46
M  V30 50 1 19 47
M  V30 51 1 20 48
M  V30 52 1 20 49
M  V30 53 1 22 50
M  V30 54 1 22 51
M  V30 55 1 22 52
M  V30 56 1 24 53
M  V30 END BOND
M  V30 END CTAB
M  END
>  <Dataset>  (643) 
ChEMBL_Kinases

>  <Ligand_Instance>  (643) 
nan

>  <PDB_ID>  (643) 
nan

>  <Standardized_SMILES>  (643) 
CNc1nc(Nc2cnn(C3CCN(C4COC4)CC3)c2C)ncc1C(F)(F)F

>  <Name>  (643) 
nan

>  <Pocket>  (643) 
nan

>  <ATP_Site>  (643) 
nan

>  <Peripheral>  (643) 
nan

>  <Num_H_Atoms_ProtBoundConf>  (643) 
nan

>  <Num_Resolved_Atoms>  (643) 
nan

>  <Num_Not_Resolved_Atoms>  (643) 
nan

$$$$
CHEMBL3122121
     RDKit          3D

  0  0  0  0  0  0  0  0  0  0999 V3000
M  V30 BEGIN CTAB
M  V30 COUNTS 44 46 0 0 0
M  V30 BEGIN ATOM
M  V30 1 C -0.441583 -6.438946 1.463811 0
M  V30 2 N -1.766704 -5.893093 1.235642 0
M  V30 3 C -1.996324 -4.487264 1.025576 0
M  V30 4 N -0.917367 -3.688992 1.049784 0
M  V30 5 C -0.991047 -2.359738 0.868189 0
M  V30 6 N 0.178622 -1.552729 0.902094 0
M  V30 7 C 0.213485 -0.142388 0.722815 0
M  V30 8 C -0.843552 0.711626 0.486035 0
M  V30 9 N -0.355773 1.955185 0.382319 0
M  V30 10 N 0.977495 1.926482 0.544626 0
M  V30 11 C 1.771216 3.116069 0.484666 0
M  V30 12 C 2.328806 3.275385 -0.917539 0
M  V30 13 C 3.323655 4.438933 -0.812154 0
M  V30 14 O 2.951561 5.294979 0.225060 0
M  V30 15 C 3.364638 4.681881 1.415646 0
M  V30 16 C 2.906830 3.210738 1.417378 0
M  V30 17 C 1.338346 0.670103 0.750933 0
M  V30 18 C 2.740555 0.266886 0.970111 0
M  V30 19 N -2.216634 -1.851059 0.656633 0
M  V30 20 C -3.319655 -2.610375 0.624514 0
M  V30 21 C -3.257328 -3.975956 0.809476 0
M  V30 22 C -4.431793 -4.865482 0.785790 0
M  V30 23 F -4.242073 -5.780126 -0.228436 0
M  V30 24 F -5.564831 -4.116524 0.468815 0
M  V30 25 F -4.678905 -5.451561 2.010115 0
M  V30 26 H -0.445385 -7.466713 1.008833 0
M  V30 27 H 0.334920 -5.797543 1.001334 0
M  V30 28 H -0.246464 -6.602699 2.543573 0
M  V30 29 H -2.604660 -6.540770 1.220513 0
M  V30 30 H 1.097320 -2.040053 1.074524 0
M  V30 31 H -1.892742 0.474797 0.392065 0
M  V30 32 H 1.161087 4.046224 0.647302 0
M  V30 33 H 2.822688 2.360091 -1.291511 0
M  V30 34 H 1.494732 3.622844 -1.571369 0
M  V30 35 H 3.348747 5.052599 -1.733222 0
M  V30 36 H 4.349330 4.072936 -0.561373 0
M  V30 37 H 4.447290 4.784233 1.522374 0
M  V30 38 H 2.904624 5.257616 2.236152 0
M  V30 39 H 2.704626 3.009714 2.466488 0
M  V30 40 H 3.806442 2.681984 1.008569 0
M  V30 41 H 3.416089 0.487870 0.121231 0
M  V30 42 H 3.149354 0.581533 1.963928 0
M  V30 43 H 2.764758 -0.843561 1.036865 0
M  V30 44 H -4.286511 -2.145952 0.449414 0
M  V30 END ATOM
M  V30 BEGIN BOND
M  V30 1 1 1 2
M  V30 2 1 2 3
M  V30 3 2 3 4
M  V30 4 1 4 5
M  V30 5 1 5 6
M  V30 6 1 6 7
M  V30 7 1 7 8
M  V30 8 2 8 9
M  V30 9 1 9 10
M  V30 10 1 10 11
M  V30 11 1 11 12
M  V30 12 1 12 13
M  V30 13 1 13 14
M  V30 14 1 14 15
M  V30 15 1 15 16
M  V30 16 1 10 17
M  V30 17 1 17 18
M  V30 18 2 5 19
M  V30 19 1 19 20
M  V30 20 2 20 21
M  V30 21 1 21 22
M  V30 22 1 22 23
M  V30 23 1 22 24
M  V30 24 1 22 25
M  V30 25 1 21 3
M  V30 26 2 17 7
M  V30 27 1 16 11
M  V30 28 1 1 26
M  V30 29 1 1 27
M  V30 30 1 1 28
M  V30 31 1 2 29
M  V30 32 1 6 30
M  V30 33 1 8 31
M  V30 34 1 11 32
M  V30 35 1 12 33
M  V30 36 1 12 34
M  V30 37 1 13 35
M  V30 38 1 13 36
M  V30 39 1 15 37
M  V30 40 1 15 38
M  V30 41 1 16 39
M  V30 42 1 16 40
M  V30 43 1 18 41
M  V30 44 1 18 42
M  V30 45 1 18 43
M  V30 46 1 20 44
M  V30 END BOND
M  V30 END CTAB
M  END
>  <Dataset>  (644) 
ChEMBL_Kinases

>  <Ligand_Instance>  (644) 
nan

>  <PDB_ID>  (644) 
nan

>  <Standardized_SMILES>  (644) 
CNc1nc(Nc2cnn(C3CCOCC3)c2C)ncc1C(F)(F)F

>  <Name>  (644) 
nan

>  <Pocket>  (644) 
nan

>  <ATP_Site>  (644) 
nan

>  <Peripheral>  (644) 
nan

>  <Num_H_Atoms_ProtBoundConf>  (644) 
nan

>  <Num_Resolved_Atoms>  (644) 
nan

>  <Num_Not_Resolved_Atoms>  (644) 
nan

$$$$
CHEMBL3122120
     RDKit          3D

  0  0  0  0  0  0  0  0  0  0999 V3000
M  V30 BEGIN CTAB
M  V30 COUNTS 38 40 0 0 0
M  V30 BEGIN ATOM
M  V30 1 C -4.417249 -2.656097 1.033585 0
M  V30 2 N -3.095165 -2.516670 1.503608 0
M  V30 3 C -1.783512 -2.378340 1.969916 0
M  V30 4 N -0.719063 -1.676758 1.572609 0
M  V30 5 C 0.464182 -1.687837 2.176328 0
M  V30 6 N 1.488772 -0.885911 1.626614 0
M  V30 7 C 1.380941 -0.063416 0.483338 0
M  V30 8 C 0.311991 0.161919 -0.352741 0
M  V30 9 N 0.696778 1.029163 -1.308481 0
M  V30 10 N 1.969350 1.351064 -1.095186 0
M  V30 11 C 2.693660 2.263477 -1.940132 0
M  V30 12 C 1.882892 2.930229 -3.014263 0
M  V30 13 O 2.188229 4.202254 -2.521187 0
M  V30 14 C 2.697086 3.639006 -1.335909 0
M  V30 15 C 2.423782 0.705207 -0.010743 0
M  V30 16 C 3.796691 0.835015 0.509847 0
M  V30 17 N 0.549610 -2.467975 3.249704 0
M  V30 18 C -0.416614 -3.226255 3.770637 0
M  V30 19 C -1.652005 -3.190703 3.108665 0
M  V30 20 C -2.713404 -4.054633 3.717765 0
M  V30 21 F -3.807945 -3.286289 4.100149 0
M  V30 22 F -2.269506 -4.655337 4.873704 0
M  V30 23 F -3.122252 -5.041612 2.863865 0
M  V30 24 H -4.928239 -3.460118 1.659236 0
M  V30 25 H -4.562939 -2.982740 -0.019236 0
M  V30 26 H -5.027486 -1.729117 1.177936 0
M  V30 27 H -2.943774 -1.835193 0.680619 0
M  V30 28 H 2.373059 -0.959636 2.166281 0
M  V30 29 H -0.673114 -0.256886 -0.293061 0
M  V30 30 H 3.650565 1.890515 -2.342134 0
M  V30 31 H 2.246519 2.802994 -4.051924 0
M  V30 32 H 0.801459 2.719970 -2.893957 0
M  V30 33 H 2.016180 3.771121 -0.493283 0
M  V30 34 H 3.728802 4.056179 -1.181249 0
M  V30 35 H 4.022181 1.932361 0.647002 0
M  V30 36 H 4.549884 0.367055 -0.125534 0
M  V30 37 H 3.860895 0.339588 1.517209 0
M  V30 38 H -0.186521 -3.806725 4.652581 0
M  V30 END ATOM
M  V30 BEGIN BOND
M  V30 1 1 1 2
M  V30 2 1 2 3
M  V30 3 2 3 4
M  V30 4 1 4 5
M  V30 5 1 5 6
M  V30 6 1 6 7
M  V30 7 1 7 8
M  V30 8 2 8 9
M  V30 9 1 9 10
M  V30 10 1 10 11
M  V30 11 1 11 12
M  V30 12 1 12 13
M  V30 13 1 13 14
M  V30 14 1 10 15
M  V30 15 1 15 16
M  V30 16 2 5 17
M  V30 17 1 17 18
M  V30 18 2 18 19
M  V30 19 1 19 20
M  V30 20 1 20 21
M  V30 21 1 20 22
M  V30 22 1 20 23
M  V30 23 1 19 3
M  V30 24 2 15 7
M  V30 25 1 14 11
M  V30 26 1 1 24
M  V30 27 1 1 25
M  V30 28 1 1 26
M  V30 29 1 2 27
M  V30 30 1 6 28
M  V30 31 1 8 29
M  V30 32 1 11 30
M  V30 33 1 12 31
M  V30 34 1 12 32
M  V30 35 1 14 33
M  V30 36 1 14 34
M  V30 37 1 16 35
M  V30 38 1 16 36
M  V30 39 1 16 37
M  V30 40 1 18 38
M  V30 END BOND
M  V30 END CTAB
M  END
>  <Dataset>  (645) 
ChEMBL_Kinases

>  <Ligand_Instance>  (645) 
nan

>  <PDB_ID>  (645) 
nan

>  <Standardized_SMILES>  (645) 
CNc1nc(Nc2cnn(C3COC3)c2C)ncc1C(F)(F)F

>  <Name>  (645) 
nan

>  <Pocket>  (645) 
nan

>  <ATP_Site>  (645) 
nan

>  <Peripheral>  (645) 
nan

>  <Num_H_Atoms_ProtBoundConf>  (645) 
nan

>  <Num_Resolved_Atoms>  (645) 
nan

>  <Num_Not_Resolved_Atoms>  (645) 
nan

$$$$
CHEMBL3122119
     RDKit          3D

  0  0  0  0  0  0  0  0  0  0999 V3000
M  V30 BEGIN CTAB
M  V30 COUNTS 43 44 0 0 0
M  V30 BEGIN ATOM
M  V30 1 C 0.472773 -4.654495 1.997084 0
M  V30 2 C -0.026490 -3.735587 3.065803 0
M  V30 3 N -1.330349 -3.237425 2.718381 0
M  V30 4 C -1.464197 -2.495754 1.515562 0
M  V30 5 N -0.426889 -2.247676 0.702494 0
M  V30 6 C -0.537494 -1.545536 -0.442600 0
M  V30 7 N 0.658218 -1.366480 -1.199049 0
M  V30 8 C 1.397184 -0.194091 -0.862851 0
M  V30 9 C 1.082536 0.755145 0.090215 0
M  V30 10 C 2.052573 1.750065 0.119741 0
M  V30 11 C 2.049469 2.941688 1.023787 0
M  V30 12 C 2.766611 2.658189 2.325608 0
M  V30 13 C 0.629992 3.341502 1.379034 0
M  V30 14 C 2.674499 4.047021 0.291600 0
M  V30 15 N 3.156886 4.937854 -0.294925 0
M  V30 16 N 2.939855 1.375839 -0.825204 0
M  V30 17 N 2.561776 0.250707 -1.394761 0
M  V30 18 C 3.316764 -0.404590 -2.453776 0
M  V30 19 N -1.740415 -1.046008 -0.830610 0
M  V30 20 C -2.852411 -1.249034 -0.065348 0
M  V30 21 C -2.678698 -1.972106 1.091182 0
M  V30 22 C -3.884995 -2.211087 1.953087 0
M  V30 23 F -5.022477 -1.640541 1.420133 0
M  V30 24 F -3.688053 -1.665546 3.202783 0
M  V30 25 F -4.101640 -3.561120 2.061749 0
M  V30 26 H -0.115569 -4.578964 1.070003 0
M  V30 27 H 1.525921 -4.389957 1.694188 0
M  V30 28 H 0.501407 -5.700826 2.366127 0
M  V30 29 H -0.028418 -4.277814 4.037216 0
M  V30 30 H 0.693915 -2.877671 3.150620 0
M  V30 31 H -2.177291 -3.391949 3.300821 0
M  V30 32 H 1.028131 -1.985796 -1.943762 0
M  V30 33 H 0.211475 0.755444 0.740069 0
M  V30 34 H 2.169159 3.003304 3.217606 0
M  V30 35 H 3.770246 3.076021 2.385335 0
M  V30 36 H 2.783696 1.540148 2.450521 0
M  V30 37 H 0.554157 4.405465 1.654168 0
M  V30 38 H -0.052251 3.136820 0.502907 0
M  V30 39 H 0.242233 2.663087 2.175446 0
M  V30 40 H 3.023273 -1.465618 -2.561487 0
M  V30 41 H 4.405374 -0.432309 -2.179960 0
M  V30 42 H 3.249937 0.165608 -3.394655 0
M  V30 43 H -3.815452 -0.855310 -0.365491 0
M  V30 END ATOM
M  V30 BEGIN BOND
M  V30 1 1 1 2
M  V30 2 1 2 3
M  V30 3 1 3 4
M  V30 4 2 4 5
M  V30 5 1 5 6
M  V30 6 1 6 7
M  V30 7 1 7 8
M  V30 8 2 8 9
M  V30 9 1 9 10
M  V30 10 1 10 11
M  V30 11 1 11 12
M  V30 12 1 11 13
M  V30 13 1 11 14
M  V30 14 3 14 15
M  V30 15 2 10 16
M  V30 16 1 16 17
M  V30 17 1 17 18
M  V30 18 2 6 19
M  V30 19 1 19 20
M  V30 20 2 20 21
M  V30 21 1 21 22
M  V30 22 1 22 23
M  V30 23 1 22 24
M  V30 24 1 22 25
M  V30 25 1 21 4
M  V30 26 1 17 8
M  V30 27 1 1 26
M  V30 28 1 1 27
M  V30 29 1 1 28
M  V30 30 1 2 29
M  V30 31 1 2 30
M  V30 32 1 3 31
M  V30 33 1 7 32
M  V30 34 1 9 33
M  V30 35 1 12 34
M  V30 36 1 12 35
M  V30 37 1 12 36
M  V30 38 1 13 37
M  V30 39 1 13 38
M  V30 40 1 13 39
M  V30 41 1 18 40
M  V30 42 1 18 41
M  V30 43 1 18 42
M  V30 44 1 20 43
M  V30 END BOND
M  V30 END CTAB
M  END
>  <Dataset>  (646) 
ChEMBL_Kinases

>  <Ligand_Instance>  (646) 
nan

>  <PDB_ID>  (646) 
nan

>  <Standardized_SMILES>  (646) 
CCNc1nc(Nc2cc(C(C)(C)C#N)nn2C)ncc1C(F)(F)F

>  <Name>  (646) 
nan

>  <Pocket>  (646) 
nan

>  <ATP_Site>  (646) 
nan

>  <Peripheral>  (646) 
nan

>  <Num_H_Atoms_ProtBoundConf>  (646) 
nan

>  <Num_Resolved_Atoms>  (646) 
nan

>  <Num_Not_Resolved_Atoms>  (646) 
nan

$$$$
CHEMBL3122118
     RDKit          3D

  0  0  0  0  0  0  0  0  0  0999 V3000
M  V30 BEGIN CTAB
M  V30 COUNTS 35 37 0 0 0
M  V30 BEGIN ATOM
M  V30 1 C 0.518165 -5.306430 0.684938 0
M  V30 2 N -0.285198 -4.797068 1.763237 0
M  V30 3 C -0.377845 -3.443309 2.182371 0
M  V30 4 N 0.388057 -2.600832 1.458313 0
M  V30 5 C 0.407154 -1.266241 1.743154 0
M  V30 6 N 1.102257 -0.175508 1.155439 0
M  V30 7 C 0.683987 0.714262 0.129026 0
M  V30 8 C -0.528769 0.702807 -0.522219 0
M  V30 9 N -0.496783 1.716286 -1.404254 0
M  V30 10 N 0.670522 2.339901 -1.322031 0
M  V30 11 C 1.067869 3.468048 -2.103339 0
M  V30 12 C 2.522191 3.553835 -2.350900 0
M  V30 13 N 3.678204 3.603042 -2.554077 0
M  V30 14 C 0.487926 4.779843 -1.574157 0
M  V30 15 C 0.182989 4.270293 -2.941419 0
M  V30 16 C 1.433302 1.749943 -0.381909 0
M  V30 17 Cl 3.055168 2.201136 0.097565 0
M  V30 18 N -0.358844 -0.817494 2.764324 0
M  V30 19 C -1.138794 -1.622310 3.513527 0
M  V30 20 C -1.171390 -2.979496 3.240096 0
M  V30 21 C -1.976306 -3.993932 3.971730 0
M  V30 22 F -2.876887 -4.651614 3.138415 0
M  V30 23 F -2.759033 -3.374265 4.932324 0
M  V30 24 F -1.154997 -4.937946 4.554140 0
M  V30 25 H 1.612590 -5.278262 0.950748 0
M  V30 26 H 0.301392 -4.739672 -0.254312 0
M  V30 27 H 0.252648 -6.368819 0.515099 0
M  V30 28 H -0.882168 -5.439379 2.334949 0
M  V30 29 H 2.044064 -0.083818 1.595054 0
M  V30 30 H -1.348433 0.006513 -0.349307 0
M  V30 31 H 1.140935 5.638150 -1.400332 0
M  V30 32 H -0.376117 4.750798 -0.886927 0
M  V30 33 H -0.841497 3.963937 -3.223992 0
M  V30 34 H 0.676292 4.843612 -3.756745 0
M  V30 35 H -1.758491 -1.297464 4.330761 0
M  V30 END ATOM
M  V30 BEGIN BOND
M  V30 1 1 1 2
M  V30 2 1 2 3
M  V30 3 2 3 4
M  V30 4 1 4 5
M  V30 5 1 5 6
M  V30 6 1 6 7
M  V30 7 1 7 8
M  V30 8 2 8 9
M  V30 9 1 9 10
M  V30 10 1 10 11
M  V30 11 1 11 12
M  V30 12 3 12 13
M  V30 13 1 11 14
M  V30 14 1 14 15
M  V30 15 1 10 16
M  V30 16 1 16 17
M  V30 17 2 5 18
M  V30 18 1 18 19
M  V30 19 2 19 20
M  V30 20 1 20 21
M  V30 21 1 21 22
M  V30 22 1 21 23
M  V30 23 1 21 24
M  V30 24 1 20 3
M  V30 25 2 16 7
M  V30 26 1 15 11
M  V30 27 1 1 25
M  V30 28 1 1 26
M  V30 29 1 1 27
M  V30 30 1 2 28
M  V30 31 1 6 29
M  V30 32 1 8 30
M  V30 33 1 14 31
M  V30 34 1 14 32
M  V30 35 1 15 33
M  V30 36 1 15 34
M  V30 37 1 19 35
M  V30 END BOND
M  V30 END CTAB
M  END
>  <Dataset>  (647) 
ChEMBL_Kinases

>  <Ligand_Instance>  (647) 
nan

>  <PDB_ID>  (647) 
nan

>  <Standardized_SMILES>  (647) 
CNc1nc(Nc2cnn(C3(C#N)CC3)c2Cl)ncc1C(F)(F)F

>  <Name>  (647) 
nan

>  <Pocket>  (647) 
nan

>  <ATP_Site>  (647) 
nan

>  <Peripheral>  (647) 
nan

>  <Num_H_Atoms_ProtBoundConf>  (647) 
nan

>  <Num_Resolved_Atoms>  (647) 
nan

>  <Num_Not_Resolved_Atoms>  (647) 
nan

$$$$
CHEMBL3122117
     RDKit          3D

  0  0  0  0  0  0  0  0  0  0999 V3000
M  V30 BEGIN CTAB
M  V30 COUNTS 50 53 0 0 0
M  V30 BEGIN ATOM
M  V30 1 C -1.189656 -6.120729 2.586737 0
M  V30 2 N 0.160763 -6.560407 2.241486 0
M  V30 3 C 0.939824 -5.896301 1.255219 0
M  V30 4 N 0.429324 -4.827065 0.611825 0
M  V30 5 C 1.140595 -4.173041 -0.329787 0
M  V30 6 N 0.433244 -3.055872 -0.907791 0
M  V30 7 C 0.607013 -1.768612 -0.279037 0
M  V30 8 C 1.386332 -1.473542 0.828717 0
M  V30 9 N 1.276163 -0.159156 1.094233 0
M  V30 10 N 0.453933 0.412792 0.200335 0
M  V30 11 C 0.123356 1.818733 0.207908 0 CFG=1
M  V30 12 C 0.495017 2.449775 1.533628 0
M  V30 13 C 0.054569 3.897030 1.546318 0
M  V30 14 N -0.611975 4.190864 0.334413 0
M  V30 15 C -1.803472 4.901210 0.373834 0
M  V30 16 C -2.964369 4.315739 1.142683 0
M  V30 17 O -3.554713 3.829280 -0.010266 0
M  V30 18 C -2.813513 4.785030 -0.712476 0
M  V30 19 C 0.094697 3.993581 -0.858593 0
M  V30 20 C 0.755865 2.611482 -0.893944 0 CFG=2
M  V30 21 F 0.468263 2.008063 -2.094086 0
M  V30 22 C 0.034159 -0.544810 -0.644901 0
M  V30 23 Cl -1.039664 -0.352395 -1.984023 0
M  V30 24 N 2.375495 -4.519524 -0.693967 0
M  V30 25 C 2.905207 -5.590044 -0.059678 0
M  V30 26 C 2.222207 -6.297595 0.912670 0
M  V30 27 C 2.780133 -7.476285 1.623779 0
M  V30 28 F 4.051536 -7.693333 1.128959 0
M  V30 29 F 2.896980 -7.275531 2.984562 0
M  V30 30 F 1.951825 -8.551794 1.336635 0
M  V30 31 H -1.962690 -6.582091 1.935709 0
M  V30 32 H -1.320808 -5.032024 2.474913 0
M  V30 33 H -1.429255 -6.401877 3.623577 0
M  V30 34 H 0.534781 -7.379454 2.743724 0
M  V30 35 H -0.197939 -3.072899 -1.739621 0
M  V30 36 H 1.962686 -2.222961 1.346669 0
M  V30 37 H -0.992600 1.975885 0.125217 0
M  V30 38 H 1.621721 2.446099 1.575453 0
M  V30 39 H 0.083065 1.888984 2.397038 0
M  V30 40 H 0.918873 4.584856 1.715780 0
M  V30 41 H -0.611671 4.043399 2.411544 0
M  V30 42 H -1.643773 5.953877 0.748477 0
M  V30 43 H -2.708157 3.474954 1.814911 0
M  V30 44 H -3.629060 5.024783 1.657472 0
M  V30 45 H -3.457673 5.700774 -0.794474 0
M  V30 46 H -2.524491 4.393000 -1.684111 0
M  V30 47 H 0.944364 4.737233 -0.874230 0
M  V30 48 H -0.502701 4.217040 -1.735648 0
M  V30 49 H 1.856980 2.679835 -0.763099 0
M  V30 50 H 3.900728 -5.948396 -0.285432 0
M  V30 END ATOM
M  V30 BEGIN BOND
M  V30 1 1 1 2
M  V30 2 1 2 3
M  V30 3 2 3 4
M  V30 4 1 4 5
M  V30 5 1 5 6
M  V30 6 1 6 7
M  V30 7 1 7 8
M  V30 8 2 8 9
M  V30 9 1 9 10
M  V30 10 1 10 11
M  V30 11 1 11 12
M  V30 12 1 12 13
M  V30 13 1 13 14
M  V30 14 1 14 15
M  V30 15 1 15 16
M  V30 16 1 16 17
M  V30 17 1 17 18
M  V30 18 1 14 19
M  V30 19 1 19 20
M  V30 20 1 20 21
M  V30 21 1 10 22
M  V30 22 1 22 23
M  V30 23 2 5 24
M  V30 24 1 24 25
M  V30 25 2 25 26
M  V30 26 1 26 27
M  V30 27 1 27 28
M  V30 28 1 27 29
M  V30 29 1 27 30
M  V30 30 1 26 3
M  V30 31 2 22 7
M  V30 32 1 20 11
M  V30 33 1 18 15
M  V30 34 1 1 31
M  V30 35 1 1 32
M  V30 36 1 1 33
M  V30 37 1 2 34
M  V30 38 1 6 35
M  V30 39 1 8 36
M  V30 40 1 11 37 CFG=3
M  V30 41 1 12 38
M  V30 42 1 12 39
M  V30 43 1 13 40
M  V30 44 1 13 41
M  V30 45 1 15 42
M  V30 46 1 16 43
M  V30 47 1 16 44
M  V30 48 1 18 45
M  V30 49 1 18 46
M  V30 50 1 19 47
M  V30 51 1 19 48
M  V30 52 1 20 49 CFG=1
M  V30 53 1 25 50
M  V30 END BOND
M  V30 END CTAB
M  END
>  <Dataset>  (648) 
ChEMBL_Kinases

>  <Ligand_Instance>  (648) 
nan

>  <PDB_ID>  (648) 
nan

>  <Standardized_SMILES>  (648) 
CNc1nc(Nc2cnn([C@H]3CCN(C4COC4)C[C@@H]3F)c2Cl)ncc1C(F)(F)F

>  <Name>  (648) 
nan

>  <Pocket>  (648) 
nan

>  <ATP_Site>  (648) 
nan

>  <Peripheral>  (648) 
nan

>  <Num_H_Atoms_ProtBoundConf>  (648) 
nan

>  <Num_Resolved_Atoms>  (648) 
nan

>  <Num_Not_Resolved_Atoms>  (648) 
nan

$$$$
CHEMBL3122116
     RDKit          3D

  0  0  0  0  0  0  0  0  0  0999 V3000
M  V30 BEGIN CTAB
M  V30 COUNTS 53 56 0 0 0
M  V30 BEGIN ATOM
M  V30 1 C -2.523070 -2.396555 1.644005 0
M  V30 2 N -2.356381 -3.764875 2.063234 0
M  V30 3 C -1.108415 -4.408142 1.903685 0
M  V30 4 N -0.066765 -3.753499 1.361154 0
M  V30 5 C 1.152030 -4.284259 1.171785 0
M  V30 6 N 2.240767 -3.575539 0.596335 0
M  V30 7 C 2.173646 -2.236119 0.156580 0
M  V30 8 C 1.117586 -1.347974 0.173580 0
M  V30 9 N 1.444242 -0.147243 -0.338642 0
M  V30 10 C 0.644784 1.037837 -0.501666 0 CFG=1
M  V30 11 C 1.442321 2.302733 -0.514291 0
M  V30 12 C 0.466921 3.436079 -0.190410 0
M  V30 13 N -0.848114 3.070736 -0.440084 0
M  V30 14 C -1.887947 3.376063 0.436003 0
M  V30 15 C -2.174418 4.807919 0.753302 0
M  V30 16 O -2.094442 4.596373 2.128683 0
M  V30 17 C -1.708705 3.288512 1.912355 0
M  V30 18 C -1.134052 2.259673 -1.567252 0
M  V30 19 C -0.254341 1.033378 -1.700858 0 CFG=1
M  V30 20 F 0.472561 1.187818 -2.887298 0
M  V30 21 N 2.710618 -0.248469 -0.690189 0
M  V30 22 C 3.188508 -1.472341 -0.415465 0
M  V30 23 C 4.582049 -1.920711 -0.686482 0
M  V30 24 N 1.305589 -5.560723 1.563418 0
M  V30 25 C 0.302979 -6.268564 2.112277 0
M  V30 26 C -0.945669 -5.717169 2.303684 0
M  V30 27 C -2.046079 -6.507793 2.910711 0
M  V30 28 F -1.565002 -7.783556 3.202305 0
M  V30 29 F -3.115035 -6.693236 2.063654 0
M  V30 30 F -2.449245 -5.983913 4.123847 0
M  V30 31 H -3.604121 -2.097670 1.719488 0
M  V30 32 H -2.161945 -2.280076 0.600602 0
M  V30 33 H -1.960688 -1.677101 2.277733 0
M  V30 34 H -3.162947 -4.275312 2.484528 0
M  V30 35 H 3.153860 -4.068250 0.487339 0
M  V30 36 H 0.124539 -1.539030 0.542200 0
M  V30 37 H -0.031229 1.106425 0.389023 0
M  V30 38 H 1.831126 2.510598 -1.552095 0
M  V30 39 H 2.323969 2.299918 0.137069 0
M  V30 40 H 0.653037 3.663569 0.879489 0
M  V30 41 H 0.733502 4.336882 -0.816765 0
M  V30 42 H -2.823167 2.837186 0.147403 0
M  V30 43 H -1.354041 5.477131 0.423944 0
M  V30 44 H -3.186437 5.137475 0.458766 0
M  V30 45 H -0.687929 3.077926 2.298744 0
M  V30 46 H -2.414270 2.583345 2.442145 0
M  V30 47 H -1.113266 2.903610 -2.472463 0
M  V30 48 H -2.193524 1.930194 -1.478042 0
M  V30 49 H -0.868215 0.112984 -1.768812 0
M  V30 50 H 5.254601 -1.034470 -0.650904 0
M  V30 51 H 4.933578 -2.596204 0.118481 0
M  V30 52 H 4.672428 -2.452611 -1.653622 0
M  V30 53 H 0.500284 -7.296944 2.405390 0
M  V30 END ATOM
M  V30 BEGIN BOND
M  V30 1 1 1 2
M  V30 2 1 2 3
M  V30 3 2 3 4
M  V30 4 1 4 5
M  V30 5 1 5 6
M  V30 6 1 6 7
M  V30 7 2 7 8
M  V30 8 1 8 9
M  V30 9 1 9 10
M  V30 10 1 10 11
M  V30 11 1 11 12
M  V30 12 1 12 13
M  V30 13 1 13 14
M  V30 14 1 14 15
M  V30 15 1 15 16
M  V30 16 1 16 17
M  V30 17 1 13 18
M  V30 18 1 18 19
M  V30 19 1 19 20
M  V30 20 1 9 21
M  V30 21 2 21 22
M  V30 22 1 22 23
M  V30 23 2 5 24
M  V30 24 1 24 25
M  V30 25 2 25 26
M  V30 26 1 26 27
M  V30 27 1 27 28
M  V30 28 1 27 29
M  V30 29 1 27 30
M  V30 30 1 26 3
M  V30 31 1 22 7
M  V30 32 1 19 10
M  V30 33 1 17 14
M  V30 34 1 1 31
M  V30 35 1 1 32
M  V30 36 1 1 33
M  V30 37 1 2 34
M  V30 38 1 6 35
M  V30 39 1 8 36
M  V30 40 1 10 37 CFG=1
M  V30 41 1 11 38
M  V30 42 1 11 39
M  V30 43 1 12 40
M  V30 44 1 12 41
M  V30 45 1 14 42
M  V30 46 1 15 43
M  V30 47 1 15 44
M  V30 48 1 17 45
M  V30 49 1 17 46
M  V30 50 1 18 47
M  V30 51 1 18 48
M  V30 52 1 19 49 CFG=3
M  V30 53 1 23 50
M  V30 54 1 23 51
M  V30 55 1 23 52
M  V30 56 1 25 53
M  V30 END BOND
M  V30 END CTAB
M  END
>  <Dataset>  (649) 
ChEMBL_Kinases

>  <Ligand_Instance>  (649) 
nan

>  <PDB_ID>  (649) 
nan

>  <Standardized_SMILES>  (649) 
CNc1nc(Nc2cn([C@H]3CCN(C4COC4)C[C@H]3F)nc2C)ncc1C(F)(F)F

>  <Name>  (649) 
nan

>  <Pocket>  (649) 
nan

>  <ATP_Site>  (649) 
nan

>  <Peripheral>  (649) 
nan

>  <Num_H_Atoms_ProtBoundConf>  (649) 
nan

>  <Num_Resolved_Atoms>  (649) 
nan

>  <Num_Not_Resolved_Atoms>  (649) 
nan

$$$$
CHEMBL3122115
     RDKit          3D

  0  0  0  0  0  0  0  0  0  0999 V3000
M  V30 BEGIN CTAB
M  V30 COUNTS 38 40 0 0 0
M  V30 BEGIN ATOM
M  V30 1 C -1.365592 -5.230396 0.648494 0
M  V30 2 N -1.910319 -4.069012 1.328130 0
M  V30 3 C -1.330810 -2.848381 1.751254 0
M  V30 4 N -0.021270 -2.687966 1.502227 0
M  V30 5 C 0.614442 -1.585991 1.859566 0
M  V30 6 N 1.953781 -1.119529 1.716829 0
M  V30 7 C 2.190924 0.044180 0.889424 0
M  V30 8 C 1.186279 0.780226 0.241620 0
M  V30 9 N 1.723727 1.813189 -0.434994 0
M  V30 10 C 1.047254 2.828747 -1.237772 0
M  V30 11 C 1.663139 4.153443 -1.257135 0
M  V30 12 N 2.162268 5.196066 -1.257651 0
M  V30 13 C 0.267568 2.388078 -2.460376 0
M  V30 14 C -0.495392 2.785762 -1.214714 0
M  V30 15 N 3.026832 1.754616 -0.240550 0
M  V30 16 C 3.356837 0.727685 0.535761 0
M  V30 17 C 4.676448 0.248150 1.027131 0
M  V30 18 N -0.081374 -0.599308 2.492746 0
M  V30 19 C -1.408479 -0.731265 2.759087 0
M  V30 20 C -2.088190 -1.861481 2.399182 0
M  V30 21 C -3.543411 -2.090874 2.658862 0
M  V30 22 F -3.688659 -3.177676 3.472222 0
M  V30 23 F -4.186222 -2.272081 1.441711 0
M  V30 24 F -4.030758 -0.982786 3.311664 0
M  V30 25 H -0.267690 -5.313877 0.727934 0
M  V30 26 H -1.585025 -5.119239 -0.456470 0
M  V30 27 H -1.874350 -6.166412 0.958516 0
M  V30 28 H -2.945661 -4.186456 1.533694 0
M  V30 29 H 2.781318 -1.560205 2.168683 0
M  V30 30 H 0.120963 0.526597 0.297600 0
M  V30 31 H 0.304995 1.298076 -2.723370 0
M  V30 32 H 0.162802 3.058557 -3.311250 0
M  V30 33 H -0.956134 1.986932 -0.597625 0
M  V30 34 H -1.036067 3.748320 -1.203790 0
M  V30 35 H 5.454052 0.882344 0.585062 0
M  V30 36 H 4.760014 0.376676 2.147769 0
M  V30 37 H 4.852339 -0.835301 0.763750 0
M  V30 38 H -2.015862 0.019463 3.258958 0
M  V30 END ATOM
M  V30 BEGIN BOND
M  V30 1 1 1 2
M  V30 2 1 2 3
M  V30 3 2 3 4
M  V30 4 1 4 5
M  V30 5 1 5 6
M  V30 6 1 6 7
M  V30 7 2 7 8
M  V30 8 1 8 9
M  V30 9 1 9 10
M  V30 10 1 10 11
M  V30 11 3 11 12
M  V30 12 1 10 13
M  V30 13 1 13 14
M  V30 14 1 9 15
M  V30 15 2 15 16
M  V30 16 1 16 17
M  V30 17 2 5 18
M  V30 18 1 18 19
M  V30 19 2 19 20
M  V30 20 1 20 21
M  V30 21 1 21 22
M  V30 22 1 21 23
M  V30 23 1 21 24
M  V30 24 1 20 3
M  V30 25 1 16 7
M  V30 26 1 14 10
M  V30 27 1 1 25
M  V30 28 1 1 26
M  V30 29 1 1 27
M  V30 30 1 2 28
M  V30 31 1 6 29
M  V30 32 1 8 30
M  V30 33 1 13 31
M  V30 34 1 13 32
M  V30 35 1 14 33
M  V30 36 1 14 34
M  V30 37 1 17 35
M  V30 38 1 17 36
M  V30 39 1 17 37
M  V30 40 1 19 38
M  V30 END BOND
M  V30 END CTAB
M  END
>  <Dataset>  (650) 
ChEMBL_Kinases

>  <Ligand_Instance>  (650) 
nan

>  <PDB_ID>  (650) 
nan

>  <Standardized_SMILES>  (650) 
CNc1nc(Nc2cn(C3(C#N)CC3)nc2C)ncc1C(F)(F)F

>  <Name>  (650) 
nan

>  <Pocket>  (650) 
nan

>  <ATP_Site>  (650) 
nan

>  <Peripheral>  (650) 
nan

>  <Num_H_Atoms_ProtBoundConf>  (650) 
nan

>  <Num_Resolved_Atoms>  (650) 
nan

>  <Num_Not_Resolved_Atoms>  (650) 
nan

$$$$
CHEMBL3122114
     RDKit          3D

  0  0  0  0  0  0  0  0  0  0999 V3000
M  V30 BEGIN CTAB
M  V30 COUNTS 40 41 0 0 0
M  V30 BEGIN ATOM
M  V30 1 C -0.119017 -6.807688 1.992804 0
M  V30 2 N -0.281380 -5.485725 1.541430 0
M  V30 3 C -0.444062 -4.161000 1.089131 0
M  V30 4 N 0.222772 -3.044960 1.364322 0
M  V30 5 C -0.081881 -1.861395 0.829510 0
M  V30 6 N 0.730319 -0.776813 1.237338 0
M  V30 7 C 0.537641 0.518884 0.745092 0
M  V30 8 C -0.416695 0.894572 -0.175500 0
M  V30 9 N -0.285127 2.213751 -0.397393 0
M  V30 10 N 0.720638 2.682529 0.352763 0
M  V30 11 C 1.164628 4.078519 0.380328 0
M  V30 12 C 0.192935 4.951793 -0.343449 0
M  V30 13 C 2.530129 4.225425 -0.200955 0
M  V30 14 C 1.226599 4.531780 1.786620 0
M  V30 15 N 1.258427 4.886090 2.895471 0
M  V30 16 C 1.232802 1.682292 1.050198 0
M  V30 17 C 2.369090 1.708003 2.028577 0
M  V30 18 N -1.111204 -1.862913 -0.011446 0
M  V30 19 C -1.860200 -2.906180 -0.371374 0
M  V30 20 C -1.532726 -4.147620 0.196458 0
M  V30 21 C -2.366958 -5.327250 -0.192571 0
M  V30 22 F -2.976843 -5.859996 0.953501 0
M  V30 23 F -3.390087 -4.872813 -0.986432 0
M  V30 24 F -1.624212 -6.305195 -0.792291 0
M  V30 25 H -0.237310 -6.997331 3.091133 0
M  V30 26 H -0.934960 -7.496449 1.555364 0
M  V30 27 H 0.834672 -7.331445 1.673614 0
M  V30 28 H 0.567016 -5.274230 2.175098 0
M  V30 29 H 1.500370 -0.889249 1.915057 0
M  V30 30 H -1.185377 0.376086 -0.707839 0
M  V30 31 H 0.548598 5.052898 -1.399587 0
M  V30 32 H -0.819393 4.519318 -0.348123 0
M  V30 33 H 0.172501 5.973983 0.088818 0
M  V30 34 H 2.875651 3.352637 -0.779283 0
M  V30 35 H 3.304457 4.425455 0.569971 0
M  V30 36 H 2.543305 5.121170 -0.858949 0
M  V30 37 H 2.738953 0.695525 2.253643 0
M  V30 38 H 2.042153 2.160557 2.992942 0
M  V30 39 H 3.229569 2.255566 1.585755 0
M  V30 40 H -2.672313 -2.747027 -1.073916 0
M  V30 END ATOM
M  V30 BEGIN BOND
M  V30 1 1 1 2
M  V30 2 1 2 3
M  V30 3 2 3 4
M  V30 4 1 4 5
M  V30 5 1 5 6
M  V30 6 1 6 7
M  V30 7 1 7 8
M  V30 8 2 8 9
M  V30 9 1 9 10
M  V30 10 1 10 11
M  V30 11 1 11 12
M  V30 12 1 11 13
M  V30 13 1 11 14
M  V30 14 3 14 15
M  V30 15 1 10 16
M  V30 16 1 16 17
M  V30 17 2 5 18
M  V30 18 1 18 19
M  V30 19 2 19 20
M  V30 20 1 20 21
M  V30 21 1 21 22
M  V30 22 1 21 23
M  V30 23 1 21 24
M  V30 24 1 20 3
M  V30 25 2 16 7
M  V30 26 1 1 25
M  V30 27 1 1 26
M  V30 28 1 1 27
M  V30 29 1 2 28
M  V30 30 1 6 29
M  V30 31 1 8 30
M  V30 32 1 12 31
M  V30 33 1 12 32
M  V30 34 1 12 33
M  V30 35 1 13 34
M  V30 36 1 13 35
M  V30 37 1 13 36
M  V30 38 1 17 37
M  V30 39 1 17 38
M  V30 40 1 17 39
M  V30 41 1 19 40
M  V30 END BOND
M  V30 END CTAB
M  END
>  <Dataset>  (651) 
ChEMBL_Kinases

>  <Ligand_Instance>  (651) 
nan

>  <PDB_ID>  (651) 
nan

>  <Standardized_SMILES>  (651) 
CNc1nc(Nc2cnn(C(C)(C)C#N)c2C)ncc1C(F)(F)F

>  <Name>  (651) 
nan

>  <Pocket>  (651) 
nan

>  <ATP_Site>  (651) 
nan

>  <Peripheral>  (651) 
nan

>  <Num_H_Atoms_ProtBoundConf>  (651) 
nan

>  <Num_Resolved_Atoms>  (651) 
nan

>  <Num_Not_Resolved_Atoms>  (651) 
nan

$$$$
CHEMBL3122112
     RDKit          3D

  0  0  0  0  0  0  0  0  0  0999 V3000
M  V30 BEGIN CTAB
M  V30 COUNTS 49 50 0 0 0
M  V30 BEGIN ATOM
M  V30 1 C -2.840213 -1.596215 2.484068 0
M  V30 2 N -2.124966 -2.571876 3.289911 0
M  V30 3 C -1.027889 -3.254453 2.692273 0
M  V30 4 N -0.655052 -3.008987 1.423659 0
M  V30 5 C 0.377012 -3.613981 0.800367 0
M  V30 6 N 0.554423 -3.178415 -0.541706 0
M  V30 7 C 0.946436 -1.829604 -0.873605 0
M  V30 8 C 1.105066 -0.862018 0.124002 0
M  V30 9 N 1.447303 0.264701 -0.539442 0
M  V30 10 C 1.735841 1.596149 -0.067162 0
M  V30 11 C 2.127695 1.652724 1.390404 0
M  V30 12 C 2.892705 2.200892 -0.853139 0
M  V30 13 C 0.517585 2.462682 -0.256166 0
M  V30 14 O 0.574813 3.387366 -1.104114 0
M  V30 15 N -0.668437 2.260124 0.485774 0
M  V30 16 C -1.908495 2.992404 0.414298 0
M  V30 17 C -2.572191 2.933890 -0.939022 0
M  V30 18 F -1.826150 3.437460 -1.955968 0
M  V30 19 F -3.769133 3.633491 -0.889733 0
M  V30 20 F -2.846041 1.600044 -1.209320 0
M  V30 21 N 1.504821 0.041247 -1.854823 0
M  V30 22 C 1.200987 -1.244187 -2.096616 0
M  V30 23 C 1.138581 -1.958437 -3.390442 0
M  V30 24 N 1.084201 -4.528319 1.496191 0
M  V30 25 C 0.769421 -4.830819 2.778843 0
M  V30 26 C -0.296644 -4.199982 3.409505 0
M  V30 27 C -0.629939 -4.543805 4.815933 0
M  V30 28 F 0.226808 -5.501037 5.314253 0
M  V30 29 F -1.951596 -4.942914 4.848192 0
M  V30 30 F -0.572625 -3.381514 5.585670 0
M  V30 31 H -3.141570 -2.075657 1.548349 0
M  V30 32 H -2.113064 -0.765719 2.312988 0
M  V30 33 H -3.724823 -1.287435 3.064279 0
M  V30 34 H -2.386100 -2.777997 4.265971 0
M  V30 35 H 0.384065 -3.894313 -1.283783 0
M  V30 36 H 1.001797 -0.913558 1.184117 0
M  V30 37 H 1.597012 0.871660 1.978993 0
M  V30 38 H 1.874883 2.670100 1.802052 0
M  V30 39 H 3.203939 1.526109 1.548781 0
M  V30 40 H 3.841647 1.771601 -0.445264 0
M  V30 41 H 2.761180 2.005960 -1.929217 0
M  V30 42 H 2.884792 3.295339 -0.655595 0
M  V30 43 H -0.577940 1.462218 1.159783 0
M  V30 44 H -2.595439 2.577669 1.165559 0
M  V30 45 H -1.733018 4.078951 0.628805 0
M  V30 46 H 0.101237 -2.271241 -3.639794 0
M  V30 47 H 1.575331 -1.344457 -4.190740 0
M  V30 48 H 1.738772 -2.887965 -3.295583 0
M  V30 49 H 1.385870 -5.565325 3.243816 0
M  V30 END ATOM
M  V30 BEGIN BOND
M  V30 1 1 1 2
M  V30 2 1 2 3
M  V30 3 2 3 4
M  V30 4 1 4 5
M  V30 5 1 5 6
M  V30 6 1 6 7
M  V30 7 2 7 8
M  V30 8 1 8 9
M  V30 9 1 9 10
M  V30 10 1 10 11
M  V30 11 1 10 12
M  V30 12 1 10 13
M  V30 13 2 13 14
M  V30 14 1 13 15
M  V30 15 1 15 16
M  V30 16 1 16 17
M  V30 17 1 17 18
M  V30 18 1 17 19
M  V30 19 1 17 20
M  V30 20 1 9 21
M  V30 21 2 21 22
M  V30 22 1 22 23
M  V30 23 2 5 24
M  V30 24 1 24 25
M  V30 25 2 25 26
M  V30 26 1 26 27
M  V30 27 1 27 28
M  V30 28 1 27 29
M  V30 29 1 27 30
M  V30 30 1 26 3
M  V30 31 1 22 7
M  V30 32 1 1 31
M  V30 33 1 1 32
M  V30 34 1 1 33
M  V30 35 1 2 34
M  V30 36 1 6 35
M  V30 37 1 8 36
M  V30 38 1 11 37
M  V30 39 1 11 38
M  V30 40 1 11 39
M  V30 41 1 12 40
M  V30 42 1 12 41
M  V30 43 1 12 42
M  V30 44 1 15 43
M  V30 45 1 16 44
M  V30 46 1 16 45
M  V30 47 1 23 46
M  V30 48 1 23 47
M  V30 49 1 23 48
M  V30 50 1 25 49
M  V30 END BOND
M  V30 END CTAB
M  END
>  <Dataset>  (652) 
ChEMBL_Kinases

>  <Ligand_Instance>  (652) 
nan

>  <PDB_ID>  (652) 
nan

>  <Standardized_SMILES>  (652) 
CNc1nc(Nc2cn(C(C)(C)C(=O)NCC(F)(F)F)nc2C)ncc1C(F)(F)F

>  <Name>  (652) 
nan

>  <Pocket>  (652) 
nan

>  <ATP_Site>  (652) 
nan

>  <Peripheral>  (652) 
nan

>  <Num_H_Atoms_ProtBoundConf>  (652) 
nan

>  <Num_Resolved_Atoms>  (652) 
nan

>  <Num_Not_Resolved_Atoms>  (652) 
nan

$$$$
CHEMBL3122111
     RDKit          3D

  0  0  0  0  0  0  0  0  0  0999 V3000
M  V30 BEGIN CTAB
M  V30 COUNTS 52 53 0 0 0
M  V30 BEGIN ATOM
M  V30 1 C -0.243662 -2.447952 3.272060 0
M  V30 2 N -0.489828 -3.652590 2.503460 0
M  V30 3 C -0.352023 -3.975935 1.125400 0
M  V30 4 N 0.091782 -3.043914 0.263741 0
M  V30 5 C 0.241288 -3.293208 -1.047663 0
M  V30 6 N 0.706919 -2.323908 -1.967398 0
M  V30 7 C 1.066680 -0.997660 -1.632488 0
M  V30 8 C 1.057089 -0.354154 -0.412900 0
M  V30 9 N 1.473313 0.922190 -0.492895 0
M  V30 10 C 1.585956 1.878805 0.591379 0
M  V30 11 C 2.199104 1.199624 1.790443 0
M  V30 12 C 2.540285 2.962544 0.137323 0
M  V30 13 C 0.291693 2.521256 0.903648 0
M  V30 14 O 0.081203 3.773869 0.762120 0
M  V30 15 N -0.820179 1.779070 1.388679 0
M  V30 16 C -2.132339 2.288218 1.729126 0
M  V30 17 C -2.481710 1.996791 3.176823 0
M  V30 18 C -3.209984 1.597733 0.896810 0
M  V30 19 N 1.755291 1.119493 -1.754813 0
M  V30 20 C 1.532716 0.011442 -2.482079 0
M  V30 21 C 1.731987 -0.174668 -3.962932 0
M  V30 22 N -0.073098 -4.524902 -1.473241 0
M  V30 23 C -0.518292 -5.479830 -0.645114 0
M  V30 24 C -0.679849 -5.247775 0.704314 0
M  V30 25 C -1.173321 -6.305882 1.623473 0
M  V30 26 F -2.336658 -5.892185 2.223344 0
M  V30 27 F -1.458210 -7.423329 0.872546 0
M  V30 28 F -0.236045 -6.675084 2.566665 0
M  V30 29 H 0.477730 -2.640063 4.103230 0
M  V30 30 H 0.162423 -1.613729 2.702091 0
M  V30 31 H -1.188011 -2.113349 3.770014 0
M  V30 32 H -0.832189 -4.358381 3.191583 0
M  V30 33 H 0.800132 -2.588062 -2.981347 0
M  V30 34 H 0.756628 -0.785528 0.531641 0
M  V30 35 H 1.974762 1.734716 2.737334 0
M  V30 36 H 1.915199 0.152942 1.923662 0
M  V30 37 H 3.312727 1.216857 1.680535 0
M  V30 38 H 2.062902 3.580448 -0.665317 0
M  V30 39 H 2.827497 3.590528 1.007635 0
M  V30 40 H 3.438754 2.469385 -0.273596 0
M  V30 41 H -0.770493 0.765369 1.542358 0
M  V30 42 H -2.237939 3.378108 1.580808 0
M  V30 43 H -2.086260 1.028431 3.525611 0
M  V30 44 H -2.139706 2.857379 3.779834 0
M  V30 45 H -3.585042 1.934122 3.264270 0
M  V30 46 H -4.145629 1.445176 1.457610 0
M  V30 47 H -2.753601 0.618949 0.567709 0
M  V30 48 H -3.379347 2.157568 -0.050593 0
M  V30 49 H 2.362933 -1.067348 -4.161442 0
M  V30 50 H 2.228966 0.752623 -4.345372 0
M  V30 51 H 0.755735 -0.217424 -4.487979 0
M  V30 52 H -0.743934 -6.433322 -1.076421 0
M  V30 END ATOM
M  V30 BEGIN BOND
M  V30 1 1 1 2
M  V30 2 1 2 3
M  V30 3 2 3 4
M  V30 4 1 4 5
M  V30 5 1 5 6
M  V30 6 1 6 7
M  V30 7 2 7 8
M  V30 8 1 8 9
M  V30 9 1 9 10
M  V30 10 1 10 11
M  V30 11 1 10 12
M  V30 12 1 10 13
M  V30 13 2 13 14
M  V30 14 1 13 15
M  V30 15 1 15 16
M  V30 16 1 16 17
M  V30 17 1 16 18
M  V30 18 1 9 19
M  V30 19 2 19 20
M  V30 20 1 20 21
M  V30 21 2 5 22
M  V30 22 1 22 23
M  V30 23 2 23 24
M  V30 24 1 24 25
M  V30 25 1 25 26
M  V30 26 1 25 27
M  V30 27 1 25 28
M  V30 28 1 24 3
M  V30 29 1 20 7
M  V30 30 1 1 29
M  V30 31 1 1 30
M  V30 32 1 1 31
M  V30 33 1 2 32
M  V30 34 1 6 33
M  V30 35 1 8 34
M  V30 36 1 11 35
M  V30 37 1 11 36
M  V30 38 1 11 37
M  V30 39 1 12 38
M  V30 40 1 12 39
M  V30 41 1 12 40
M  V30 42 1 15 41
M  V30 43 1 16 42
M  V30 44 1 17 43
M  V30 45 1 17 44
M  V30 46 1 17 45
M  V30 47 1 18 46
M  V30 48 1 18 47
M  V30 49 1 18 48
M  V30 50 1 21 49
M  V30 51 1 21 50
M  V30 52 1 21 51
M  V30 53 1 23 52
M  V30 END BOND
M  V30 END CTAB
M  END
>  <Dataset>  (653) 
ChEMBL_Kinases

>  <Ligand_Instance>  (653) 
nan

>  <PDB_ID>  (653) 
nan

>  <Standardized_SMILES>  (653) 
CNc1nc(Nc2cn(C(C)(C)C(=O)NC(C)C)nc2C)ncc1C(F)(F)F

>  <Name>  (653) 
nan

>  <Pocket>  (653) 
nan

>  <ATP_Site>  (653) 
nan

>  <Peripheral>  (653) 
nan

>  <Num_H_Atoms_ProtBoundConf>  (653) 
nan

>  <Num_Resolved_Atoms>  (653) 
nan

>  <Num_Not_Resolved_Atoms>  (653) 
nan

$$$$
CHEMBL3122110
     RDKit          3D

  0  0  0  0  0  0  0  0  0  0999 V3000
M  V30 BEGIN CTAB
M  V30 COUNTS 49 50 0 0 0
M  V30 BEGIN ATOM
M  V30 1 C -1.083989 -3.062106 3.687631 0
M  V30 2 C 0.070047 -3.726391 2.973331 0
M  V30 3 N 0.870548 -2.777507 2.235031 0
M  V30 4 C 2.015143 -3.254289 1.497042 0
M  V30 5 O 2.174005 -4.503981 1.600980 0
M  V30 6 C 2.823507 -2.291725 0.748957 0
M  V30 7 C 3.973047 -3.026786 0.058065 0
M  V30 8 C 3.430690 -1.214018 1.611086 0
M  V30 9 N 2.015999 -1.714478 -0.305271 0
M  V30 10 C 1.198005 -0.652391 -0.241215 0
M  V30 11 C 0.584701 -0.381184 -1.442901 0
M  V30 12 N -0.333609 0.631152 -1.835050 0
M  V30 13 C -0.723526 1.509477 -0.789615 0
M  V30 14 N -0.123646 2.618028 -0.330444 0
M  V30 15 C -0.629900 3.352489 0.677284 0
M  V30 16 C -1.814912 2.954926 1.266825 0
M  V30 17 C -2.390596 3.746253 2.369771 0
M  V30 18 F -2.526859 3.003606 3.549502 0
M  V30 19 F -1.601045 4.841192 2.685648 0
M  V30 20 F -3.626579 4.219744 2.046120 0
M  V30 21 C -2.450131 1.812596 0.807098 0
M  V30 22 N -3.688968 1.356903 1.390276 0
M  V30 23 C -4.301715 0.151035 0.854535 0
M  V30 24 N -1.878445 1.151175 -0.189969 0
M  V30 25 C 1.103753 -1.385403 -2.267977 0
M  V30 26 C 0.747884 -1.550213 -3.711985 0
M  V30 27 N 1.937687 -2.136719 -1.544928 0
M  V30 28 H -1.026590 -3.167999 4.803224 0
M  V30 29 H -1.082838 -1.967940 3.494564 0
M  V30 30 H -2.057567 -3.491526 3.319099 0
M  V30 31 H -0.330164 -4.524236 2.313795 0
M  V30 32 H 0.683552 -4.214738 3.767865 0
M  V30 33 H 0.615499 -1.783744 2.245428 0
M  V30 34 H 3.506557 -3.679282 -0.710094 0
M  V30 35 H 4.508874 -2.230168 -0.507002 0
M  V30 36 H 4.610692 -3.548537 0.782779 0
M  V30 37 H 4.114165 -0.576429 1.001213 0
M  V30 38 H 2.612773 -0.533920 1.924305 0
M  V30 39 H 4.000591 -1.598399 2.455819 0
M  V30 40 H 1.016696 -0.044238 0.654972 0
M  V30 41 H -0.647149 0.660928 -2.824169 0
M  V30 42 H -0.077622 4.234748 0.983355 0
M  V30 43 H -4.112062 1.897454 2.174144 0
M  V30 44 H -3.586038 -0.374347 0.190053 0
M  V30 45 H -5.201558 0.403886 0.262676 0
M  V30 46 H -4.651507 -0.510775 1.693154 0
M  V30 47 H 1.073046 -0.638244 -4.249733 0
M  V30 48 H -0.368784 -1.625236 -3.844103 0
M  V30 49 H 1.221238 -2.466091 -4.085571 0
M  V30 END ATOM
M  V30 BEGIN BOND
M  V30 1 1 1 2
M  V30 2 1 2 3
M  V30 3 1 3 4
M  V30 4 2 4 5
M  V30 5 1 4 6
M  V30 6 1 6 7
M  V30 7 1 6 8
M  V30 8 1 6 9
M  V30 9 1 9 10
M  V30 10 2 10 11
M  V30 11 1 11 12
M  V30 12 1 12 13
M  V30 13 2 13 14
M  V30 14 1 14 15
M  V30 15 2 15 16
M  V30 16 1 16 17
M  V30 17 1 17 18
M  V30 18 1 17 19
M  V30 19 1 17 20
M  V30 20 1 16 21
M  V30 21 1 21 22
M  V30 22 1 22 23
M  V30 23 2 21 24
M  V30 24 1 11 25
M  V30 25 1 25 26
M  V30 26 2 25 27
M  V30 27 1 27 9
M  V30 28 1 24 13
M  V30 29 1 1 28
M  V30 30 1 1 29
M  V30 31 1 1 30
M  V30 32 1 2 31
M  V30 33 1 2 32
M  V30 34 1 3 33
M  V30 35 1 7 34
M  V30 36 1 7 35
M  V30 37 1 7 36
M  V30 38 1 8 37
M  V30 39 1 8 38
M  V30 40 1 8 39
M  V30 41 1 10 40
M  V30 42 1 12 41
M  V30 43 1 15 42
M  V30 44 1 22 43
M  V30 45 1 23 44
M  V30 46 1 23 45
M  V30 47 1 23 46
M  V30 48 1 26 47
M  V30 49 1 26 48
M  V30 50 1 26 49
M  V30 END BOND
M  V30 END CTAB
M  END
>  <Dataset>  (654) 
ChEMBL_Kinases

>  <Ligand_Instance>  (654) 
nan

>  <PDB_ID>  (654) 
nan

>  <Standardized_SMILES>  (654) 
CCNC(=O)C(C)(C)n1cc(Nc2ncc(C(F)(F)F)c(NC)n2)c(C)n1

>  <Name>  (654) 
nan

>  <Pocket>  (654) 
nan

>  <ATP_Site>  (654) 
nan

>  <Peripheral>  (654) 
nan

>  <Num_H_Atoms_ProtBoundConf>  (654) 
nan

>  <Num_Resolved_Atoms>  (654) 
nan

>  <Num_Not_Resolved_Atoms>  (654) 
nan

$$$$
CHEMBL3122109
     RDKit          3D

  0  0  0  0  0  0  0  0  0  0999 V3000
M  V30 BEGIN CTAB
M  V30 COUNTS 46 47 0 0 0
M  V30 BEGIN ATOM
M  V30 1 C 1.381532 -4.076906 1.986545 0
M  V30 2 N 1.297335 -3.268927 0.798971 0
M  V30 3 C 1.145569 -3.659646 -0.582636 0
M  V30 4 O 1.097358 -4.936833 -0.527731 0
M  V30 5 C 1.101705 -2.546471 -1.534660 0
M  V30 6 C 0.996987 -3.169716 -2.934550 0
M  V30 7 C 2.381026 -1.764447 -1.461135 0
M  V30 8 N -0.027483 -1.664220 -1.403391 0
M  V30 9 C -0.081944 -0.583321 -0.613120 0
M  V30 10 C -1.268501 0.115143 -0.662004 0
M  V30 11 N -1.669979 1.313096 0.032975 0
M  V30 12 C -0.681279 1.801979 0.933555 0
M  V30 13 N 0.360517 2.590237 0.621330 0
M  V30 14 C 1.248760 2.995095 1.573455 0
M  V30 15 C 1.063995 2.577282 2.895094 0
M  V30 16 C 1.972561 2.944332 4.014848 0
M  V30 17 F 1.312980 3.637779 4.997143 0
M  V30 18 F 3.020265 3.695061 3.520430 0
M  V30 19 F 2.579035 1.793026 4.539565 0
M  V30 20 C -0.029853 1.755032 3.201144 0
M  V30 21 N -0.277570 1.303630 4.547385 0
M  V30 22 C -1.430549 0.451113 4.763122 0
M  V30 23 N -0.869390 1.393920 2.201397 0
M  V30 24 C -1.982706 -0.652606 -1.588987 0
M  V30 25 C -3.382832 -0.348495 -2.039971 0
M  V30 26 N -1.215128 -1.684076 -1.995783 0
M  V30 27 H 1.483637 -5.174675 1.737803 0
M  V30 28 H 2.262272 -3.837815 2.637661 0
M  V30 29 H 0.432657 -3.949478 2.580328 0
M  V30 30 H 1.374702 -2.274876 1.159022 0
M  V30 31 H 1.495643 -4.157882 -2.955372 0
M  V30 32 H -0.085985 -3.280681 -3.153459 0
M  V30 33 H 1.476754 -2.450880 -3.624336 0
M  V30 34 H 3.256666 -2.423763 -1.674897 0
M  V30 35 H 2.561506 -1.359211 -0.441830 0
M  V30 36 H 2.412655 -0.958879 -2.237104 0
M  V30 37 H 0.748961 -0.267163 0.027484 0
M  V30 38 H -2.613913 1.681975 -0.191396 0
M  V30 39 H 2.089951 3.627594 1.345093 0
M  V30 40 H 0.356274 1.584775 5.321985 0
M  V30 41 H -2.296560 1.155152 4.913599 0
M  V30 42 H -1.679564 -0.125908 3.869651 0
M  V30 43 H -1.380875 -0.137503 5.699217 0
M  V30 44 H -3.283342 0.511307 -2.739865 0
M  V30 45 H -3.949686 0.032285 -1.169147 0
M  V30 46 H -3.815869 -1.251903 -2.499527 0
M  V30 END ATOM
M  V30 BEGIN BOND
M  V30 1 1 1 2
M  V30 2 1 2 3
M  V30 3 2 3 4
M  V30 4 1 3 5
M  V30 5 1 5 6
M  V30 6 1 5 7
M  V30 7 1 5 8
M  V30 8 1 8 9
M  V30 9 2 9 10
M  V30 10 1 10 11
M  V30 11 1 11 12
M  V30 12 2 12 13
M  V30 13 1 13 14
M  V30 14 2 14 15
M  V30 15 1 15 16
M  V30 16 1 16 17
M  V30 17 1 16 18
M  V30 18 1 16 19
M  V30 19 1 15 20
M  V30 20 1 20 21
M  V30 21 1 21 22
M  V30 22 2 20 23
M  V30 23 1 10 24
M  V30 24 1 24 25
M  V30 25 2 24 26
M  V30 26 1 26 8
M  V30 27 1 23 12
M  V30 28 1 1 27
M  V30 29 1 1 28
M  V30 30 1 1 29
M  V30 31 1 2 30
M  V30 32 1 6 31
M  V30 33 1 6 32
M  V30 34 1 6 33
M  V30 35 1 7 34
M  V30 36 1 7 35
M  V30 37 1 7 36
M  V30 38 1 9 37
M  V30 39 1 11 38
M  V30 40 1 14 39
M  V30 41 1 21 40
M  V30 42 1 22 41
M  V30 43 1 22 42
M  V30 44 1 22 43
M  V30 45 1 25 44
M  V30 46 1 25 45
M  V30 47 1 25 46
M  V30 END BOND
M  V30 END CTAB
M  END
>  <Dataset>  (655) 
ChEMBL_Kinases

>  <Ligand_Instance>  (655) 
nan

>  <PDB_ID>  (655) 
nan

>  <Standardized_SMILES>  (655) 
CNC(=O)C(C)(C)n1cc(Nc2ncc(C(F)(F)F)c(NC)n2)c(C)n1

>  <Name>  (655) 
nan

>  <Pocket>  (655) 
nan

>  <ATP_Site>  (655) 
nan

>  <Peripheral>  (655) 
nan

>  <Num_H_Atoms_ProtBoundConf>  (655) 
nan

>  <Num_Resolved_Atoms>  (655) 
nan

>  <Num_Not_Resolved_Atoms>  (655) 
nan

$$$$
CHEMBL3122108
     RDKit          3D

  0  0  0  0  0  0  0  0  0  0999 V3000
M  V30 BEGIN CTAB
M  V30 COUNTS 38 40 0 0 0
M  V30 BEGIN ATOM
M  V30 1 C -1.363449 -5.072274 2.085118 0
M  V30 2 N -2.288635 -3.989248 1.859313 0
M  V30 3 C -2.184108 -2.603715 1.616454 0
M  V30 4 N -1.001682 -1.942655 1.536916 0
M  V30 5 C -0.926378 -0.639234 1.312903 0
M  V30 6 N 0.138490 0.277756 1.147213 0
M  V30 7 C 1.312834 0.106086 0.333911 0
M  V30 8 C 1.633037 -1.031247 -0.406963 0
M  V30 9 N 2.813861 -0.798451 -1.042090 0
M  V30 10 N 3.243482 0.410704 -0.740648 0
M  V30 11 C 2.352697 0.976192 0.089885 0
M  V30 12 C 2.540690 2.361074 0.620655 0
M  V30 13 C 1.354415 3.202650 0.113998 0
M  V30 14 O 3.669374 2.973416 0.167384 0
M  V30 15 C 4.745977 2.159151 -0.140373 0
M  V30 16 C 4.439937 1.099102 -1.179642 0
M  V30 17 N -2.089847 0.017547 1.164118 0
M  V30 18 C -3.291638 -0.557937 1.227712 0
M  V30 19 C -3.388867 -1.908667 1.458733 0
M  V30 20 C -4.745483 -2.530148 1.488588 0
M  V30 21 F -5.723883 -1.562683 1.299970 0
M  V30 22 F -5.019049 -3.210246 2.640057 0
M  V30 23 F -4.924905 -3.405190 0.401739 0
M  V30 24 H -0.386363 -4.618731 2.367776 0
M  V30 25 H -1.687206 -5.842435 2.778962 0
M  V30 26 H -1.178224 -5.527799 1.077933 0
M  V30 27 H -3.230195 -4.428445 1.904193 0
M  V30 28 H 0.135784 1.209290 1.665289 0
M  V30 29 H 0.987460 -1.923369 -0.426547 0
M  V30 30 H 2.473994 2.287272 1.729002 0
M  V30 31 H 0.680249 2.588296 -0.540398 0
M  V30 32 H 0.734170 3.580591 0.931923 0
M  V30 33 H 1.687637 4.066739 -0.477723 0
M  V30 34 H 5.036772 1.618696 0.795598 0
M  V30 35 H 5.572930 2.828286 -0.486871 0
M  V30 36 H 4.256971 1.561016 -2.177934 0
M  V30 37 H 5.330440 0.446019 -1.218057 0
M  V30 38 H -4.236569 0.001457 1.104083 0
M  V30 END ATOM
M  V30 BEGIN BOND
M  V30 1 1 1 2
M  V30 2 1 2 3
M  V30 3 2 3 4
M  V30 4 1 4 5
M  V30 5 1 5 6
M  V30 6 1 6 7
M  V30 7 1 7 8
M  V30 8 2 8 9
M  V30 9 1 9 10
M  V30 10 1 10 11
M  V30 11 1 11 12
M  V30 12 1 12 13
M  V30 13 1 12 14
M  V30 14 1 14 15
M  V30 15 1 15 16
M  V30 16 2 5 17
M  V30 17 1 17 18
M  V30 18 2 18 19
M  V30 19 1 19 20
M  V30 20 1 20 21
M  V30 21 1 20 22
M  V30 22 1 20 23
M  V30 23 1 19 3
M  V30 24 2 11 7
M  V30 25 1 16 10
M  V30 26 1 1 24
M  V30 27 1 1 25
M  V30 28 1 1 26
M  V30 29 1 2 27
M  V30 30 1 6 28
M  V30 31 1 8 29
M  V30 32 1 12 30
M  V30 33 1 13 31
M  V30 34 1 13 32
M  V30 35 1 13 33
M  V30 36 1 15 34
M  V30 37 1 15 35
M  V30 38 1 16 36
M  V30 39 1 16 37
M  V30 40 1 18 38
M  V30 END BOND
M  V30 END CTAB
M  END
>  <Dataset>  (656) 
ChEMBL_Kinases

>  <Ligand_Instance>  (656) 
nan

>  <PDB_ID>  (656) 
nan

>  <Standardized_SMILES>  (656) 
CNc1nc(Nc2cnn3c2C(C)OCC3)ncc1C(F)(F)F

>  <Name>  (656) 
nan

>  <Pocket>  (656) 
nan

>  <ATP_Site>  (656) 
nan

>  <Peripheral>  (656) 
nan

>  <Num_H_Atoms_ProtBoundConf>  (656) 
nan

>  <Num_Resolved_Atoms>  (656) 
nan

>  <Num_Not_Resolved_Atoms>  (656) 
nan

$$$$
CHEMBL3120987
     RDKit          3D

  0  0  0  0  0  0  0  0  0  0999 V3000
M  V30 BEGIN CTAB
M  V30 COUNTS 61 65 0 0 0
M  V30 BEGIN ATOM
M  V30 1 C 3.262972 -1.175603 3.609163 0
M  V30 2 N 2.489013 -1.967964 2.694503 0
M  V30 3 C 1.388819 -1.498924 2.099291 0
M  V30 4 C 0.679357 -0.223147 2.145137 0
M  V30 5 C 0.579793 0.525916 0.969131 0
M  V30 6 N -0.112645 1.645611 1.268724 0
M  V30 7 C -0.550356 2.802528 0.525100 0
M  V30 8 C 0.031826 4.044425 0.653489 0
M  V30 9 C -0.475622 5.072125 -0.112356 0
M  V30 10 C -1.545810 4.848985 -0.986614 0
M  V30 11 C -2.142206 3.604875 -1.126784 0
M  V30 12 C -3.236084 3.481340 -2.052038 0
M  V30 13 O -3.582385 4.517921 -2.673171 0
M  V30 14 N -3.944696 2.281465 -2.309237 0
M  V30 15 C -5.053789 2.073568 -3.219649 0
M  V30 16 C -6.184496 2.970368 -2.772685 0
M  V30 17 C -6.596624 2.618492 -1.348004 0
M  V30 18 O -7.018608 1.277945 -1.309204 0
M  V30 19 C -1.619057 2.595617 -0.352833 0
M  V30 20 N -0.431874 1.608649 2.553591 0
M  V30 21 N 0.036571 0.486128 3.107763 0
M  V30 22 N 0.916035 -2.502002 1.311682 0
M  V30 23 C 1.710548 -3.581664 1.414569 0
M  V30 24 C 1.434045 -4.804097 0.673655 0
M  V30 25 C 1.529781 -4.578180 -0.705444 0
M  V30 26 C 1.310358 -5.580399 -1.627826 0
M  V30 27 C 0.986563 -6.846575 -1.187701 0
M  V30 28 F 0.762651 -7.863638 -2.055765 0
M  V30 29 C 0.892817 -7.067023 0.166181 0
M  V30 30 C 1.109338 -6.075395 1.096125 0
M  V30 31 C 2.703534 -3.222779 2.297177 0
M  V30 32 C 3.787944 -4.109176 2.696804 0
M  V30 33 C 5.032882 -3.643587 2.255070 0
M  V30 34 C 6.192243 -4.354116 2.541078 0
M  V30 35 N 6.163100 -5.506015 3.246916 0
M  V30 36 C 4.962296 -5.941716 3.664939 0
M  V30 37 C 3.785742 -5.279476 3.410594 0
M  V30 38 H 2.600898 -0.770477 4.418214 0
M  V30 39 H 4.077751 -1.727321 4.089684 0
M  V30 40 H 3.624430 -0.280134 3.055187 0
M  V30 41 H 0.917287 0.408439 -0.062397 0
M  V30 42 H 0.853218 4.138396 1.347891 0
M  V30 43 H -0.033435 6.055173 -0.027535 0
M  V30 44 H -1.863911 5.727432 -1.538665 0
M  V30 45 H -3.590289 1.462422 -1.749187 0
M  V30 46 H -4.753231 2.447997 -4.226954 0
M  V30 47 H -5.334384 1.014501 -3.230586 0
M  V30 48 H -7.056187 2.915417 -3.456476 0
M  V30 49 H -5.835686 4.018045 -2.789627 0
M  V30 50 H -5.699300 2.669085 -0.717729 0
M  V30 51 H -7.367419 3.311409 -1.000431 0
M  V30 52 H -7.535049 1.080519 -0.503416 0
M  V30 53 H -2.056815 1.611975 -0.433891 0
M  V30 54 H 1.779046 -3.621134 -1.191519 0
M  V30 55 H 1.374485 -5.444384 -2.697826 0
M  V30 56 H 0.640441 -8.043733 0.587868 0
M  V30 57 H 1.061881 -6.133617 2.171391 0
M  V30 58 H 5.184466 -2.725271 1.676266 0
M  V30 59 H 7.164042 -3.983359 2.191908 0
M  V30 60 H 4.775009 -6.856191 4.245943 0
M  V30 61 H 2.790962 -5.570287 3.715948 0
M  V30 END ATOM
M  V30 BEGIN BOND
M  V30 1 1 1 2
M  V30 2 1 2 3
M  V30 3 1 3 4
M  V30 4 2 4 5
M  V30 5 1 5 6
M  V30 6 1 6 7
M  V30 7 2 7 8
M  V30 8 1 8 9
M  V30 9 2 9 10
M  V30 10 1 10 11
M  V30 11 1 11 12
M  V30 12 2 12 13
M  V30 13 1 12 14
M  V30 14 1 14 15
M  V30 15 1 15 16
M  V30 16 1 16 17
M  V30 17 1 17 18
M  V30 18 2 11 19
M  V30 19 1 6 20
M  V30 20 2 20 21
M  V30 21 2 3 22
M  V30 22 1 22 23
M  V30 23 1 23 24
M  V30 24 2 24 25
M  V30 25 1 25 26
M  V30 26 2 26 27
M  V30 27 1 27 28
M  V30 28 1 27 29
M  V30 29 2 29 30
M  V30 30 2 23 31
M  V30 31 1 31 32
M  V30 32 2 32 33
M  V30 33 1 33 34
M  V30 34 2 34 35
M  V30 35 1 35 36
M  V30 36 2 36 37
M  V30 37 1 31 2
M  V30 38 1 37 32
M  V30 39 1 21 4
M  V30 40 1 30 24
M  V30 41 1 19 7
M  V30 42 1 1 38
M  V30 43 1 1 39
M  V30 44 1 1 40
M  V30 45 1 5 41
M  V30 46 1 8 42
M  V30 47 1 9 43
M  V30 48 1 10 44
M  V30 49 1 14 45
M  V30 50 1 15 46
M  V30 51 1 15 47
M  V30 52 1 16 48
M  V30 53 1 16 49
M  V30 54 1 17 50
M  V30 55 1 17 51
M  V30 56 1 18 52
M  V30 57 1 19 53
M  V30 58 1 25 54
M  V30 59 1 26 55
M  V30 60 1 29 56
M  V30 61 1 30 57
M  V30 62 1 33 58
M  V30 63 1 34 59
M  V30 64 1 36 60
M  V30 65 1 37 61
M  V30 END BOND
M  V30 END CTAB
M  END
>  <Dataset>  (657) 
ChEMBL_Kinases

>  <Ligand_Instance>  (657) 
nan

>  <PDB_ID>  (657) 
nan

>  <Standardized_SMILES>  (657) 
Cn1c(-c2cn(-c3cccc(C(=O)NCCCO)c3)nn2)nc(-c2ccc(F)cc2)c1-c1ccncc1

>  <Name>  (657) 
nan

>  <Pocket>  (657) 
nan

>  <ATP_Site>  (657) 
nan

>  <Peripheral>  (657) 
nan

>  <Num_H_Atoms_ProtBoundConf>  (657) 
nan

>  <Num_Resolved_Atoms>  (657) 
nan

>  <Num_Not_Resolved_Atoms>  (657) 
nan

$$$$
CHEMBL3120988
     RDKit          3D

  0  0  0  0  0  0  0  0  0  0999 V3000
M  V30 BEGIN CTAB
M  V30 COUNTS 51 54 0 0 0
M  V30 BEGIN ATOM
M  V30 1 C 0.574886 -0.108611 -0.388485 0
M  V30 2 N -0.379138 -0.706626 0.535577 0
M  V30 3 C -0.207289 -0.883086 1.859854 0
M  V30 4 C 0.987832 -0.497251 2.608983 0
M  V30 5 C 2.253746 -1.026442 2.419031 0
M  V30 6 N 3.133892 -0.445485 3.282147 0
M  V30 7 C 4.548942 -0.760489 3.359766 0
M  V30 8 C 5.330421 0.113208 2.446789 0
M  V30 9 O 6.591736 0.137120 2.237515 0
M  V30 10 N 4.665963 1.095660 1.649565 0
M  V30 11 C 5.335300 1.987598 0.736712 0
M  V30 12 C 4.344372 2.914951 0.038212 0
M  V30 13 O 4.995985 3.774957 -0.842729 0
M  V30 14 N 2.410836 0.420225 3.981564 0
M  V30 15 N 1.142484 0.403521 3.598301 0
M  V30 16 N -1.322038 -1.460612 2.302277 0
M  V30 17 C -2.198398 -1.656797 1.297784 0
M  V30 18 C -3.497425 -2.258860 1.440724 0
M  V30 19 C -3.802624 -3.439270 0.797146 0
M  V30 20 C -5.049751 -4.013494 0.937529 0
M  V30 21 C -5.983142 -3.384773 1.732667 0
M  V30 22 F -7.221935 -3.962324 1.867352 0
M  V30 23 C -5.736409 -2.195751 2.406006 0
M  V30 24 C -4.461514 -1.654988 2.232335 0
M  V30 25 C -1.590712 -1.175391 0.182931 0
M  V30 26 C -2.123565 -1.152148 -1.175864 0
M  V30 27 C -1.406719 -1.866739 -2.135109 0
M  V30 28 C -1.833433 -1.900670 -3.438746 0
M  V30 29 N -2.952296 -1.252125 -3.846757 0
M  V30 30 C -3.655024 -0.556901 -2.927855 0
M  V30 31 C -3.273822 -0.485950 -1.597432 0
M  V30 32 H 1.412783 -0.799397 -0.599479 0
M  V30 33 H 0.056131 0.220396 -1.315798 0
M  V30 34 H 1.055827 0.811376 0.030999 0
M  V30 35 H 2.539176 -1.777815 1.713293 0
M  V30 36 H 4.873346 -0.672606 4.415353 0
M  V30 37 H 4.662350 -1.826324 3.033600 0
M  V30 38 H 3.609006 1.168018 1.740633 0
M  V30 39 H 6.130790 2.600983 1.211798 0
M  V30 40 H 5.863509 1.417782 -0.081073 0
M  V30 41 H 3.668744 2.274155 -0.593410 0
M  V30 42 H 3.709374 3.444616 0.753071 0
M  V30 43 H 4.272980 4.141553 -1.438209 0
M  V30 44 H -3.085658 -3.938535 0.175637 0
M  V30 45 H -5.273319 -4.927924 0.433567 0
M  V30 46 H -6.493201 -1.727928 3.023609 0
M  V30 47 H -4.201080 -0.729283 2.728307 0
M  V30 48 H -0.489207 -2.419105 -1.884295 0
M  V30 49 H -1.310743 -2.441242 -4.217580 0
M  V30 50 H -4.569162 -0.005402 -3.173059 0
M  V30 51 H -3.805104 0.057518 -0.830092 0
M  V30 END ATOM
M  V30 BEGIN BOND
M  V30 1 1 1 2
M  V30 2 1 2 3
M  V30 3 1 3 4
M  V30 4 2 4 5
M  V30 5 1 5 6
M  V30 6 1 6 7
M  V30 7 1 7 8
M  V30 8 2 8 9
M  V30 9 1 8 10
M  V30 10 1 10 11
M  V30 11 1 11 12
M  V30 12 1 12 13
M  V30 13 1 6 14
M  V30 14 2 14 15
M  V30 15 2 3 16
M  V30 16 1 16 17
M  V30 17 1 17 18
M  V30 18 2 18 19
M  V30 19 1 19 20
M  V30 20 2 20 21
M  V30 21 1 21 22
M  V30 22 1 21 23
M  V30 23 2 23 24
M  V30 24 2 17 25
M  V30 25 1 25 26
M  V30 26 2 26 27
M  V30 27 1 27 28
M  V30 28 2 28 29
M  V30 29 1 29 30
M  V30 30 2 30 31
M  V30 31 1 25 2
M  V30 32 1 31 26
M  V30 33 1 15 4
M  V30 34 1 24 18
M  V30 35 1 1 32
M  V30 36 1 1 33
M  V30 37 1 1 34
M  V30 38 1 5 35
M  V30 39 1 7 36
M  V30 40 1 7 37
M  V30 41 1 10 38
M  V30 42 1 11 39
M  V30 43 1 11 40
M  V30 44 1 12 41
M  V30 45 1 12 42
M  V30 46 1 13 43
M  V30 47 1 19 44
M  V30 48 1 20 45
M  V30 49 1 23 46
M  V30 50 1 24 47
M  V30 51 1 27 48
M  V30 52 1 28 49
M  V30 53 1 30 50
M  V30 54 1 31 51
M  V30 END BOND
M  V30 END CTAB
M  END
>  <Dataset>  (658) 
ChEMBL_Kinases

>  <Ligand_Instance>  (658) 
nan

>  <PDB_ID>  (658) 
nan

>  <Standardized_SMILES>  (658) 
Cn1c(-c2cn(CC(=O)NCCO)nn2)nc(-c2ccc(F)cc2)c1-c1ccncc1

>  <Name>  (658) 
nan

>  <Pocket>  (658) 
nan

>  <ATP_Site>  (658) 
nan

>  <Peripheral>  (658) 
nan

>  <Num_H_Atoms_ProtBoundConf>  (658) 
nan

>  <Num_Resolved_Atoms>  (658) 
nan

>  <Num_Not_Resolved_Atoms>  (658) 
nan

$$$$
CHEMBL3120989
     RDKit          3D

  0  0  0  0  0  0  0  0  0  0999 V3000
M  V30 BEGIN CTAB
M  V30 COUNTS 66 71 0 0 0
M  V30 BEGIN ATOM
M  V30 1 O 3.706259 -2.290479 5.949559 0
M  V30 2 C 2.707875 -2.028517 5.249202 0
M  V30 3 C 2.501764 -2.396259 3.851453 0
M  V30 4 C 2.079008 -3.623532 3.388710 0
M  V30 5 C 1.922636 -3.837979 2.035896 0
M  V30 6 C 2.190003 -2.822078 1.144197 0
M  V30 7 N 2.070549 -2.905606 -0.273665 0
M  V30 8 C 1.019087 -2.287127 -0.843101 0
M  V30 9 C 1.077294 -2.477652 -2.208128 0
M  V30 10 C 0.165861 -2.007070 -3.249380 0
M  V30 11 N -0.947230 -1.280146 -2.980460 0
M  V30 12 C -1.573730 -1.003083 -4.154383 0
M  V30 13 C -2.811610 -0.216973 -4.083485 0
M  V30 14 C -2.766702 1.012374 -4.722939 0
M  V30 15 C -3.889726 1.832969 -4.713020 0
M  V30 16 C -5.006070 1.337244 -4.039839 0
M  V30 17 F -6.117549 2.116668 -4.013021 0
M  V30 18 C -5.062061 0.112136 -3.398524 0
M  V30 19 C -3.940465 -0.680277 -3.421479 0
M  V30 20 C -0.795957 -1.590135 -5.138120 0
M  V30 21 C -1.248040 -1.443094 -6.516178 0
M  V30 22 C -2.472290 -2.043744 -6.832628 0
M  V30 23 C -2.902064 -1.907241 -8.116803 0
M  V30 24 N -2.269088 -1.252089 -9.115541 0
M  V30 25 C -1.078331 -0.673696 -8.786280 0
M  V30 26 C -0.578620 -0.769475 -7.505261 0
M  V30 27 O 0.216735 -2.169335 -4.561830 0
M  V30 28 N 2.198179 -3.229790 -2.422102 0
M  V30 29 N 2.792403 -3.483737 -1.249823 0
M  V30 30 C 2.618436 -1.580635 1.621240 0
M  V30 31 C 2.782804 -1.340073 2.972630 0
M  V30 32 N 1.529784 -1.301360 5.661655 0
M  V30 33 C 0.295328 -0.929489 4.955000 0
M  V30 34 C 0.151970 0.561126 4.938696 0
M  V30 35 N 0.405540 1.178146 6.209538 0
M  V30 36 C 1.369901 2.228106 6.163969 0
M  V30 37 C 1.665765 2.904290 7.458018 0
M  V30 38 O 0.481218 3.486867 7.967820 0
M  V30 39 C 0.546166 0.263824 7.293534 0
M  V30 40 C 1.549053 -0.833332 7.034554 0
M  V30 41 H 1.880830 -4.389041 4.125099 0
M  V30 42 H 1.596288 -4.777850 1.636775 0
M  V30 43 H 0.204612 -1.709787 -0.423765 0
M  V30 44 H -1.906230 1.396665 -5.244228 0
M  V30 45 H -3.957773 2.805550 -5.179820 0
M  V30 46 H -5.955963 -0.216614 -2.895840 0
M  V30 47 H -3.907845 -1.644174 -2.943942 0
M  V30 48 H -3.085121 -2.605520 -6.116905 0
M  V30 49 H -3.851411 -2.353121 -8.428338 0
M  V30 50 H -0.531555 -0.137885 -9.554921 0
M  V30 51 H 0.365089 -0.319120 -7.215070 0
M  V30 52 H 2.836997 -0.760907 0.932399 0
M  V30 53 H 3.119518 -0.352802 3.287085 0
M  V30 54 H 0.327736 -1.305738 3.912578 0
M  V30 55 H -0.593486 -1.332333 5.494245 0
M  V30 56 H -0.886763 0.805036 4.617254 0
M  V30 57 H 0.827571 1.031849 4.192541 0
M  V30 58 H 1.019151 3.008102 5.458727 0
M  V30 59 H 2.306936 1.833002 5.718791 0
M  V30 60 H 2.215645 2.329576 8.199521 0
M  V30 61 H 2.317609 3.788419 7.199150 0
M  V30 62 H 0.393356 3.260758 8.931278 0
M  V30 63 H -0.467976 -0.156791 7.499681 0
M  V30 64 H 0.838535 0.827050 8.197367 0
M  V30 65 H 1.285966 -1.695721 7.676364 0
M  V30 66 H 2.580980 -0.532655 7.291532 0
M  V30 END ATOM
M  V30 BEGIN BOND
M  V30 1 2 1 2
M  V30 2 1 2 3
M  V30 3 2 3 4
M  V30 4 1 4 5
M  V30 5 2 5 6
M  V30 6 1 6 7
M  V30 7 1 7 8
M  V30 8 2 8 9
M  V30 9 1 9 10
M  V30 10 2 10 11
M  V30 11 1 11 12
M  V30 12 1 12 13
M  V30 13 2 13 14
M  V30 14 1 14 15
M  V30 15 2 15 16
M  V30 16 1 16 17
M  V30 17 1 16 18
M  V30 18 2 18 19
M  V30 19 2 12 20
M  V30 20 1 20 21
M  V30 21 2 21 22
M  V30 22 1 22 23
M  V30 23 2 23 24
M  V30 24 1 24 25
M  V30 25 2 25 26
M  V30 26 1 20 27
M  V30 27 1 9 28
M  V30 28 2 28 29
M  V30 29 1 6 30
M  V30 30 2 30 31
M  V30 31 1 2 32
M  V30 32 1 32 33
M  V30 33 1 33 34
M  V30 34 1 34 35
M  V30 35 1 35 36
M  V30 36 1 36 37
M  V30 37 1 37 38
M  V30 38 1 35 39
M  V30 39 1 39 40
M  V30 40 1 31 3
M  V30 41 1 40 32
M  V30 42 1 29 7
M  V30 43 1 27 10
M  V30 44 1 19 13
M  V30 45 1 26 21
M  V30 46 1 4 41
M  V30 47 1 5 42
M  V30 48 1 8 43
M  V30 49 1 14 44
M  V30 50 1 15 45
M  V30 51 1 18 46
M  V30 52 1 19 47
M  V30 53 1 22 48
M  V30 54 1 23 49
M  V30 55 1 25 50
M  V30 56 1 26 51
M  V30 57 1 30 52
M  V30 58 1 31 53
M  V30 59 1 33 54
M  V30 60 1 33 55
M  V30 61 1 34 56
M  V30 62 1 34 57
M  V30 63 1 36 58
M  V30 64 1 36 59
M  V30 65 1 37 60
M  V30 66 1 37 61
M  V30 67 1 38 62
M  V30 68 1 39 63
M  V30 69 1 39 64
M  V30 70 1 40 65
M  V30 71 1 40 66
M  V30 END BOND
M  V30 END CTAB
M  END
>  <Dataset>  (659) 
ChEMBL_Kinases

>  <Ligand_Instance>  (659) 
nan

>  <PDB_ID>  (659) 
nan

>  <Standardized_SMILES>  (659) 
O=C(c1ccc(-n2cc(-c3nc(-c4ccc(F)cc4)c(-c4ccncc4)o3)nn2)cc1)N1CCN(CCO)CC1

>  <Name>  (659) 
nan

>  <Pocket>  (659) 
nan

>  <ATP_Site>  (659) 
nan

>  <Peripheral>  (659) 
nan

>  <Num_H_Atoms_ProtBoundConf>  (659) 
nan

>  <Num_Resolved_Atoms>  (659) 
nan

>  <Num_Not_Resolved_Atoms>  (659) 
nan

$$$$
CHEMBL3120990
     RDKit          3D

  0  0  0  0  0  0  0  0  0  0999 V3000
M  V30 BEGIN CTAB
M  V30 COUNTS 63 67 0 0 0
M  V30 BEGIN ATOM
M  V30 1 C -0.825548 -1.030878 2.833545 0
M  V30 2 N -0.853225 -2.238639 2.035947 0
M  V30 3 C 0.190567 -2.752854 1.330141 0
M  V30 4 C 1.545938 -2.225660 1.212926 0
M  V30 5 C 1.996016 -0.928611 1.344970 0
M  V30 6 N 3.326503 -0.890388 1.156859 0
M  V30 7 C 4.263532 0.208905 1.188282 0
M  V30 8 C 4.452788 0.861226 -0.130523 0
M  V30 9 O 5.358617 0.380372 -0.866926 0
M  V30 10 N 3.679535 1.968282 -0.579558 0
M  V30 11 C 2.607775 2.597067 0.200346 0
M  V30 12 C 1.373936 2.563404 -0.650907 0
M  V30 13 N 1.526978 3.189223 -1.921291 0
M  V30 14 C 1.227149 4.573968 -2.001758 0
M  V30 15 C -0.232686 4.903317 -1.826332 0
M  V30 16 O -0.467818 6.278390 -1.915963 0
M  V30 17 C 2.669520 2.773517 -2.671274 0
M  V30 18 C 3.906229 2.555501 -1.857816 0
M  V30 19 N 3.698509 -2.135726 0.912800 0
M  V30 20 N 2.648375 -2.958642 0.940563 0
M  V30 21 N -0.246071 -3.885457 0.723465 0
M  V30 22 C -1.538297 -4.093429 1.031980 0
M  V30 23 C -2.362383 -5.205189 0.575112 0
M  V30 24 C -2.527145 -5.126392 -0.812922 0
M  V30 25 C -3.279471 -6.081525 -1.504718 0
M  V30 26 C -3.853589 -7.101680 -0.781323 0
M  V30 27 F -4.611786 -8.103931 -1.309682 0
M  V30 28 C -3.695780 -7.185839 0.586076 0
M  V30 29 C -2.953527 -6.242556 1.263753 0
M  V30 30 C -1.923132 -3.059492 1.857317 0
M  V30 31 C -3.216213 -2.802308 2.476236 0
M  V30 32 C -3.938322 -3.502298 3.419590 0
M  V30 33 C -5.159033 -3.005618 3.821266 0
M  V30 34 N -5.675542 -1.873143 3.336261 0
M  V30 35 C -4.994963 -1.160406 2.409638 0
M  V30 36 C -3.767309 -1.618298 1.976069 0
M  V30 37 H -1.633112 -1.118042 3.586231 0
M  V30 38 H -0.997025 -0.123153 2.216625 0
M  V30 39 H 0.122879 -0.975889 3.401001 0
M  V30 40 H 1.388445 -0.068895 1.564497 0
M  V30 41 H 3.939790 0.939849 1.964732 0
M  V30 42 H 5.256731 -0.163312 1.556043 0
M  V30 43 H 2.438561 2.042126 1.126898 0
M  V30 44 H 2.955430 3.640337 0.361522 0
M  V30 45 H 0.560405 3.058758 -0.087478 0
M  V30 46 H 1.076983 1.508209 -0.816049 0
M  V30 47 H 1.553503 4.922942 -3.012267 0
M  V30 48 H 1.788364 5.199267 -1.278179 0
M  V30 49 H -0.633003 4.489775 -0.880784 0
M  V30 50 H -0.871884 4.450412 -2.626883 0
M  V30 51 H -1.020856 6.625605 -1.171803 0
M  V30 52 H 2.892152 3.556167 -3.425631 0
M  V30 53 H 2.396008 1.857777 -3.238150 0
M  V30 54 H 4.589380 1.899406 -2.434078 0
M  V30 55 H 4.472094 3.508501 -1.677870 0
M  V30 56 H -2.125225 -4.372468 -1.490546 0
M  V30 57 H -3.436333 -6.067305 -2.568777 0
M  V30 58 H -4.111197 -7.952984 1.235748 0
M  V30 59 H -2.748457 -6.186315 2.312058 0
M  V30 60 H -3.420317 -4.387935 3.730878 0
M  V30 61 H -5.631519 -3.652622 4.572055 0
M  V30 62 H -5.474007 -0.252242 2.062041 0
M  V30 63 H -3.333383 -0.954748 1.236310 0
M  V30 END ATOM
M  V30 BEGIN BOND
M  V30 1 1 1 2
M  V30 2 1 2 3
M  V30 3 1 3 4
M  V30 4 2 4 5
M  V30 5 1 5 6
M  V30 6 1 6 7
M  V30 7 1 7 8
M  V30 8 2 8 9
M  V30 9 1 8 10
M  V30 10 1 10 11
M  V30 11 1 11 12
M  V30 12 1 12 13
M  V30 13 1 13 14
M  V30 14 1 14 15
M  V30 15 1 15 16
M  V30 16 1 13 17
M  V30 17 1 17 18
M  V30 18 1 6 19
M  V30 19 2 19 20
M  V30 20 2 3 21
M  V30 21 1 21 22
M  V30 22 1 22 23
M  V30 23 2 23 24
M  V30 24 1 24 25
M  V30 25 2 25 26
M  V30 26 1 26 27
M  V30 27 1 26 28
M  V30 28 2 28 29
M  V30 29 2 22 30
M  V30 30 1 30 31
M  V30 31 2 31 32
M  V30 32 1 32 33
M  V30 33 2 33 34
M  V30 34 1 34 35
M  V30 35 2 35 36
M  V30 36 1 30 2
M  V30 37 1 36 31
M  V30 38 1 20 4
M  V30 39 1 29 23
M  V30 40 1 18 10
M  V30 41 1 1 37
M  V30 42 1 1 38
M  V30 43 1 1 39
M  V30 44 1 5 40
M  V30 45 1 7 41
M  V30 46 1 7 42
M  V30 47 1 11 43
M  V30 48 1 11 44
M  V30 49 1 12 45
M  V30 50 1 12 46
M  V30 51 1 14 47
M  V30 52 1 14 48
M  V30 53 1 15 49
M  V30 54 1 15 50
M  V30 55 1 16 51
M  V30 56 1 17 52
M  V30 57 1 17 53
M  V30 58 1 18 54
M  V30 59 1 18 55
M  V30 60 1 24 56
M  V30 61 1 25 57
M  V30 62 1 28 58
M  V30 63 1 29 59
M  V30 64 1 32 60
M  V30 65 1 33 61
M  V30 66 1 35 62
M  V30 67 1 36 63
M  V30 END BOND
M  V30 END CTAB
M  END
>  <Dataset>  (660) 
ChEMBL_Kinases

>  <Ligand_Instance>  (660) 
nan

>  <PDB_ID>  (660) 
nan

>  <Standardized_SMILES>  (660) 
Cn1c(-c2cn(CC(=O)N3CCN(CCO)CC3)nn2)nc(-c2ccc(F)cc2)c1-c1ccncc1

>  <Name>  (660) 
nan

>  <Pocket>  (660) 
nan

>  <ATP_Site>  (660) 
nan

>  <Peripheral>  (660) 
nan

>  <Num_H_Atoms_ProtBoundConf>  (660) 
nan

>  <Num_Resolved_Atoms>  (660) 
nan

>  <Num_Not_Resolved_Atoms>  (660) 
nan

$$$$
CHEMBL3120992
     RDKit          3D

  0  0  0  0  0  0  0  0  0  0999 V3000
M  V30 BEGIN CTAB
M  V30 COUNTS 43 46 0 0 0
M  V30 BEGIN ATOM
M  V30 1 C 2.391665 -2.095269 -0.577434 0
M  V30 2 N 1.607864 -1.079891 0.114708 0
M  V30 3 C 1.680053 0.280841 0.070629 0
M  V30 4 C 2.690939 0.877845 -0.794867 0
M  V30 5 C 4.060891 0.751571 -0.635523 0
M  V30 6 N 4.629570 1.447641 -1.635860 0
M  V30 7 N 3.635219 1.961125 -2.352394 0
M  V30 8 N 2.462594 1.630150 -1.863124 0
M  V30 9 C 1.202142 2.054781 -2.448411 0
M  V30 10 C 0.781226 3.354146 -1.839741 0
M  V30 11 O 0.075524 3.585905 -0.822407 0
M  V30 12 O 1.196171 4.547565 -2.435487 0
M  V30 13 N 0.728205 0.783454 0.900230 0
M  V30 14 C 0.054079 -0.244312 1.469101 0
M  V30 15 C -1.047401 -0.104539 2.423868 0
M  V30 16 C -0.698942 -0.658252 3.641493 0
M  V30 17 C -1.596969 -0.642443 4.711887 0
M  V30 18 C -2.848886 -0.052656 4.511267 0
M  V30 19 F -3.788429 0.012044 5.486700 0
M  V30 20 C -3.160643 0.489855 3.281592 0
M  V30 21 C -2.281940 0.478322 2.222178 0
M  V30 22 C 0.622335 -1.404876 0.962165 0
M  V30 23 C 0.158712 -2.737925 1.344556 0
M  V30 24 C -1.159703 -3.055058 1.000229 0
M  V30 25 C -1.671117 -4.294377 1.326943 0
M  V30 26 N -0.934119 -5.231839 1.979006 0
M  V30 27 C 0.346277 -4.894185 2.301063 0
M  V30 28 C 0.910436 -3.687002 2.006618 0
M  V30 29 H 1.648286 -2.582754 -1.272410 0
M  V30 30 H 3.153736 -1.638273 -1.239444 0
M  V30 31 H 2.762541 -2.892306 0.074487 0
M  V30 32 H 4.513033 0.190450 0.156059 0
M  V30 33 H 0.401143 1.293477 -2.324159 0
M  V30 34 H 1.332907 2.232216 -3.528257 0
M  V30 35 H 1.526014 5.354268 -1.900323 0
M  V30 36 H 0.220571 -1.135901 3.922024 0
M  V30 37 H -1.417727 -1.048581 5.698880 0
M  V30 38 H -4.124702 0.966588 3.059092 0
M  V30 39 H -2.417409 0.862946 1.240847 0
M  V30 40 H -1.847802 -2.401115 0.483227 0
M  V30 41 H -2.692586 -4.601349 1.085714 0
M  V30 42 H 0.944861 -5.632052 2.821502 0
M  V30 43 H 1.926345 -3.419617 2.262566 0
M  V30 END ATOM
M  V30 BEGIN BOND
M  V30 1 1 1 2
M  V30 2 1 2 3
M  V30 3 1 3 4
M  V30 4 2 4 5
M  V30 5 1 5 6
M  V30 6 2 6 7
M  V30 7 1 7 8
M  V30 8 1 8 9
M  V30 9 1 9 10
M  V30 10 2 10 11
M  V30 11 1 10 12
M  V30 12 2 3 13
M  V30 13 1 13 14
M  V30 14 1 14 15
M  V30 15 2 15 16
M  V30 16 1 16 17
M  V30 17 2 17 18
M  V30 18 1 18 19
M  V30 19 1 18 20
M  V30 20 2 20 21
M  V30 21 2 14 22
M  V30 22 1 22 23
M  V30 23 2 23 24
M  V30 24 1 24 25
M  V30 25 2 25 26
M  V30 26 1 26 27
M  V30 27 2 27 28
M  V30 28 1 22 2
M  V30 29 1 28 23
M  V30 30 1 8 4
M  V30 31 1 21 15
M  V30 32 1 1 29
M  V30 33 1 1 30
M  V30 34 1 1 31
M  V30 35 1 5 32
M  V30 36 1 9 33
M  V30 37 1 9 34
M  V30 38 1 12 35
M  V30 39 1 16 36
M  V30 40 1 17 37
M  V30 41 1 20 38
M  V30 42 1 21 39
M  V30 43 1 24 40
M  V30 44 1 25 41
M  V30 45 1 27 42
M  V30 46 1 28 43
M  V30 END BOND
M  V30 END CTAB
M  END
>  <Dataset>  (661) 
ChEMBL_Kinases

>  <Ligand_Instance>  (661) 
nan

>  <PDB_ID>  (661) 
nan

>  <Standardized_SMILES>  (661) 
Cn1c(-c2cnnn2CC(=O)O)nc(-c2ccc(F)cc2)c1-c1ccncc1

>  <Name>  (661) 
nan

>  <Pocket>  (661) 
nan

>  <ATP_Site>  (661) 
nan

>  <Peripheral>  (661) 
nan

>  <Num_H_Atoms_ProtBoundConf>  (661) 
nan

>  <Num_Resolved_Atoms>  (661) 
nan

>  <Num_Not_Resolved_Atoms>  (661) 
nan

$$$$
CHEMBL3120993
     RDKit          3D

  0  0  0  0  0  0  0  0  0  0999 V3000
M  V30 BEGIN CTAB
M  V30 COUNTS 55 59 0 0 0
M  V30 BEGIN ATOM
M  V30 1 C 7.338739 0.561892 4.216002 0
M  V30 2 N 6.632112 -0.619641 3.798278 0
M  V30 3 C 6.932078 -1.908005 4.432728 0
M  V30 4 C 5.636613 -0.599248 2.779443 0
M  V30 5 C 4.954326 -1.730083 2.373789 0
M  V30 6 C 3.984818 -1.676128 1.373211 0
M  V30 7 C 3.714045 -0.451347 0.784817 0
M  V30 8 N 2.708829 -0.497842 -0.225415 0
M  V30 9 C 1.436532 -0.613064 0.202120 0
M  V30 10 C 0.611932 -0.641237 -0.907072 0
M  V30 11 C -0.840164 -0.753176 -0.980275 0
M  V30 12 N -1.499722 0.348308 -0.518142 0
M  V30 13 C -2.828942 0.140202 -0.630709 0
M  V30 14 C -3.941080 1.001698 -0.279963 0
M  V30 15 C -4.125438 1.402329 1.045425 0
M  V30 16 C -5.162396 2.220096 1.442386 0
M  V30 17 C -6.025899 2.625530 0.418545 0
M  V30 18 F -7.054071 3.424640 0.756427 0
M  V30 19 C -5.882045 2.254539 -0.902703 0
M  V30 20 C -4.825830 1.434909 -1.241880 0
M  V30 21 C -2.974138 -1.120245 -1.175221 0
M  V30 22 C -4.159481 -1.881066 -1.523226 0
M  V30 23 C -4.956345 -2.163625 -0.418484 0
M  V30 24 C -6.139545 -2.890238 -0.572515 0
M  V30 25 N -6.489534 -3.309024 -1.808830 0
M  V30 26 C -5.726121 -3.037851 -2.864592 0
M  V30 27 C -4.550989 -2.328970 -2.786684 0
M  V30 28 N -1.750305 -1.653076 -1.383034 0
M  V30 29 C -1.270570 -2.912494 -1.916320 0
M  V30 30 N 1.426749 -0.540580 -1.981005 0
M  V30 31 N 2.701464 -0.453411 -1.566468 0
M  V30 32 C 4.386897 0.693227 1.177246 0
M  V30 33 C 5.343013 0.606883 2.172452 0
M  V30 34 H 6.628779 1.413743 4.269010 0
M  V30 35 H 8.198197 0.733430 3.539464 0
M  V30 36 H 7.695262 0.384307 5.256258 0
M  V30 37 H 7.633549 -2.512082 3.827254 0
M  V30 38 H 6.032338 -2.477706 4.671488 0
M  V30 39 H 7.454172 -1.742360 5.410697 0
M  V30 40 H 5.168833 -2.684963 2.835299 0
M  V30 41 H 3.469406 -2.600074 1.084749 0
M  V30 42 H 0.983330 -0.682191 1.184458 0
M  V30 43 H -3.451556 1.081303 1.821123 0
M  V30 44 H -5.312892 2.534690 2.462308 0
M  V30 45 H -6.573144 2.593189 -1.653782 0
M  V30 46 H -4.687881 1.130942 -2.254549 0
M  V30 47 H -4.753077 -1.869266 0.600703 0
M  V30 48 H -6.778572 -3.120223 0.292408 0
M  V30 49 H -5.958314 -3.350254 -3.886869 0
M  V30 50 H -3.868032 -2.059202 -3.572562 0
M  V30 51 H -0.401885 -3.298701 -1.347537 0
M  V30 52 H -0.971088 -2.831716 -2.980279 0
M  V30 53 H -2.078157 -3.679031 -1.800146 0
M  V30 54 H 4.099909 1.607802 0.651135 0
M  V30 55 H 5.810372 1.553525 2.406285 0
M  V30 END ATOM
M  V30 BEGIN BOND
M  V30 1 1 1 2
M  V30 2 1 2 3
M  V30 3 1 2 4
M  V30 4 2 4 5
M  V30 5 1 5 6
M  V30 6 2 6 7
M  V30 7 1 7 8
M  V30 8 1 8 9
M  V30 9 2 9 10
M  V30 10 1 10 11
M  V30 11 2 11 12
M  V30 12 1 12 13
M  V30 13 1 13 14
M  V30 14 2 14 15
M  V30 15 1 15 16
M  V30 16 2 16 17
M  V30 17 1 17 18
M  V30 18 1 17 19
M  V30 19 2 19 20
M  V30 20 2 13 21
M  V30 21 1 21 22
M  V30 22 2 22 23
M  V30 23 1 23 24
M  V30 24 2 24 25
M  V30 25 1 25 26
M  V30 26 2 26 27
M  V30 27 1 21 28
M  V30 28 1 28 29
M  V30 29 1 10 30
M  V30 30 2 30 31
M  V30 31 1 7 32
M  V30 32 2 32 33
M  V30 33 1 33 4
M  V30 34 1 31 8
M  V30 35 1 28 11
M  V30 36 1 20 14
M  V30 37 1 27 22
M  V30 38 1 1 34
M  V30 39 1 1 35
M  V30 40 1 1 36
M  V30 41 1 3 37
M  V30 42 1 3 38
M  V30 43 1 3 39
M  V30 44 1 5 40
M  V30 45 1 6 41
M  V30 46 1 9 42
M  V30 47 1 15 43
M  V30 48 1 16 44
M  V30 49 1 19 45
M  V30 50 1 20 46
M  V30 51 1 23 47
M  V30 52 1 24 48
M  V30 53 1 26 49
M  V30 54 1 27 50
M  V30 55 1 29 51
M  V30 56 1 29 52
M  V30 57 1 29 53
M  V30 58 1 32 54
M  V30 59 1 33 55
M  V30 END BOND
M  V30 END CTAB
M  END
>  <Dataset>  (662) 
ChEMBL_Kinases

>  <Ligand_Instance>  (662) 
nan

>  <PDB_ID>  (662) 
nan

>  <Standardized_SMILES>  (662) 
CN(C)c1ccc(-n2cc(-c3nc(-c4ccc(F)cc4)c(-c4ccncc4)n3C)nn2)cc1

>  <Name>  (662) 
nan

>  <Pocket>  (662) 
nan

>  <ATP_Site>  (662) 
nan

>  <Peripheral>  (662) 
nan

>  <Num_H_Atoms_ProtBoundConf>  (662) 
nan

>  <Num_Resolved_Atoms>  (662) 
nan

>  <Num_Not_Resolved_Atoms>  (662) 
nan

$$$$
CHEMBL3120996
     RDKit          3D

  0  0  0  0  0  0  0  0  0  0999 V3000
M  V30 BEGIN CTAB
M  V30 COUNTS 46 50 0 0 0
M  V30 BEGIN ATOM
M  V30 1 O 5.594224 -2.123088 7.669156 0
M  V30 2 C 5.054545 -3.025404 6.976749 0
M  V30 3 O 4.939302 -4.287393 7.541610 0
M  V30 4 C 4.571941 -2.749096 5.635356 0
M  V30 5 C 4.710239 -1.476313 5.119853 0
M  V30 6 C 4.241030 -1.231824 3.832686 0
M  V30 7 C 3.652251 -2.222303 3.080942 0
M  V30 8 N 3.150923 -2.040527 1.759322 0
M  V30 9 C 1.980820 -1.380470 1.586370 0
M  V30 10 C 1.716861 -1.338549 0.229016 0
M  V30 11 C 0.580819 -0.740776 -0.467863 0
M  V30 12 N -0.426422 -0.107024 0.183023 0
M  V30 13 C -1.328064 0.337789 -0.733710 0
M  V30 14 C -2.518643 1.060295 -0.289987 0
M  V30 15 C -3.526092 0.609274 0.537088 0
M  V30 16 C -4.578978 1.446972 0.845460 0
M  V30 17 C -4.656483 2.739744 0.345227 0
M  V30 18 F -5.703213 3.538973 0.665332 0
M  V30 19 C -3.633363 3.174878 -0.484996 0
M  V30 20 C -2.573276 2.338005 -0.798246 0
M  V30 21 C -0.808780 -0.062410 -1.968328 0
M  V30 22 C -1.542461 0.261301 -3.181036 0
M  V30 23 C -2.809412 -0.328865 -3.255921 0
M  V30 24 C -3.653919 -0.131499 -4.344158 0
M  V30 25 N -3.202735 0.658237 -5.336032 0
M  V30 26 C -1.994164 1.241994 -5.301110 0
M  V30 27 C -1.131538 1.062390 -4.228178 0
M  V30 28 O 0.305946 -0.687139 -1.749930 0
M  V30 29 N 2.754289 -1.985255 -0.374908 0
M  V30 30 N 3.603242 -2.399078 0.553002 0
M  V30 31 C 3.520175 -3.495005 3.611388 0
M  V30 32 C 3.984726 -3.757911 4.899497 0
M  V30 33 H 4.829301 -4.434850 8.544777 0
M  V30 34 H 5.171324 -0.678245 5.693483 0
M  V30 35 H 4.315184 -0.255949 3.361269 0
M  V30 36 H 1.294434 -0.928008 2.292315 0
M  V30 37 H -3.396320 -0.403093 0.885377 0
M  V30 38 H -5.349122 1.070756 1.491382 0
M  V30 39 H -3.724587 4.200969 -0.863343 0
M  V30 40 H -1.851397 2.812298 -1.455147 0
M  V30 41 H -3.204647 -0.975302 -2.466232 0
M  V30 42 H -4.639670 -0.613519 -4.362303 0
M  V30 43 H -1.638902 1.877436 -6.106570 0
M  V30 44 H -0.146373 1.489333 -4.113052 0
M  V30 45 H 3.067032 -4.352481 3.096650 0
M  V30 46 H 3.888250 -4.755737 5.332620 0
M  V30 END ATOM
M  V30 BEGIN BOND
M  V30 1 2 1 2
M  V30 2 1 2 3
M  V30 3 1 2 4
M  V30 4 2 4 5
M  V30 5 1 5 6
M  V30 6 2 6 7
M  V30 7 1 7 8
M  V30 8 1 8 9
M  V30 9 2 9 10
M  V30 10 1 10 11
M  V30 11 2 11 12
M  V30 12 1 12 13
M  V30 13 1 13 14
M  V30 14 2 14 15
M  V30 15 1 15 16
M  V30 16 2 16 17
M  V30 17 1 17 18
M  V30 18 1 17 19
M  V30 19 2 19 20
M  V30 20 2 13 21
M  V30 21 1 21 22
M  V30 22 2 22 23
M  V30 23 1 23 24
M  V30 24 2 24 25
M  V30 25 1 25 26
M  V30 26 2 26 27
M  V30 27 1 21 28
M  V30 28 1 10 29
M  V30 29 2 29 30
M  V30 30 1 7 31
M  V30 31 2 31 32
M  V30 32 1 32 4
M  V30 33 1 30 8
M  V30 34 1 28 11
M  V30 35 1 20 14
M  V30 36 1 27 22
M  V30 37 1 3 33
M  V30 38 1 5 34
M  V30 39 1 6 35
M  V30 40 1 9 36
M  V30 41 1 15 37
M  V30 42 1 16 38
M  V30 43 1 19 39
M  V30 44 1 20 40
M  V30 45 1 23 41
M  V30 46 1 24 42
M  V30 47 1 26 43
M  V30 48 1 27 44
M  V30 49 1 31 45
M  V30 50 1 32 46
M  V30 END BOND
M  V30 END CTAB
M  END
>  <Dataset>  (663) 
ChEMBL_Kinases

>  <Ligand_Instance>  (663) 
nan

>  <PDB_ID>  (663) 
nan

>  <Standardized_SMILES>  (663) 
O=C(O)c1ccc(-n2cc(-c3nc(-c4ccc(F)cc4)c(-c4ccncc4)o3)nn2)cc1

>  <Name>  (663) 
nan

>  <Pocket>  (663) 
nan

>  <ATP_Site>  (663) 
nan

>  <Peripheral>  (663) 
nan

>  <Num_H_Atoms_ProtBoundConf>  (663) 
nan

>  <Num_Resolved_Atoms>  (663) 
nan

>  <Num_Not_Resolved_Atoms>  (663) 
nan

$$$$
CHEMBL3120997
     RDKit          3D

  0  0  0  0  0  0  0  0  0  0999 V3000
M  V30 BEGIN CTAB
M  V30 COUNTS 53 57 0 0 0
M  V30 BEGIN ATOM
M  V30 1 C 4.501144 -2.911873 4.482950 0
M  V30 2 O 4.419179 -1.784653 3.648381 0
M  V30 3 C 5.326459 -0.762112 3.615401 0
M  V30 4 O 6.355879 -0.761486 4.373993 0
M  V30 5 C 5.173332 0.377792 2.719679 0
M  V30 6 C 6.101557 1.397582 2.703815 0
M  V30 7 C 5.928384 2.470816 1.839185 0
M  V30 8 C 4.839816 2.571878 0.967183 0
M  V30 9 C 3.918413 1.546249 0.992047 0
M  V30 10 N 2.765670 1.539326 0.147546 0
M  V30 11 C 1.617478 0.849725 0.417070 0
M  V30 12 C 0.748214 1.109423 -0.651046 0
M  V30 13 C -0.563893 0.470450 -0.587007 0
M  V30 14 N -1.676901 0.946220 0.008985 0
M  V30 15 C -2.673319 0.035498 -0.168036 0
M  V30 16 C -4.063960 0.042985 0.264140 0
M  V30 17 C -4.309604 -1.019438 1.128246 0
M  V30 18 C -5.584062 -1.211440 1.672053 0
M  V30 19 C -6.578345 -0.320637 1.326017 0
M  V30 20 F -7.832477 -0.472069 1.833973 0
M  V30 21 C -6.335908 0.732676 0.469846 0
M  V30 22 C -5.076447 0.918892 -0.065133 0
M  V30 23 C -2.084256 -0.999944 -0.900129 0
M  V30 24 C -2.800627 -2.210693 -1.322665 0
M  V30 25 C -3.880602 -2.296860 -2.184668 0
M  V30 26 C -4.415003 -3.538552 -2.454547 0
M  V30 27 N -3.929204 -4.670511 -1.913803 0
M  V30 28 C -2.888368 -4.585345 -1.083407 0
M  V30 29 C -2.275373 -3.373332 -0.746076 0
M  V30 30 N -0.788014 -0.729958 -1.156052 0
M  V30 31 C 0.153645 -1.551094 -1.883102 0
M  V30 32 N 1.404671 1.938693 -1.512601 0
M  V30 33 N 2.617666 2.178030 -1.001229 0
M  V30 34 C 4.109839 0.486570 1.860867 0
M  V30 35 H 5.099221 -3.732536 4.022444 0
M  V30 36 H 3.496599 -3.348903 4.692105 0
M  V30 37 H 5.034439 -2.663088 5.428419 0
M  V30 38 H 6.960794 1.363065 3.360822 0
M  V30 39 H 6.680742 3.273213 1.843018 0
M  V30 40 H 4.714063 3.410122 0.298241 0
M  V30 41 H 1.502318 0.238724 1.325993 0
M  V30 42 H -3.607883 -1.772443 1.464304 0
M  V30 43 H -5.822719 -2.030591 2.353803 0
M  V30 44 H -7.083024 1.455164 0.170148 0
M  V30 45 H -4.750424 1.706845 -0.750773 0
M  V30 46 H -4.181915 -1.343342 -2.552815 0
M  V30 47 H -5.259544 -3.540559 -3.137240 0
M  V30 48 H -2.536376 -5.521469 -0.676187 0
M  V30 49 H -1.436448 -3.426491 -0.060886 0
M  V30 50 H 0.026829 -1.263392 -2.967925 0
M  V30 51 H 1.195662 -1.279214 -1.629033 0
M  V30 52 H -0.054585 -2.618681 -1.846989 0
M  V30 53 H 3.383336 -0.333215 1.888277 0
M  V30 END ATOM
M  V30 BEGIN BOND
M  V30 1 1 1 2
M  V30 2 1 2 3
M  V30 3 2 3 4
M  V30 4 1 3 5
M  V30 5 2 5 6
M  V30 6 1 6 7
M  V30 7 2 7 8
M  V30 8 1 8 9
M  V30 9 1 9 10
M  V30 10 1 10 11
M  V30 11 2 11 12
M  V30 12 1 12 13
M  V30 13 2 13 14
M  V30 14 1 14 15
M  V30 15 1 15 16
M  V30 16 2 16 17
M  V30 17 1 17 18
M  V30 18 2 18 19
M  V30 19 1 19 20
M  V30 20 1 19 21
M  V30 21 2 21 22
M  V30 22 2 15 23
M  V30 23 1 23 24
M  V30 24 2 24 25
M  V30 25 1 25 26
M  V30 26 2 26 27
M  V30 27 1 27 28
M  V30 28 2 28 29
M  V30 29 1 23 30
M  V30 30 1 30 31
M  V30 31 1 12 32
M  V30 32 2 32 33
M  V30 33 2 9 34
M  V30 34 1 34 5
M  V30 35 1 33 10
M  V30 36 1 30 13
M  V30 37 1 22 16
M  V30 38 1 29 24
M  V30 39 1 1 35
M  V30 40 1 1 36
M  V30 41 1 1 37
M  V30 42 1 6 38
M  V30 43 1 7 39
M  V30 44 1 8 40
M  V30 45 1 11 41
M  V30 46 1 17 42
M  V30 47 1 18 43
M  V30 48 1 21 44
M  V30 49 1 22 45
M  V30 50 1 25 46
M  V30 51 1 26 47
M  V30 52 1 28 48
M  V30 53 1 29 49
M  V30 54 1 31 50
M  V30 55 1 31 51
M  V30 56 1 31 52
M  V30 57 1 34 53
M  V30 END BOND
M  V30 END CTAB
M  END
>  <Dataset>  (664) 
ChEMBL_Kinases

>  <Ligand_Instance>  (664) 
nan

>  <PDB_ID>  (664) 
nan

>  <Standardized_SMILES>  (664) 
COC(=O)c1cccc(-n2cc(-c3nc(-c4ccc(F)cc4)c(-c4ccncc4)n3C)nn2)c1

>  <Name>  (664) 
nan

>  <Pocket>  (664) 
nan

>  <ATP_Site>  (664) 
nan

>  <Peripheral>  (664) 
nan

>  <Num_H_Atoms_ProtBoundConf>  (664) 
nan

>  <Num_Resolved_Atoms>  (664) 
nan

>  <Num_Not_Resolved_Atoms>  (664) 
nan

$$$$
CHEMBL3122107
     RDKit          3D

  0  0  0  0  0  0  0  0  0  0999 V3000
M  V30 BEGIN CTAB
M  V30 COUNTS 41 43 0 0 0
M  V30 BEGIN ATOM
M  V30 1 C -2.989958 -4.738518 0.022261 0
M  V30 2 N -2.206582 -4.899472 1.211203 0
M  V30 3 C -1.216934 -3.994374 1.706197 0
M  V30 4 N -0.976115 -2.871193 1.006339 0
M  V30 5 C -0.065051 -1.960351 1.391533 0
M  V30 6 N 0.169855 -0.781401 0.633158 0
M  V30 7 C 1.106175 0.238005 0.953447 0
M  V30 8 C 1.957657 0.292110 2.037818 0
M  V30 9 N 2.670403 1.449326 1.935286 0
M  V30 10 N 2.299653 2.090959 0.858786 0
M  V30 11 C 1.361595 1.389308 0.247480 0
M  V30 12 C 0.778889 1.907574 -0.999105 0
M  V30 13 C 1.488451 1.210437 -2.150412 0
M  V30 14 O 0.826875 3.235276 -1.208297 0
M  V30 15 C 1.672641 4.015916 -0.512106 0 CFG=1
M  V30 16 C 0.846382 4.873765 0.439350 0
M  V30 17 C 2.740212 3.364464 0.288235 0
M  V30 18 N 0.596105 -2.241114 2.526649 0
M  V30 19 C 0.406476 -3.342656 3.274981 0
M  V30 20 C -0.530946 -4.271642 2.871191 0
M  V30 21 C -0.815987 -5.515077 3.621464 0
M  V30 22 F -0.577680 -6.644561 2.865829 0
M  V30 23 F -2.102306 -5.543395 4.148862 0
M  V30 24 F 0.047427 -5.554267 4.704364 0
M  V30 25 H -4.064889 -5.021596 0.197595 0
M  V30 26 H -2.936398 -3.725691 -0.419387 0
M  V30 27 H -2.636311 -5.473507 -0.729593 0
M  V30 28 H -2.428237 -5.784824 1.720507 0
M  V30 29 H -0.403890 -0.654933 -0.245476 0
M  V30 30 H 2.075140 -0.420151 2.841327 0
M  V30 31 H -0.282856 1.584198 -1.046254 0
M  V30 32 H 1.141563 0.185448 -2.297581 0
M  V30 33 H 2.583568 1.154556 -1.973598 0
M  V30 34 H 1.355193 1.737426 -3.118952 0
M  V30 35 H 2.151951 4.733205 -1.213346 0
M  V30 36 H -0.174789 5.002504 0.008454 0
M  V30 37 H 0.710522 4.361852 1.415645 0
M  V30 38 H 1.278068 5.883184 0.538489 0
M  V30 39 H 3.650434 3.126436 -0.301476 0
M  V30 40 H 3.073526 4.018493 1.121519 0
M  V30 41 H 0.973003 -3.511771 4.182698 0
M  V30 END ATOM
M  V30 BEGIN BOND
M  V30 1 1 1 2
M  V30 2 1 2 3
M  V30 3 2 3 4
M  V30 4 1 4 5
M  V30 5 1 5 6
M  V30 6 1 6 7
M  V30 7 1 7 8
M  V30 8 2 8 9
M  V30 9 1 9 10
M  V30 10 1 10 11
M  V30 11 1 11 12
M  V30 12 1 12 13
M  V30 13 1 12 14
M  V30 14 1 14 15
M  V30 15 1 15 16
M  V30 16 1 15 17
M  V30 17 2 5 18
M  V30 18 1 18 19
M  V30 19 2 19 20
M  V30 20 1 20 21
M  V30 21 1 21 22
M  V30 22 1 21 23
M  V30 23 1 21 24
M  V30 24 1 20 3
M  V30 25 2 11 7
M  V30 26 1 17 10
M  V30 27 1 1 25
M  V30 28 1 1 26
M  V30 29 1 1 27
M  V30 30 1 2 28
M  V30 31 1 6 29
M  V30 32 1 8 30
M  V30 33 1 12 31
M  V30 34 1 13 32
M  V30 35 1 13 33
M  V30 36 1 13 34
M  V30 37 1 15 35 CFG=3
M  V30 38 1 16 36
M  V30 39 1 16 37
M  V30 40 1 16 38
M  V30 41 1 17 39
M  V30 42 1 17 40
M  V30 43 1 19 41
M  V30 END BOND
M  V30 END CTAB
M  END
>  <Dataset>  (665) 
ChEMBL_Kinases

>  <Ligand_Instance>  (665) 
nan

>  <PDB_ID>  (665) 
nan

>  <Standardized_SMILES>  (665) 
CNc1nc(Nc2cnn3c2C(C)O[C@@H](C)C3)ncc1C(F)(F)F

>  <Name>  (665) 
nan

>  <Pocket>  (665) 
nan

>  <ATP_Site>  (665) 
nan

>  <Peripheral>  (665) 
nan

>  <Num_H_Atoms_ProtBoundConf>  (665) 
nan

>  <Num_Resolved_Atoms>  (665) 
nan

>  <Num_Not_Resolved_Atoms>  (665) 
nan

$$$$
CHEMBL3120999
     RDKit          3D

  0  0  0  0  0  0  0  0  0  0999 V3000
M  V30 BEGIN CTAB
M  V30 COUNTS 46 50 0 0 0
M  V30 BEGIN ATOM
M  V30 1 O 2.760128 2.702208 1.505351 0
M  V30 2 C 3.986590 2.842235 1.269864 0
M  V30 3 O 4.609878 3.337460 2.410110 0
M  V30 4 C 4.672371 2.553109 0.046245 0
M  V30 5 C 6.027470 2.777420 -0.019047 0
M  V30 6 C 6.704829 2.510218 -1.178956 0
M  V30 7 C 5.981464 2.011470 -2.270162 0
M  V30 8 C 4.604879 1.780032 -2.214440 0
M  V30 9 C 3.953891 2.062644 -1.023136 0
M  V30 10 N 2.554460 1.810167 -1.014891 0
M  V30 11 C 1.925460 0.831888 -0.339630 0
M  V30 12 C 0.561342 0.871559 -0.555442 0
M  V30 13 C -0.469557 -0.008801 -0.010052 0
M  V30 14 N -0.207628 -1.031456 0.826807 0
M  V30 15 C -1.382772 -1.650248 1.147489 0
M  V30 16 C -1.408225 -2.802735 2.044297 0
M  V30 17 C -1.244601 -4.083278 1.506651 0
M  V30 18 C -1.266805 -5.192822 2.347625 0
M  V30 19 C -1.450021 -5.044324 3.718490 0
M  V30 20 F -1.473261 -6.113565 4.543444 0
M  V30 21 C -1.611328 -3.765482 4.238121 0
M  V30 22 C -1.590046 -2.655599 3.404712 0
M  V30 23 C -2.359827 -0.938793 0.454603 0
M  V30 24 C -3.763631 -1.317082 0.555392 0
M  V30 25 C -4.583427 -1.726943 -0.477013 0
M  V30 26 C -5.903250 -2.060790 -0.259445 0
M  V30 27 N -6.426119 -1.993271 0.978839 0
M  V30 28 C -5.675414 -1.598965 2.034263 0
M  V30 29 C -4.346959 -1.264453 1.806507 0
M  V30 30 O -1.765891 0.015827 -0.209824 0
M  V30 31 N 0.397747 1.918598 -1.391516 0
M  V30 32 N 1.580665 2.455698 -1.648732 0
M  V30 33 H 4.365017 3.011073 3.356550 0
M  V30 34 H 6.597471 3.165313 0.826899 0
M  V30 35 H 7.769477 2.682166 -1.242996 0
M  V30 36 H 6.528714 1.798927 -3.196894 0
M  V30 37 H 4.164533 1.395661 -3.118759 0
M  V30 38 H 2.419683 0.112136 0.286726 0
M  V30 39 H -1.102192 -4.207827 0.449517 0
M  V30 40 H -1.141968 -6.218763 1.967713 0
M  V30 41 H -1.751247 -3.678305 5.302701 0
M  V30 42 H -1.721286 -1.665339 3.854626 0
M  V30 43 H -4.120810 -1.767015 -1.458807 0
M  V30 44 H -6.525034 -2.379302 -1.087827 0
M  V30 45 H -6.145335 -1.561992 3.011561 0
M  V30 46 H -3.841137 -0.965128 2.710368 0
M  V30 END ATOM
M  V30 BEGIN BOND
M  V30 1 2 1 2
M  V30 2 1 2 3
M  V30 3 1 2 4
M  V30 4 2 4 5
M  V30 5 1 5 6
M  V30 6 2 6 7
M  V30 7 1 7 8
M  V30 8 2 8 9
M  V30 9 1 9 10
M  V30 10 1 10 11
M  V30 11 2 11 12
M  V30 12 1 12 13
M  V30 13 2 13 14
M  V30 14 1 14 15
M  V30 15 1 15 16
M  V30 16 2 16 17
M  V30 17 1 17 18
M  V30 18 2 18 19
M  V30 19 1 19 20
M  V30 20 1 19 21
M  V30 21 2 21 22
M  V30 22 2 15 23
M  V30 23 1 23 24
M  V30 24 2 24 25
M  V30 25 1 25 26
M  V30 26 2 26 27
M  V30 27 1 27 28
M  V30 28 2 28 29
M  V30 29 1 23 30
M  V30 30 1 12 31
M  V30 31 2 31 32
M  V30 32 1 9 4
M  V30 33 1 32 10
M  V30 34 1 30 13
M  V30 35 1 22 16
M  V30 36 1 29 24
M  V30 37 1 3 33
M  V30 38 1 5 34
M  V30 39 1 6 35
M  V30 40 1 7 36
M  V30 41 1 8 37
M  V30 42 1 11 38
M  V30 43 1 17 39
M  V30 44 1 18 40
M  V30 45 1 21 41
M  V30 46 1 22 42
M  V30 47 1 25 43
M  V30 48 1 26 44
M  V30 49 1 28 45
M  V30 50 1 29 46
M  V30 END BOND
M  V30 END CTAB
M  END
>  <Dataset>  (666) 
ChEMBL_Kinases

>  <Ligand_Instance>  (666) 
nan

>  <PDB_ID>  (666) 
nan

>  <Standardized_SMILES>  (666) 
O=C(O)c1ccccc1-n1cc(-c2nc(-c3ccc(F)cc3)c(-c3ccncc3)o2)nn1

>  <Name>  (666) 
nan

>  <Pocket>  (666) 
nan

>  <ATP_Site>  (666) 
nan

>  <Peripheral>  (666) 
nan

>  <Num_H_Atoms_ProtBoundConf>  (666) 
nan

>  <Num_Resolved_Atoms>  (666) 
nan

>  <Num_Not_Resolved_Atoms>  (666) 
nan

$$$$
CHEMBL3121000
     RDKit          3D

  0  0  0  0  0  0  0  0  0  0999 V3000
M  V30 BEGIN CTAB
M  V30 COUNTS 48 52 0 0 0
M  V30 BEGIN ATOM
M  V30 1 C -1.671574 -0.533552 3.335537 0
M  V30 2 N -1.144144 -0.884798 2.037568 0
M  V30 3 C 0.036702 -0.529647 1.507649 0
M  V30 4 C 1.071486 0.299668 2.120598 0
M  V30 5 C 2.114382 0.919447 1.464405 0
M  V30 6 N 2.856396 1.596363 2.386917 0
M  V30 7 C 4.006040 2.332298 1.972994 0
M  V30 8 C 5.326566 1.992948 2.192760 0
M  V30 9 C 6.337332 2.820861 1.722337 0
M  V30 10 C 6.058086 3.983954 1.034916 0
M  V30 11 C 4.735065 4.333152 0.809263 0
M  V30 12 C 3.721170 3.510679 1.276561 0
M  V30 13 O 2.425716 3.973331 0.984597 0
M  V30 14 N 2.283196 1.394431 3.565037 0
M  V30 15 N 1.214768 0.620536 3.418928 0
M  V30 16 N 0.104644 -1.083335 0.282162 0
M  V30 17 C -1.028003 -1.785048 0.038894 0
M  V30 18 C -1.188184 -2.480735 -1.238196 0
M  V30 19 C -1.317568 -3.858747 -1.296191 0
M  V30 20 C -1.467022 -4.467267 -2.542214 0
M  V30 21 C -1.483196 -3.693394 -3.683442 0
M  V30 22 F -1.625435 -4.227893 -4.926646 0
M  V30 23 C -1.350756 -2.316572 -3.582364 0
M  V30 24 C -1.198491 -1.658317 -2.359961 0
M  V30 25 C -1.830564 -1.662819 1.155825 0
M  V30 26 C -3.137441 -2.301621 1.232036 0
M  V30 27 C -3.385459 -3.246438 2.207017 0
M  V30 28 C -4.645851 -3.834809 2.248979 0
M  V30 29 N -5.577511 -3.463219 1.339764 0
M  V30 30 C -5.352918 -2.549415 0.388877 0
M  V30 31 C -4.112146 -1.948351 0.322054 0
M  V30 32 H -2.782666 -0.420283 3.255026 0
M  V30 33 H -1.456495 -1.297656 4.097393 0
M  V30 34 H -1.223925 0.428964 3.714846 0
M  V30 35 H 2.259375 0.837182 0.382654 0
M  V30 36 H 5.475142 1.065673 2.739543 0
M  V30 37 H 7.357441 2.481116 1.937644 0
M  V30 38 H 6.912220 4.583041 0.696562 0
M  V30 39 H 4.592318 5.249408 0.269202 0
M  V30 40 H 1.956355 4.606617 1.634430 0
M  V30 41 H -1.304366 -4.461974 -0.398152 0
M  V30 42 H -1.572665 -5.532319 -2.661298 0
M  V30 43 H -1.358517 -1.664822 -4.467496 0
M  V30 44 H -1.095514 -0.583968 -2.290586 0
M  V30 45 H -2.659388 -3.554328 2.936559 0
M  V30 46 H -4.955893 -4.590589 2.971805 0
M  V30 47 H -6.203888 -2.351907 -0.276669 0
M  V30 48 H -3.970795 -1.213058 -0.463400 0
M  V30 END ATOM
M  V30 BEGIN BOND
M  V30 1 1 1 2
M  V30 2 1 2 3
M  V30 3 1 3 4
M  V30 4 2 4 5
M  V30 5 1 5 6
M  V30 6 1 6 7
M  V30 7 2 7 8
M  V30 8 1 8 9
M  V30 9 2 9 10
M  V30 10 1 10 11
M  V30 11 2 11 12
M  V30 12 1 12 13
M  V30 13 1 6 14
M  V30 14 2 14 15
M  V30 15 2 3 16
M  V30 16 1 16 17
M  V30 17 1 17 18
M  V30 18 2 18 19
M  V30 19 1 19 20
M  V30 20 2 20 21
M  V30 21 1 21 22
M  V30 22 1 21 23
M  V30 23 2 23 24
M  V30 24 2 17 25
M  V30 25 1 25 26
M  V30 26 2 26 27
M  V30 27 1 27 28
M  V30 28 2 28 29
M  V30 29 1 29 30
M  V30 30 2 30 31
M  V30 31 1 25 2
M  V30 32 1 31 26
M  V30 33 1 15 4
M  V30 34 1 24 18
M  V30 35 1 12 7
M  V30 36 1 1 32
M  V30 37 1 1 33
M  V30 38 1 1 34
M  V30 39 1 5 35
M  V30 40 1 8 36
M  V30 41 1 9 37
M  V30 42 1 10 38
M  V30 43 1 11 39
M  V30 44 1 13 40
M  V30 45 1 19 41
M  V30 46 1 20 42
M  V30 47 1 23 43
M  V30 48 1 24 44
M  V30 49 1 27 45
M  V30 50 1 28 46
M  V30 51 1 30 47
M  V30 52 1 31 48
M  V30 END BOND
M  V30 END CTAB
M  END
>  <Dataset>  (667) 
ChEMBL_Kinases

>  <Ligand_Instance>  (667) 
nan

>  <PDB_ID>  (667) 
nan

>  <Standardized_SMILES>  (667) 
Cn1c(-c2cn(-c3ccccc3O)nn2)nc(-c2ccc(F)cc2)c1-c1ccncc1

>  <Name>  (667) 
nan

>  <Pocket>  (667) 
nan

>  <ATP_Site>  (667) 
nan

>  <Peripheral>  (667) 
nan

>  <Num_H_Atoms_ProtBoundConf>  (667) 
nan

>  <Num_Resolved_Atoms>  (667) 
nan

>  <Num_Not_Resolved_Atoms>  (667) 
nan

$$$$
CHEMBL3121001
     RDKit          3D

  0  0  0  0  0  0  0  0  0  0999 V3000
M  V30 BEGIN CTAB
M  V30 COUNTS 44 48 0 0 0
M  V30 BEGIN ATOM
M  V30 1 O 4.271390 -3.705307 3.048999 0
M  V30 2 C 5.122379 -2.673591 3.425209 0
M  V30 3 C 6.029820 -2.650500 4.454691 0
M  V30 4 C 6.804228 -1.536206 4.694629 0
M  V30 5 C 6.667200 -0.426767 3.890022 0
M  V30 6 C 5.752834 -0.424604 2.837878 0
M  V30 7 C 4.971769 -1.560853 2.603105 0
M  V30 8 N 4.103956 -1.368760 1.492434 0
M  V30 9 C 2.788039 -1.039641 1.612280 0
M  V30 10 C 2.254941 -0.933302 0.322724 0
M  V30 11 C 0.879031 -0.594348 -0.039170 0
M  V30 12 N -0.107299 -0.320155 0.826899 0
M  V30 13 C -1.259298 -0.046381 0.146752 0
M  V30 14 C -2.548803 0.299560 0.737169 0
M  V30 15 C -3.355079 -0.449940 1.567749 0
M  V30 16 C -4.547870 0.067463 2.021996 0
M  V30 17 C -4.997612 1.327841 1.685948 0
M  V30 18 F -6.159823 1.824833 2.132106 0
M  V30 19 C -4.164034 2.071179 0.842307 0
M  V30 20 C -2.957911 1.585400 0.365137 0
M  V30 21 C -0.894874 -0.175658 -1.186233 0
M  V30 22 C -1.843087 0.034482 -2.291495 0
M  V30 23 C -2.900967 -0.856872 -2.268444 0
M  V30 24 C -3.880724 -0.793801 -3.239912 0
M  V30 25 N -3.795992 0.139677 -4.204897 0
M  V30 26 C -2.783747 1.002730 -4.238400 0
M  V30 27 C -1.772918 0.994524 -3.299737 0
M  V30 28 O 0.379497 -0.501321 -1.265207 0
M  V30 29 N 3.275533 -1.203562 -0.511730 0
M  V30 30 N 4.372088 -1.461797 0.183650 0
M  V30 31 H 3.373138 -3.886239 3.470257 0
M  V30 32 H 6.067213 -3.573589 5.036813 0
M  V30 33 H 7.507632 -1.564465 5.519666 0
M  V30 34 H 7.277566 0.444035 4.083424 0
M  V30 35 H 5.719126 0.495325 2.261890 0
M  V30 36 H 2.166359 -0.867193 2.498521 0
M  V30 37 H -2.949094 -1.424521 1.792899 0
M  V30 38 H -5.148022 -0.563866 2.675128 0
M  V30 39 H -4.497806 3.066185 0.564815 0
M  V30 40 H -2.402427 2.258729 -0.281329 0
M  V30 41 H -3.056416 -1.647035 -1.528409 0
M  V30 42 H -4.754187 -1.429441 -3.333024 0
M  V30 43 H -2.698964 1.756590 -5.002574 0
M  V30 44 H -0.908895 1.640345 -3.226948 0
M  V30 END ATOM
M  V30 BEGIN BOND
M  V30 1 1 1 2
M  V30 2 2 2 3
M  V30 3 1 3 4
M  V30 4 2 4 5
M  V30 5 1 5 6
M  V30 6 2 6 7
M  V30 7 1 7 8
M  V30 8 1 8 9
M  V30 9 2 9 10
M  V30 10 1 10 11
M  V30 11 2 11 12
M  V30 12 1 12 13
M  V30 13 1 13 14
M  V30 14 2 14 15
M  V30 15 1 15 16
M  V30 16 2 16 17
M  V30 17 1 17 18
M  V30 18 1 17 19
M  V30 19 2 19 20
M  V30 20 2 13 21
M  V30 21 1 21 22
M  V30 22 2 22 23
M  V30 23 1 23 24
M  V30 24 2 24 25
M  V30 25 1 25 26
M  V30 26 2 26 27
M  V30 27 1 21 28
M  V30 28 1 10 29
M  V30 29 2 29 30
M  V30 30 1 7 2
M  V30 31 1 30 8
M  V30 32 1 28 11
M  V30 33 1 20 14
M  V30 34 1 27 22
M  V30 35 1 1 31
M  V30 36 1 3 32
M  V30 37 1 4 33
M  V30 38 1 5 34
M  V30 39 1 6 35
M  V30 40 1 9 36
M  V30 41 1 15 37
M  V30 42 1 16 38
M  V30 43 1 19 39
M  V30 44 1 20 40
M  V30 45 1 23 41
M  V30 46 1 24 42
M  V30 47 1 26 43
M  V30 48 1 27 44
M  V30 END BOND
M  V30 END CTAB
M  END
>  <Dataset>  (668) 
ChEMBL_Kinases

>  <Ligand_Instance>  (668) 
nan

>  <PDB_ID>  (668) 
nan

>  <Standardized_SMILES>  (668) 
Oc1ccccc1-n1cc(-c2nc(-c3ccc(F)cc3)c(-c3ccncc3)o2)nn1

>  <Name>  (668) 
nan

>  <Pocket>  (668) 
nan

>  <ATP_Site>  (668) 
nan

>  <Peripheral>  (668) 
nan

>  <Num_H_Atoms_ProtBoundConf>  (668) 
nan

>  <Num_Resolved_Atoms>  (668) 
nan

>  <Num_Not_Resolved_Atoms>  (668) 
nan

$$$$
CHEMBL3121004
     RDKit          3D

  0  0  0  0  0  0  0  0  0  0999 V3000
M  V30 BEGIN CTAB
M  V30 COUNTS 58 62 0 0 0
M  V30 BEGIN ATOM
M  V30 1 C -2.528208 0.099202 1.664952 0
M  V30 2 N -1.789193 -1.082229 1.353573 0
M  V30 3 C -0.468069 -1.273684 1.411635 0
M  V30 4 C 0.555522 -0.310582 1.813683 0
M  V30 5 C 1.611843 -0.041826 0.967728 0
M  V30 6 N 2.429723 0.880662 1.557142 0
M  V30 7 C 3.658842 1.613456 1.315905 0 CFG=1
M  V30 8 C 4.158934 1.331396 -0.069094 0
M  V30 9 O 4.249015 -0.065252 -0.272854 0
M  V30 10 O 3.555253 1.936403 -1.108190 0
M  V30 11 C 2.718917 2.945805 -0.747330 0 CFG=2
M  V30 12 C 2.221569 3.755381 -1.931565 0
M  V30 13 O 1.536864 2.859851 -2.761372 0
M  V30 14 C 3.476070 3.853308 0.231243 0 CFG=1
M  V30 15 O 2.707366 5.002973 0.395879 0
M  V30 16 C 3.430760 3.088925 1.548061 0 CFG=2
M  V30 17 O 4.356875 3.548099 2.448496 0
M  V30 18 N 1.873884 1.165785 2.744799 0
M  V30 19 N 0.763114 0.461512 2.899932 0
M  V30 20 N -0.222222 -2.559672 1.021748 0
M  V30 21 C -1.387655 -3.166317 0.722076 0
M  V30 22 C -1.345143 -4.572389 0.277572 0
M  V30 23 C -0.832738 -5.590640 1.045768 0
M  V30 24 C -0.826795 -6.883993 0.566719 0
M  V30 25 C -1.350709 -7.082904 -0.690824 0
M  V30 26 F -1.338708 -8.356532 -1.148936 0
M  V30 27 C -1.865365 -6.069677 -1.466152 0
M  V30 28 C -1.877333 -4.753450 -0.991991 0
M  V30 29 C -2.372821 -2.219914 0.936263 0
M  V30 30 C -3.763725 -2.589636 0.691684 0
M  V30 31 C -4.424671 -3.575257 1.390735 0
M  V30 32 C -5.742536 -3.885672 1.118789 0
M  V30 33 N -6.441369 -3.231689 0.150697 0
M  V30 34 C -5.806012 -2.262401 -0.543271 0
M  V30 35 C -4.494221 -1.925255 -0.300968 0
M  V30 36 H -1.945827 1.037020 1.510569 0
M  V30 37 H -3.523632 0.122136 1.141820 0
M  V30 38 H -2.781041 0.088665 2.749979 0
M  V30 39 H 1.952757 -0.353669 -0.000669 0
M  V30 40 H 4.424396 1.271991 2.052572 0
M  V30 41 H 5.243121 1.657492 -0.075326 0
M  V30 42 H 4.453814 -0.272050 -1.211358 0
M  V30 43 H 1.847067 2.576606 -0.195395 0
M  V30 44 H 3.094557 4.162740 -2.473979 0
M  V30 45 H 1.540946 4.528235 -1.535055 0
M  V30 46 H 0.684577 2.575120 -2.373047 0
M  V30 47 H 4.489667 4.052803 -0.111536 0
M  V30 48 H 3.183494 5.602539 1.023568 0
M  V30 49 H 2.388620 3.211895 1.903340 0
M  V30 50 H 4.106710 3.456572 3.387190 0
M  V30 51 H -0.465546 -5.242839 2.005924 0
M  V30 52 H -0.409933 -7.625680 1.223685 0
M  V30 53 H -2.250403 -6.340948 -2.437130 0
M  V30 54 H -2.278709 -3.963968 -1.596881 0
M  V30 55 H -3.864437 -4.095625 2.162888 0
M  V30 56 H -6.269127 -4.656112 1.660731 0
M  V30 57 H -6.342748 -1.727549 -1.319624 0
M  V30 58 H -3.960772 -1.147014 -0.847533 0
M  V30 END ATOM
M  V30 BEGIN BOND
M  V30 1 1 1 2
M  V30 2 1 2 3
M  V30 3 1 3 4
M  V30 4 2 4 5
M  V30 5 1 5 6
M  V30 6 1 6 7
M  V30 7 1 7 8
M  V30 8 1 8 9
M  V30 9 1 8 10
M  V30 10 1 10 11
M  V30 11 1 11 12
M  V30 12 1 12 13
M  V30 13 1 11 14
M  V30 14 1 14 15
M  V30 15 1 14 16
M  V30 16 1 16 17
M  V30 17 1 6 18
M  V30 18 2 18 19
M  V30 19 2 3 20
M  V30 20 1 20 21
M  V30 21 1 21 22
M  V30 22 2 22 23
M  V30 23 1 23 24
M  V30 24 2 24 25
M  V30 25 1 25 26
M  V30 26 1 25 27
M  V30 27 2 27 28
M  V30 28 2 21 29
M  V30 29 1 29 30
M  V30 30 2 30 31
M  V30 31 1 31 32
M  V30 32 2 32 33
M  V30 33 1 33 34
M  V30 34 2 34 35
M  V30 35 1 29 2
M  V30 36 1 35 30
M  V30 37 1 19 4
M  V30 38 1 28 22
M  V30 39 1 16 7
M  V30 40 1 1 36
M  V30 41 1 1 37
M  V30 42 1 1 38
M  V30 43 1 5 39
M  V30 44 1 7 40 CFG=1
M  V30 45 1 8 41
M  V30 46 1 9 42
M  V30 47 1 11 43 CFG=1
M  V30 48 1 12 44
M  V30 49 1 12 45
M  V30 50 1 13 46
M  V30 51 1 14 47 CFG=3
M  V30 52 1 15 48
M  V30 53 1 16 49 CFG=1
M  V30 54 1 17 50
M  V30 55 1 23 51
M  V30 56 1 24 52
M  V30 57 1 27 53
M  V30 58 1 28 54
M  V30 59 1 31 55
M  V30 60 1 32 56
M  V30 61 1 34 57
M  V30 62 1 35 58
M  V30 END BOND
M  V30 END CTAB
M  END
>  <Dataset>  (669) 
ChEMBL_Kinases

>  <Ligand_Instance>  (669) 
nan

>  <PDB_ID>  (669) 
nan

>  <Standardized_SMILES>  (669) 
Cn1c(-c2cn([C@H]3C(O)O[C@H](CO)[C@@H](O)[C@@H]3O)nn2)nc(-c2ccc(F)cc2)c1-c1ccncc1

>  <Name>  (669) 
nan

>  <Pocket>  (669) 
nan

>  <ATP_Site>  (669) 
nan

>  <Peripheral>  (669) 
nan

>  <Num_H_Atoms_ProtBoundConf>  (669) 
nan

>  <Num_Resolved_Atoms>  (669) 
nan

>  <Num_Not_Resolved_Atoms>  (669) 
nan

$$$$
CHEMBL3121005
     RDKit          3D

  0  0  0  0  0  0  0  0  0  0999 V3000
M  V30 BEGIN CTAB
M  V30 COUNTS 54 58 0 0 0
M  V30 BEGIN ATOM
M  V30 1 O -0.173305 -1.073982 7.057565 0
M  V30 2 C -0.647704 -1.327911 5.771773 0
M  V30 3 C 0.517693 -1.209282 4.778606 0 CFG=1
M  V30 4 O 0.985083 0.074992 4.895610 0
M  V30 5 C 2.149551 0.378571 4.253544 0
M  V30 6 O 1.895704 1.467895 3.423637 0
M  V30 7 C 2.881685 -0.739887 3.599904 0 CFG=2
M  V30 8 N 2.310062 -1.198417 2.353066 0
M  V30 9 C 1.526733 -0.617922 1.422203 0
M  V30 10 C 1.254384 -1.499045 0.394249 0
M  V30 11 C 0.445457 -1.256620 -0.798079 0
M  V30 12 N -0.173762 -0.103050 -1.065531 0
M  V30 13 C -0.843350 -0.185253 -2.240576 0
M  V30 14 C -1.580541 0.984879 -2.699222 0
M  V30 15 C -1.360177 1.805338 -3.781922 0
M  V30 16 C -2.187196 2.875263 -4.050959 0
M  V30 17 C -3.274728 3.167714 -3.240053 0
M  V30 18 F -3.991932 4.232613 -3.614727 0
M  V30 19 C -3.490825 2.340568 -2.154293 0
M  V30 20 C -2.675804 1.272995 -1.875249 0
M  V30 21 C -0.592222 -1.477210 -2.680829 0
M  V30 22 C -1.169659 -1.918774 -3.941035 0
M  V30 23 C -2.104693 -2.956176 -3.830849 0
M  V30 24 C -2.726847 -3.469367 -4.959749 0
M  V30 25 N -2.428878 -2.964195 -6.175284 0
M  V30 26 C -1.547409 -1.978938 -6.323298 0
M  V30 27 C -0.925958 -1.463625 -5.217855 0
M  V30 28 O 0.172533 -2.066464 -1.793746 0
M  V30 29 N 1.908140 -2.618345 0.757669 0
M  V30 30 N 2.529733 -2.442901 1.910272 0
M  V30 31 C 2.904715 -1.911471 4.569573 0 CFG=1
M  V30 32 O 3.862336 -1.616318 5.537592 0
M  V30 33 C 1.600702 -2.153090 5.253654 0 CFG=2
M  V30 34 O 1.210770 -3.486775 5.129127 0
M  V30 35 H -0.952403 -0.729180 7.594428 0
M  V30 36 H -1.422796 -0.549155 5.518278 0
M  V30 37 H -1.119038 -2.321698 5.725668 0
M  V30 38 H 0.121666 -1.488298 3.784665 0
M  V30 39 H 2.853588 0.797416 5.039590 0
M  V30 40 H 1.952812 2.325627 3.919868 0
M  V30 41 H 3.954623 -0.445376 3.469303 0
M  V30 42 H 1.183182 0.382570 1.500053 0
M  V30 43 H -0.495427 1.512784 -4.358129 0
M  V30 44 H -1.901579 3.446379 -4.939535 0
M  V30 45 H -4.352885 2.624290 -1.566879 0
M  V30 46 H -2.987779 0.734115 -0.992323 0
M  V30 47 H -2.374812 -3.390988 -2.878435 0
M  V30 48 H -3.457709 -4.268997 -4.951883 0
M  V30 49 H -1.243852 -1.509158 -7.255500 0
M  V30 50 H -0.199680 -0.669268 -5.261156 0
M  V30 51 H 3.266277 -2.791319 3.966424 0
M  V30 52 H 4.337636 -2.449768 5.808335 0
M  V30 53 H 1.662736 -1.978274 6.361760 0
M  V30 54 H 0.806108 -3.620967 4.259378 0
M  V30 END ATOM
M  V30 BEGIN BOND
M  V30 1 1 1 2
M  V30 2 1 2 3
M  V30 3 1 3 4
M  V30 4 1 4 5
M  V30 5 1 5 6
M  V30 6 1 5 7
M  V30 7 1 7 8
M  V30 8 1 8 9
M  V30 9 2 9 10
M  V30 10 1 10 11
M  V30 11 2 11 12
M  V30 12 1 12 13
M  V30 13 1 13 14
M  V30 14 2 14 15
M  V30 15 1 15 16
M  V30 16 2 16 17
M  V30 17 1 17 18
M  V30 18 1 17 19
M  V30 19 2 19 20
M  V30 20 2 13 21
M  V30 21 1 21 22
M  V30 22 2 22 23
M  V30 23 1 23 24
M  V30 24 2 24 25
M  V30 25 1 25 26
M  V30 26 2 26 27
M  V30 27 1 21 28
M  V30 28 1 10 29
M  V30 29 2 29 30
M  V30 30 1 7 31
M  V30 31 1 31 32
M  V30 32 1 31 33
M  V30 33 1 33 34
M  V30 34 1 33 3
M  V30 35 1 30 8
M  V30 36 1 28 11
M  V30 37 1 20 14
M  V30 38 1 27 22
M  V30 39 1 1 35
M  V30 40 1 2 36
M  V30 41 1 2 37
M  V30 42 1 3 38 CFG=3
M  V30 43 1 5 39
M  V30 44 1 6 40
M  V30 45 1 7 41 CFG=3
M  V30 46 1 9 42
M  V30 47 1 15 43
M  V30 48 1 16 44
M  V30 49 1 19 45
M  V30 50 1 20 46
M  V30 51 1 23 47
M  V30 52 1 24 48
M  V30 53 1 26 49
M  V30 54 1 27 50
M  V30 55 1 31 51 CFG=3
M  V30 56 1 32 52
M  V30 57 1 33 53 CFG=1
M  V30 58 1 34 54
M  V30 END BOND
M  V30 END CTAB
M  END
>  <Dataset>  (670) 
ChEMBL_Kinases

>  <Ligand_Instance>  (670) 
nan

>  <PDB_ID>  (670) 
nan

>  <Standardized_SMILES>  (670) 
OC[C@H]1OC(O)[C@H](n2cc(-c3nc(-c4ccc(F)cc4)c(-c4ccncc4)o3)nn2)[C@@H](O)[C@@H]1O

>  <Name>  (670) 
nan

>  <Pocket>  (670) 
nan

>  <ATP_Site>  (670) 
nan

>  <Peripheral>  (670) 
nan

>  <Num_H_Atoms_ProtBoundConf>  (670) 
nan

>  <Num_Resolved_Atoms>  (670) 
nan

>  <Num_Not_Resolved_Atoms>  (670) 
nan

$$$$
CHEMBL3121006
     RDKit          3D

  0  0  0  0  0  0  0  0  0  0999 V3000
M  V30 BEGIN CTAB
M  V30 COUNTS 66 69 0 0 0
M  V30 BEGIN ATOM
M  V30 1 C 1.705881 0.735881 3.014369 0
M  V30 2 N 0.767602 -0.329598 3.171101 0
M  V30 3 C 0.785909 -1.414224 2.385222 0
M  V30 4 C 1.623039 -1.842410 1.268506 0
M  V30 5 C 1.255419 -1.581106 -0.032397 0
M  V30 6 N 2.127916 -2.038294 -0.932450 0
M  V30 7 C 2.432474 -2.150532 -2.329006 0
M  V30 8 C 3.250638 -0.939564 -2.749618 0
M  V30 9 O 3.675203 -0.955757 -3.994928 0
M  V30 10 C 3.083300 -0.971464 -5.160257 0
M  V30 11 C 2.223289 0.182996 -5.566114 0
M  V30 12 O 1.142206 0.348162 -4.725138 0
M  V30 13 C 0.431557 1.505738 -5.102615 0
M  V30 14 C -0.841568 1.759742 -4.405942 0
M  V30 15 O -1.835654 0.847825 -4.530495 0
M  V30 16 C -1.673876 -0.423647 -4.126879 0
M  V30 17 C -1.385235 -0.576441 -2.643603 0
M  V30 18 N -1.255729 -2.006330 -2.430879 0
M  V30 19 N 3.087172 -2.611910 -0.180537 0
M  V30 20 N 2.783935 -2.492339 1.093359 0
M  V30 21 N -0.206314 -2.264098 2.746845 0
M  V30 22 C -0.893977 -1.726493 3.795292 0
M  V30 23 C -2.042460 -2.279175 4.519483 0
M  V30 24 C -1.970841 -3.477601 5.204394 0
M  V30 25 C -3.128473 -3.901335 5.855624 0
M  V30 26 C -4.294623 -3.149703 5.813784 0
M  V30 27 F -5.409729 -3.610099 6.471980 0
M  V30 28 C -4.332631 -1.951342 5.117293 0
M  V30 29 C -3.194315 -1.501512 4.457278 0
M  V30 30 C -0.255937 -0.540849 4.015361 0
M  V30 31 C -0.626920 0.422447 5.056713 0
M  V30 32 C -1.006235 1.678465 4.566700 0
M  V30 33 C -1.370500 2.639267 5.493358 0
M  V30 34 N -1.364626 2.391465 6.801257 0
M  V30 35 C -0.999265 1.182577 7.267904 0
M  V30 36 C -0.619513 0.160303 6.419411 0
M  V30 37 H 1.911408 1.162531 4.039167 0
M  V30 38 H 2.703074 0.339212 2.693718 0
M  V30 39 H 1.353772 1.573469 2.401647 0
M  V30 40 H 0.399017 -1.077746 -0.422479 0
M  V30 41 H 1.470630 -2.088865 -2.894008 0
M  V30 42 H 2.938378 -3.052550 -2.652421 0
M  V30 43 H 2.648256 -0.021643 -2.473204 0
M  V30 44 H 4.155387 -0.947888 -2.050897 0
M  V30 45 H 2.419683 -1.903724 -5.281383 0
M  V30 46 H 3.850854 -1.138815 -6.005435 0
M  V30 47 H 2.836200 1.137044 -5.631848 0
M  V30 48 H 1.824570 -0.008343 -6.611365 0
M  V30 49 H 0.336064 1.521028 -6.213996 0
M  V30 50 H 1.146653 2.341805 -4.871767 0
M  V30 51 H -1.251489 2.730926 -4.830066 0
M  V30 52 H -0.625664 2.036510 -3.339931 0
M  V30 53 H -2.623680 -0.972277 -4.295982 0
M  V30 54 H -0.901229 -1.005389 -4.684446 0
M  V30 55 H -0.442046 -0.082079 -2.361779 0
M  V30 56 H -2.225148 -0.205800 -2.036131 0
M  V30 57 H -1.426575 -2.300352 -1.465352 0
M  V30 58 H -1.968662 -2.492372 -3.042877 0
M  V30 59 H -1.038946 -4.047238 5.219531 0
M  V30 60 H -3.087745 -4.837435 6.395884 0
M  V30 61 H -5.254484 -1.376608 5.095755 0
M  V30 62 H -3.287791 -0.574140 3.940436 0
M  V30 63 H -1.018705 1.904988 3.495630 0
M  V30 64 H -1.671515 3.631471 5.130094 0
M  V30 65 H -0.963678 0.886796 8.326380 0
M  V30 66 H -0.316927 -0.825863 6.719987 0
M  V30 END ATOM
M  V30 BEGIN BOND
M  V30 1 1 1 2
M  V30 2 1 2 3
M  V30 3 1 3 4
M  V30 4 2 4 5
M  V30 5 1 5 6
M  V30 6 1 6 7
M  V30 7 1 7 8
M  V30 8 1 8 9
M  V30 9 1 9 10
M  V30 10 1 10 11
M  V30 11 1 11 12
M  V30 12 1 12 13
M  V30 13 1 13 14
M  V30 14 1 14 15
M  V30 15 1 15 16
M  V30 16 1 16 17
M  V30 17 1 17 18
M  V30 18 1 6 19
M  V30 19 2 19 20
M  V30 20 2 3 21
M  V30 21 1 21 22
M  V30 22 1 22 23
M  V30 23 2 23 24
M  V30 24 1 24 25
M  V30 25 2 25 26
M  V30 26 1 26 27
M  V30 27 1 26 28
M  V30 28 2 28 29
M  V30 29 2 22 30
M  V30 30 1 30 31
M  V30 31 2 31 32
M  V30 32 1 32 33
M  V30 33 2 33 34
M  V30 34 1 34 35
M  V30 35 2 35 36
M  V30 36 1 30 2
M  V30 37 1 36 31
M  V30 38 1 20 4
M  V30 39 1 29 23
M  V30 40 1 1 37
M  V30 41 1 1 38
M  V30 42 1 1 39
M  V30 43 1 5 40
M  V30 44 1 7 41
M  V30 45 1 7 42
M  V30 46 1 8 43
M  V30 47 1 8 44
M  V30 48 1 10 45
M  V30 49 1 10 46
M  V30 50 1 11 47
M  V30 51 1 11 48
M  V30 52 1 13 49
M  V30 53 1 13 50
M  V30 54 1 14 51
M  V30 55 1 14 52
M  V30 56 1 16 53
M  V30 57 1 16 54
M  V30 58 1 17 55
M  V30 59 1 17 56
M  V30 60 1 18 57
M  V30 61 1 18 58
M  V30 62 1 24 59
M  V30 63 1 25 60
M  V30 64 1 28 61
M  V30 65 1 29 62
M  V30 66 1 32 63
M  V30 67 1 33 64
M  V30 68 1 35 65
M  V30 69 1 36 66
M  V30 END BOND
M  V30 END CTAB
M  END
>  <Dataset>  (671) 
ChEMBL_Kinases

>  <Ligand_Instance>  (671) 
nan

>  <PDB_ID>  (671) 
nan

>  <Standardized_SMILES>  (671) 
Cn1c(-c2cn(CCOCCOCCOCCN)nn2)nc(-c2ccc(F)cc2)c1-c1ccncc1

>  <Name>  (671) 
nan

>  <Pocket>  (671) 
nan

>  <ATP_Site>  (671) 
nan

>  <Peripheral>  (671) 
nan

>  <Num_H_Atoms_ProtBoundConf>  (671) 
nan

>  <Num_Resolved_Atoms>  (671) 
nan

>  <Num_Not_Resolved_Atoms>  (671) 
nan

$$$$
CHEMBL3122105
     RDKit          3D

  0  0  0  0  0  0  0  0  0  0999 V3000
M  V30 BEGIN CTAB
M  V30 COUNTS 41 43 0 0 0
M  V30 BEGIN ATOM
M  V30 1 C -1.553119 -5.419871 -0.118651 0
M  V30 2 N -1.050399 -5.428584 1.242610 0
M  V30 3 C -0.254040 -4.405466 1.801205 0
M  V30 4 N 0.066226 -3.349428 1.032599 0
M  V30 5 C 0.820210 -2.326979 1.478623 0
M  V30 6 N 1.184516 -1.189072 0.701887 0
M  V30 7 C 0.413507 0.027184 0.621462 0
M  V30 8 C -0.770917 0.148452 1.328984 0
M  V30 9 N -1.257343 1.373951 1.060267 0
M  V30 10 N -0.455475 2.026992 0.231556 0
M  V30 11 C 0.588899 1.233379 -0.065645 0
M  V30 12 C 1.771201 1.444310 -0.929810 0
M  V30 13 O 1.713396 2.716952 -1.445476 0
M  V30 14 C 1.055907 3.646363 -0.682960 0
M  V30 15 C 1.016125 4.938543 -1.503868 0
M  V30 16 C 1.803372 3.979010 0.565850 0
M  V30 17 C -0.400825 3.323171 -0.420350 0
M  V30 18 N 1.284759 -2.351921 2.762578 0
M  V30 19 C 1.003787 -3.377129 3.589019 0
M  V30 20 C 0.226227 -4.408543 3.093611 0
M  V30 21 C -0.140941 -5.588878 3.928024 0
M  V30 22 F 0.326456 -6.745323 3.369163 0
M  V30 23 F -1.529394 -5.711771 4.015992 0
M  V30 24 F 0.310622 -5.470749 5.226536 0
M  V30 25 H -2.655208 -5.286106 -0.029258 0
M  V30 26 H -1.161351 -4.530931 -0.666067 0
M  V30 27 H -1.353646 -6.360625 -0.653962 0
M  V30 28 H -1.339405 -6.270018 1.764325 0
M  V30 29 H 2.084752 -1.284685 0.165677 0
M  V30 30 H -1.293452 -0.530763 1.989680 0
M  V30 31 H 2.719414 1.204127 -0.409413 0
M  V30 32 H 1.747344 0.756123 -1.825153 0
M  V30 33 H 2.065164 5.265471 -1.646075 0
M  V30 34 H 0.461552 5.710392 -0.916221 0
M  V30 35 H 0.543711 4.731413 -2.472817 0
M  V30 36 H 1.087982 4.407026 1.305131 0
M  V30 37 H 2.592957 4.739314 0.403544 0
M  V30 38 H 2.282726 3.120127 1.074539 0
M  V30 39 H -0.749486 4.140402 0.276810 0
M  V30 40 H -1.025358 3.412763 -1.308555 0
M  V30 41 H 1.372381 -3.404673 4.619689 0
M  V30 END ATOM
M  V30 BEGIN BOND
M  V30 1 1 1 2
M  V30 2 1 2 3
M  V30 3 2 3 4
M  V30 4 1 4 5
M  V30 5 1 5 6
M  V30 6 1 6 7
M  V30 7 1 7 8
M  V30 8 2 8 9
M  V30 9 1 9 10
M  V30 10 1 10 11
M  V30 11 1 11 12
M  V30 12 1 12 13
M  V30 13 1 13 14
M  V30 14 1 14 15
M  V30 15 1 14 16
M  V30 16 1 14 17
M  V30 17 2 5 18
M  V30 18 1 18 19
M  V30 19 2 19 20
M  V30 20 1 20 21
M  V30 21 1 21 22
M  V30 22 1 21 23
M  V30 23 1 21 24
M  V30 24 1 20 3
M  V30 25 2 11 7
M  V30 26 1 17 10
M  V30 27 1 1 25
M  V30 28 1 1 26
M  V30 29 1 1 27
M  V30 30 1 2 28
M  V30 31 1 6 29
M  V30 32 1 8 30
M  V30 33 1 12 31
M  V30 34 1 12 32
M  V30 35 1 15 33
M  V30 36 1 15 34
M  V30 37 1 15 35
M  V30 38 1 16 36
M  V30 39 1 16 37
M  V30 40 1 16 38
M  V30 41 1 17 39
M  V30 42 1 17 40
M  V30 43 1 19 41
M  V30 END BOND
M  V30 END CTAB
M  END
>  <Dataset>  (672) 
ChEMBL_Kinases

>  <Ligand_Instance>  (672) 
nan

>  <PDB_ID>  (672) 
nan

>  <Standardized_SMILES>  (672) 
CNc1nc(Nc2cnn3c2COC(C)(C)C3)ncc1C(F)(F)F

>  <Name>  (672) 
nan

>  <Pocket>  (672) 
nan

>  <ATP_Site>  (672) 
nan

>  <Peripheral>  (672) 
nan

>  <Num_H_Atoms_ProtBoundConf>  (672) 
nan

>  <Num_Resolved_Atoms>  (672) 
nan

>  <Num_Not_Resolved_Atoms>  (672) 
nan

$$$$
CHEMBL3122106
     RDKit          3D

  0  0  0  0  0  0  0  0  0  0999 V3000
M  V30 BEGIN CTAB
M  V30 COUNTS 35 37 0 0 0
M  V30 BEGIN ATOM
M  V30 1 C -1.072681 -5.661273 1.743603 0
M  V30 2 N -0.792382 -4.327529 1.267287 0
M  V30 3 C -0.786319 -3.220667 2.141451 0
M  V30 4 N -0.378914 -2.408847 1.013383 0
M  V30 5 C -0.135851 -1.113140 1.010061 0
M  V30 6 N 0.349871 -0.235479 -0.047664 0
M  V30 7 C 0.336913 1.170953 -0.062110 0
M  V30 8 C -0.367102 1.973778 0.811881 0
M  V30 9 N -0.090549 3.209420 0.368060 0
M  V30 10 N 0.704331 3.186158 -0.674025 0
M  V30 11 C 1.028903 1.902243 -1.017170 0
M  V30 12 C 1.905240 1.374932 -2.107267 0
M  V30 13 O 2.527784 2.435091 -2.727022 0
M  V30 14 C 1.643047 3.475350 -2.882158 0
M  V30 15 C 1.341932 4.167491 -1.565111 0
M  V30 16 N -0.243372 -0.331197 2.118092 0
M  V30 17 C -0.625693 -0.938988 3.297895 0
M  V30 18 C -0.778856 -2.197417 2.939437 0
M  V30 19 C -1.214680 -3.133278 4.079118 0
M  V30 20 F -2.389978 -3.729295 3.805449 0
M  V30 21 F -1.492698 -2.295492 5.180795 0
M  V30 22 F -0.200924 -3.948286 4.432565 0
M  V30 23 H -0.112935 -6.268619 1.627223 0
M  V30 24 H -1.261827 -5.746695 2.836124 0
M  V30 25 H -1.815932 -6.237224 1.158639 0
M  V30 26 H -0.665491 -4.606425 0.301979 0
M  V30 27 H 0.710231 -0.858845 -0.787808 0
M  V30 28 H -1.008957 1.795985 1.658499 0
M  V30 29 H 1.259383 0.777714 -2.802798 0
M  V30 30 H 2.631526 0.672236 -1.627230 0
M  V30 31 H 2.051074 4.217439 -3.588137 0
M  V30 32 H 0.682445 3.065477 -3.309036 0
M  V30 33 H 0.696895 5.032373 -1.785450 0
M  V30 34 H 2.240901 4.514219 -1.056357 0
M  V30 35 H -0.781169 -0.583615 4.277091 0
M  V30 END ATOM
M  V30 BEGIN BOND
M  V30 1 1 1 2
M  V30 2 1 2 3
M  V30 3 2 3 4
M  V30 4 1 4 5
M  V30 5 1 5 6
M  V30 6 1 6 7
M  V30 7 1 7 8
M  V30 8 2 8 9
M  V30 9 1 9 10
M  V30 10 1 10 11
M  V30 11 1 11 12
M  V30 12 1 12 13
M  V30 13 1 13 14
M  V30 14 1 14 15
M  V30 15 2 5 16
M  V30 16 1 16 17
M  V30 17 2 17 18
M  V30 18 1 18 19
M  V30 19 1 19 20
M  V30 20 1 19 21
M  V30 21 1 19 22
M  V30 22 1 18 3
M  V30 23 2 11 7
M  V30 24 1 15 10
M  V30 25 1 1 23
M  V30 26 1 1 24
M  V30 27 1 1 25
M  V30 28 1 2 26
M  V30 29 1 6 27
M  V30 30 1 8 28
M  V30 31 1 12 29
M  V30 32 1 12 30
M  V30 33 1 14 31
M  V30 34 1 14 32
M  V30 35 1 15 33
M  V30 36 1 15 34
M  V30 37 1 17 35
M  V30 END BOND
M  V30 END CTAB
M  END
>  <Dataset>  (673) 
ChEMBL_Kinases

>  <Ligand_Instance>  (673) 
nan

>  <PDB_ID>  (673) 
nan

>  <Standardized_SMILES>  (673) 
CNc1nc(Nc2cnn3c2COCC3)ncc1C(F)(F)F

>  <Name>  (673) 
nan

>  <Pocket>  (673) 
nan

>  <ATP_Site>  (673) 
nan

>  <Peripheral>  (673) 
nan

>  <Num_H_Atoms_ProtBoundConf>  (673) 
nan

>  <Num_Resolved_Atoms>  (673) 
nan

>  <Num_Not_Resolved_Atoms>  (673) 
nan

$$$$
CHEMBL3120998
     RDKit          3D

  0  0  0  0  0  0  0  0  0  0999 V3000
M  V30 BEGIN CTAB
M  V30 COUNTS 50 54 0 0 0
M  V30 BEGIN ATOM
M  V30 1 C 1.688947 -2.218647 0.200313 0
M  V30 2 N 0.362581 -1.909244 0.638731 0
M  V30 3 C 0.031258 -0.735647 1.209536 0
M  V30 4 C 0.814241 0.457556 1.529289 0
M  V30 5 C 1.425200 1.429355 0.731553 0
M  V30 6 N 2.028458 2.327407 1.553265 0
M  V30 7 C 2.685568 3.367686 0.838210 0
M  V30 8 C 1.965985 4.198713 -0.015061 0
M  V30 9 C 2.494633 5.226703 -0.748993 0
M  V30 10 C 3.862631 5.437516 -0.613976 0
M  V30 11 C 4.649895 4.657604 0.212240 0
M  V30 12 C 4.034585 3.643597 0.914887 0
M  V30 13 C 4.854234 2.814177 1.789399 0
M  V30 14 O 4.469384 1.869000 2.486785 0
M  V30 15 O 6.219108 2.991134 1.952022 0
M  V30 16 N 1.810310 1.943365 2.803975 0
M  V30 17 N 1.084431 0.825319 2.795806 0
M  V30 18 N -1.286211 -0.746189 1.511408 0
M  V30 19 C -1.821748 -1.929533 1.138062 0
M  V30 20 C -3.226992 -2.270692 1.321895 0
M  V30 21 C -4.023096 -1.421716 0.542116 0
M  V30 22 C -5.412313 -1.535239 0.536424 0
M  V30 23 C -6.015590 -2.502153 1.313545 0
M  V30 24 F -7.362891 -2.642113 1.333313 0
M  V30 25 C -5.216457 -3.328865 2.074748 0
M  V30 26 C -3.840772 -3.233751 2.095138 0
M  V30 27 C -0.765372 -2.632638 0.596604 0
M  V30 28 C -0.873839 -3.982817 0.053570 0
M  V30 29 C -1.168574 -5.185313 0.659633 0
M  V30 30 C -1.206281 -6.326583 -0.116255 0
M  V30 31 N -0.964797 -6.298051 -1.439245 0
M  V30 32 C -0.669025 -5.130617 -2.080837 0
M  V30 33 C -0.626023 -3.978152 -1.324915 0
M  V30 34 H 2.012047 -1.532526 -0.619510 0
M  V30 35 H 2.450323 -2.079989 1.020667 0
M  V30 36 H 1.792012 -3.280275 -0.112768 0
M  V30 37 H 1.302583 1.282189 -0.351845 0
M  V30 38 H 0.891898 4.028113 -0.116858 0
M  V30 39 H 1.859944 5.825069 -1.389600 0
M  V30 40 H 4.337408 6.234524 -1.168344 0
M  V30 41 H 5.714552 4.811552 0.325827 0
M  V30 42 H 6.714651 2.904106 2.836419 0
M  V30 43 H -3.695645 -0.618079 -0.116607 0
M  V30 44 H -6.075094 -0.920284 -0.034607 0
M  V30 45 H -5.626356 -4.104018 2.703290 0
M  V30 46 H -3.133097 -3.810089 2.639174 0
M  V30 47 H -1.336264 -5.071293 1.704420 0
M  V30 48 H -1.445936 -7.229587 0.441045 0
M  V30 49 H -0.483588 -5.165628 -3.146134 0
M  V30 50 H -0.379384 -3.096391 -1.938488 0
M  V30 END ATOM
M  V30 BEGIN BOND
M  V30 1 1 1 2
M  V30 2 1 2 3
M  V30 3 1 3 4
M  V30 4 2 4 5
M  V30 5 1 5 6
M  V30 6 1 6 7
M  V30 7 2 7 8
M  V30 8 1 8 9
M  V30 9 2 9 10
M  V30 10 1 10 11
M  V30 11 2 11 12
M  V30 12 1 12 13
M  V30 13 2 13 14
M  V30 14 1 13 15
M  V30 15 1 6 16
M  V30 16 2 16 17
M  V30 17 2 3 18
M  V30 18 1 18 19
M  V30 19 1 19 20
M  V30 20 2 20 21
M  V30 21 1 21 22
M  V30 22 2 22 23
M  V30 23 1 23 24
M  V30 24 1 23 25
M  V30 25 2 25 26
M  V30 26 2 19 27
M  V30 27 1 27 28
M  V30 28 2 28 29
M  V30 29 1 29 30
M  V30 30 2 30 31
M  V30 31 1 31 32
M  V30 32 2 32 33
M  V30 33 1 27 2
M  V30 34 1 33 28
M  V30 35 1 17 4
M  V30 36 1 26 20
M  V30 37 1 12 7
M  V30 38 1 1 34
M  V30 39 1 1 35
M  V30 40 1 1 36
M  V30 41 1 5 37
M  V30 42 1 8 38
M  V30 43 1 9 39
M  V30 44 1 10 40
M  V30 45 1 11 41
M  V30 46 1 15 42
M  V30 47 1 21 43
M  V30 48 1 22 44
M  V30 49 1 25 45
M  V30 50 1 26 46
M  V30 51 1 29 47
M  V30 52 1 30 48
M  V30 53 1 32 49
M  V30 54 1 33 50
M  V30 END BOND
M  V30 END CTAB
M  END
>  <Dataset>  (674) 
ChEMBL_Kinases

>  <Ligand_Instance>  (674) 
nan

>  <PDB_ID>  (674) 
nan

>  <Standardized_SMILES>  (674) 
Cn1c(-c2cn(-c3ccccc3C(=O)O)nn2)nc(-c2ccc(F)cc2)c1-c1ccncc1

>  <Name>  (674) 
nan

>  <Pocket>  (674) 
nan

>  <ATP_Site>  (674) 
nan

>  <Peripheral>  (674) 
nan

>  <Num_H_Atoms_ProtBoundConf>  (674) 
nan

>  <Num_Resolved_Atoms>  (674) 
nan

>  <Num_Not_Resolved_Atoms>  (674) 
nan

$$$$
CHEMBL3209866
     RDKit          3D

  0  0  0  0  0  0  0  0  0  0999 V3000
M  V30 BEGIN CTAB
M  V30 COUNTS 64 68 0 0 0
M  V30 BEGIN ATOM
M  V30 1 C 4.412532 0.895585 5.679413 0
M  V30 2 O 3.141212 1.473088 5.351732 0
M  V30 3 C 2.563250 1.119599 4.138657 0
M  V30 4 C 3.081305 0.260005 3.193834 0
M  V30 5 C 2.361667 0.019181 2.027706 0
M  V30 6 C 1.123281 0.629515 1.791099 0
M  V30 7 N 0.645695 0.218748 0.532077 0
M  V30 8 C -0.101728 -0.800113 0.401472 0
M  V30 9 C -0.670151 -1.346273 -0.826307 0
M  V30 10 N -0.448102 -0.800259 -1.971028 0
M  V30 11 C 0.348349 0.356678 -2.163216 0
M  V30 12 C -0.448125 1.492637 -2.308185 0
M  V30 13 C 0.120940 2.750977 -2.509021 0
M  V30 14 C 1.495607 2.857107 -2.562750 0
M  V30 15 O 2.195254 4.040219 -2.756149 0
M  V30 16 C 1.503781 5.281777 -2.919563 0
M  V30 17 C 2.258889 1.721356 -2.416886 0
M  V30 18 C 1.708312 0.468124 -2.217315 0
M  V30 19 N -1.431303 -2.488957 -0.461971 0
M  V30 20 C -2.107163 -3.231316 -1.469476 0
M  V30 21 C -3.400459 -2.826458 -1.747705 0
M  V30 22 C -4.118026 -3.501500 -2.715133 0
M  V30 23 C -3.533019 -4.573718 -3.392766 0
M  V30 24 O -4.201917 -5.279047 -4.363325 0
M  V30 25 C -5.526694 -4.935064 -4.712233 0
M  V30 26 C -2.230824 -4.953520 -3.087460 0
M  V30 27 C -1.479526 -4.290417 -2.114029 0
M  V30 28 C -1.342009 -2.656699 0.970664 0
M  V30 29 S -2.156026 -3.932076 1.618993 0
M  V30 30 N -0.511113 -1.596999 1.492416 0
M  V30 31 C -0.368135 -1.658569 2.896871 0
M  V30 32 C -1.331393 -1.012681 3.685566 0
M  V30 33 C -1.387224 -0.962307 5.041088 0
M  V30 34 C -0.394434 -1.613147 5.731774 0
M  V30 35 C 0.595296 -2.275659 5.037547 0
M  V30 36 C 0.610842 -2.299519 3.664703 0
M  V30 37 C 0.649879 1.468861 2.747488 0
M  V30 38 C 1.345280 1.722096 3.909794 0
M  V30 39 H 4.686983 1.088864 6.724464 0
M  V30 40 H 5.193894 1.180382 4.942689 0
M  V30 41 H 4.326795 -0.225809 5.599038 0
M  V30 42 H 4.036578 -0.175975 3.436499 0
M  V30 43 H 2.910682 -0.685135 1.383381 0
M  V30 44 H -1.528306 1.530023 -2.283723 0
M  V30 45 H -0.460657 3.655253 -2.625886 0
M  V30 46 H 0.647018 5.323163 -2.201377 0
M  V30 47 H 1.079414 5.408427 -3.925991 0
M  V30 48 H 2.159177 6.136413 -2.663436 0
M  V30 49 H 3.341249 1.754737 -2.451821 0
M  V30 50 H 2.220196 -0.454107 -2.095885 0
M  V30 51 H -3.877274 -2.003018 -1.240996 0
M  V30 52 H -5.129461 -3.198210 -2.944773 0
M  V30 53 H -6.173371 -4.715645 -3.835514 0
M  V30 54 H -6.035417 -5.771618 -5.249444 0
M  V30 55 H -5.542134 -3.998428 -5.334889 0
M  V30 56 H -1.752722 -5.770803 -3.587944 0
M  V30 57 H -0.469910 -4.565867 -1.860140 0
M  V30 58 H -2.139740 -0.482406 3.158805 0
M  V30 59 H -2.176025 -0.434693 5.554316 0
M  V30 60 H -0.377145 -1.613953 6.806586 0
M  V30 61 H 1.398317 -2.802601 5.546104 0
M  V30 62 H 1.363039 -2.804035 3.036819 0
M  V30 63 H -0.325132 1.882387 2.445422 0
M  V30 64 H 0.860420 2.416016 4.603034 0
M  V30 END ATOM
M  V30 BEGIN BOND
M  V30 1 1 1 2
M  V30 2 1 2 3
M  V30 3 2 3 4
M  V30 4 1 4 5
M  V30 5 2 5 6
M  V30 6 1 6 7
M  V30 7 2 7 8
M  V30 8 1 8 9
M  V30 9 2 9 10
M  V30 10 1 10 11
M  V30 11 2 11 12
M  V30 12 1 12 13
M  V30 13 2 13 14
M  V30 14 1 14 15
M  V30 15 1 15 16
M  V30 16 1 14 17
M  V30 17 2 17 18
M  V30 18 1 9 19
M  V30 19 1 19 20
M  V30 20 2 20 21
M  V30 21 1 21 22
M  V30 22 2 22 23
M  V30 23 1 23 24
M  V30 24 1 24 25
M  V30 25 1 23 26
M  V30 26 2 26 27
M  V30 27 1 19 28
M  V30 28 2 28 29
M  V30 29 1 28 30
M  V30 30 1 30 31
M  V30 31 2 31 32
M  V30 32 1 32 33
M  V30 33 2 33 34
M  V30 34 1 34 35
M  V30 35 2 35 36
M  V30 36 1 6 37
M  V30 37 2 37 38
M  V30 38 1 38 3
M  V30 39 1 30 8
M  V30 40 1 36 31
M  V30 41 1 18 11
M  V30 42 1 27 20
M  V30 43 1 1 39
M  V30 44 1 1 40
M  V30 45 1 1 41
M  V30 46 1 4 42
M  V30 47 1 5 43
M  V30 48 1 12 44
M  V30 49 1 13 45
M  V30 50 1 16 46
M  V30 51 1 16 47
M  V30 52 1 16 48
M  V30 53 1 17 49
M  V30 54 1 18 50
M  V30 55 1 21 51
M  V30 56 1 22 52
M  V30 57 1 25 53
M  V30 58 1 25 54
M  V30 59 1 25 55
M  V30 60 1 26 56
M  V30 61 1 27 57
M  V30 62 1 32 58
M  V30 63 1 33 59
M  V30 64 1 34 60
M  V30 65 1 35 61
M  V30 66 1 36 62
M  V30 67 1 37 63
M  V30 68 1 38 64
M  V30 END BOND
M  V30 END CTAB
M  END
>  <Dataset>  (675) 
ChEMBL_Kinases

>  <Ligand_Instance>  (675) 
nan

>  <PDB_ID>  (675) 
nan

>  <Standardized_SMILES>  (675) 
COc1ccc(/N=C2C(=N\c3ccc(OC)cc3)/N(c3ccc(OC)cc3)C(=S)N/2c2ccccc2)cc1

>  <Name>  (675) 
nan

>  <Pocket>  (675) 
nan

>  <ATP_Site>  (675) 
nan

>  <Peripheral>  (675) 
nan

>  <Num_H_Atoms_ProtBoundConf>  (675) 
nan

>  <Num_Resolved_Atoms>  (675) 
nan

>  <Num_Not_Resolved_Atoms>  (675) 
nan

$$$$
CHEMBL3209805
     RDKit          3D

  0  0  0  0  0  0  0  0  0  0999 V3000
M  V30 BEGIN CTAB
M  V30 COUNTS 37 39 0 0 0
M  V30 BEGIN ATOM
M  V30 1 C -0.167459 0.184315 0.197491 0
M  V30 2 N 1.053930 -0.123117 -0.015476 0
M  V30 3 N 1.538426 -1.421724 -0.211223 0
M  V30 4 C 1.119316 -2.630541 0.411073 0
M  V30 5 N 0.263100 -2.370973 1.339673 0
M  V30 6 C -0.405225 -3.307750 2.207581 0
M  V30 7 C -0.929531 -4.516171 1.475080 0
M  V30 8 C 0.166342 -5.447700 1.024321 0
M  V30 9 C 0.638091 -4.946755 -0.324666 0
M  V30 10 C 1.685048 -3.891870 -0.065617 0
M  V30 11 C -0.611034 1.558854 0.394260 0
M  V30 12 C -1.893098 2.023119 0.631193 0
M  V30 13 N -1.893077 3.377828 0.759309 0
M  V30 14 C -0.612670 3.801994 0.606646 0
M  V30 15 C -0.053827 5.085000 0.643849 0
M  V30 16 C 1.324622 5.218074 0.448900 0
M  V30 17 C 2.142453 4.106897 0.220680 0
M  V30 18 C 1.530064 2.849284 0.193939 0
M  V30 19 C 0.176559 2.692691 0.382911 0
M  V30 20 H -0.897797 -0.613145 0.232044 0
M  V30 21 H 2.310742 -1.429390 -0.923811 0
M  V30 22 H -1.279887 -2.786032 2.648943 0
M  V30 23 H 0.210378 -3.670408 3.053108 0
M  V30 24 H -1.502795 -4.252243 0.569713 0
M  V30 25 H -1.583860 -5.071850 2.169747 0
M  V30 26 H 0.994989 -5.484762 1.759072 0
M  V30 27 H -0.257065 -6.462126 0.891737 0
M  V30 28 H -0.175646 -4.444917 -0.887911 0
M  V30 29 H 1.011013 -5.741845 -0.989569 0
M  V30 30 H 2.480445 -4.209927 0.633634 0
M  V30 31 H 2.203751 -3.718524 -1.050623 0
M  V30 32 H -2.721385 1.313997 0.688834 0
M  V30 33 H -2.743515 3.942042 0.940709 0
M  V30 34 H -0.663482 5.958518 0.818255 0
M  V30 35 H 1.770933 6.211588 0.475670 0
M  V30 36 H 3.201517 4.278421 0.077439 0
M  V30 37 H 2.167281 1.982725 0.016054 0
M  V30 END ATOM
M  V30 BEGIN BOND
M  V30 1 2 1 2
M  V30 2 1 2 3
M  V30 3 1 3 4
M  V30 4 2 4 5
M  V30 5 1 5 6
M  V30 6 1 6 7
M  V30 7 1 7 8
M  V30 8 1 8 9
M  V30 9 1 9 10
M  V30 10 1 1 11
M  V30 11 2 11 12
M  V30 12 1 12 13
M  V30 13 1 13 14
M  V30 14 2 14 15
M  V30 15 1 15 16
M  V30 16 2 16 17
M  V30 17 1 17 18
M  V30 18 2 18 19
M  V30 19 1 10 4
M  V30 20 1 19 11
M  V30 21 1 19 14
M  V30 22 1 1 20
M  V30 23 1 3 21
M  V30 24 1 6 22
M  V30 25 1 6 23
M  V30 26 1 7 24
M  V30 27 1 7 25
M  V30 28 1 8 26
M  V30 29 1 8 27
M  V30 30 1 9 28
M  V30 31 1 9 29
M  V30 32 1 10 30
M  V30 33 1 10 31
M  V30 34 1 12 32
M  V30 35 1 13 33
M  V30 36 1 15 34
M  V30 37 1 16 35
M  V30 38 1 17 36
M  V30 39 1 18 37
M  V30 END BOND
M  V30 END CTAB
M  END
>  <Dataset>  (676) 
ChEMBL_Kinases

>  <Ligand_Instance>  (676) 
nan

>  <PDB_ID>  (676) 
nan

>  <Standardized_SMILES>  (676) 
C(=N/NC1=NCCCCC1)\c1c[nH]c2ccccc12

>  <Name>  (676) 
nan

>  <Pocket>  (676) 
nan

>  <ATP_Site>  (676) 
nan

>  <Peripheral>  (676) 
nan

>  <Num_H_Atoms_ProtBoundConf>  (676) 
nan

>  <Num_Resolved_Atoms>  (676) 
nan

>  <Num_Not_Resolved_Atoms>  (676) 
nan

$$$$
CHEMBL3209792
     RDKit          3D

  0  0  0  0  0  0  0  0  0  0999 V3000
M  V30 BEGIN CTAB
M  V30 COUNTS 60 63 0 0 0
M  V30 BEGIN ATOM
M  V30 1 C 0.916548 -4.286426 3.347886 0
M  V30 2 C 0.724200 -3.410086 2.164762 0
M  V30 3 N 1.057496 -2.190365 2.150591 0
M  V30 4 N 1.639569 -1.439697 3.169785 0
M  V30 5 C 1.781770 -0.195241 2.503303 0
M  V30 6 C 3.079248 0.338538 2.559879 0
M  V30 7 C 3.278702 1.544878 1.923039 0
M  V30 8 C 2.326150 2.270122 1.240580 0
M  V30 9 S 2.663623 3.794278 0.460015 0
M  V30 10 O 4.117395 3.761377 0.080282 0
M  V30 11 O 1.885318 3.963936 -0.804680 0
M  V30 12 N 2.430688 5.124376 1.525230 0
M  V30 13 C 1.129895 5.292154 2.026208 0
M  V30 14 C 0.883169 5.534690 3.361286 0
M  V30 15 C -0.338516 5.708406 3.963632 0
M  V30 16 C -1.423306 5.627855 3.124189 0
M  V30 17 Cl -3.031442 5.836100 3.796421 0
M  V30 18 C -1.322609 5.388419 1.755462 0
M  V30 19 C -0.035148 5.226484 1.244615 0
M  V30 20 C 1.050804 1.756734 1.179274 0
M  V30 21 C 0.818084 0.549038 1.807150 0
M  V30 22 N -0.408812 -0.153301 1.854114 0 CHG=1 VAL=4
M  V30 23 O -1.647404 -0.169950 1.855393 0
M  V30 24 O -1.621117 0.538365 1.830802 0 CHG=-1 VAL=1
M  V30 25 C 0.129029 -3.901884 0.926519 0
M  V30 26 C -0.033369 -3.084090 -0.173285 0
M  V30 27 C -0.607020 -3.515789 -1.349698 0
M  V30 28 C -1.059030 -4.817557 -1.490730 0
M  V30 29 N -1.624311 -5.105331 -2.757053 0
M  V30 30 C -2.621220 -6.088142 -3.053800 0
M  V30 31 C -3.586159 -5.538157 -4.061839 0
M  V30 32 O -3.618211 -4.158818 -3.986694 0
M  V30 33 C -2.429908 -3.593879 -4.482192 0
M  V30 34 C -1.248272 -4.413683 -3.977989 0
M  V30 35 C -0.904975 -5.646356 -0.405893 0
M  V30 36 C -0.328118 -5.192352 0.759977 0
M  V30 37 H -0.001954 -4.900321 3.564298 0
M  V30 38 H 1.696949 -5.068748 3.127795 0
M  V30 39 H 1.139902 -3.703217 4.240383 0
M  V30 40 H 1.978971 -1.467347 4.167795 0
M  V30 41 H 3.942246 -0.105260 3.056153 0
M  V30 42 H 4.259722 2.014549 1.927047 0
M  V30 43 H 3.073411 5.881502 1.906261 0
M  V30 44 H 1.729617 5.604675 4.061394 0
M  V30 45 H -0.452926 5.897186 5.029116 0
M  V30 46 H -2.158749 5.321985 1.074061 0
M  V30 47 H 0.073322 5.039904 0.186031 0
M  V30 48 H 0.218746 2.213108 0.685694 0
M  V30 49 H 0.316484 -2.043018 -0.085987 0
M  V30 50 H -0.664453 -2.737937 -2.123710 0
M  V30 51 H -3.211278 -6.234788 -2.103669 0
M  V30 52 H -2.217869 -7.085748 -3.346574 0
M  V30 53 H -4.628298 -5.879817 -3.797356 0
M  V30 54 H -3.383589 -5.869707 -5.105134 0
M  V30 55 H -2.511207 -3.560496 -5.577225 0
M  V30 56 H -2.374235 -2.560173 -4.104915 0
M  V30 57 H -0.377405 -3.758582 -3.824481 0
M  V30 58 H -1.008686 -5.151015 -4.772579 0
M  V30 59 H -1.268457 -6.654212 -0.555934 0
M  V30 60 H -0.236330 -5.892133 1.569864 0
M  V30 END ATOM
M  V30 BEGIN BOND
M  V30 1 1 1 2
M  V30 2 2 2 3
M  V30 3 1 3 4
M  V30 4 1 4 5
M  V30 5 2 5 6
M  V30 6 1 6 7
M  V30 7 2 7 8
M  V30 8 1 8 9
M  V30 9 2 9 10
M  V30 10 2 9 11
M  V30 11 1 9 12
M  V30 12 1 12 13
M  V30 13 2 13 14
M  V30 14 1 14 15
M  V30 15 2 15 16
M  V30 16 1 16 17
M  V30 17 1 16 18
M  V30 18 2 18 19
M  V30 19 1 8 20
M  V30 20 2 20 21
M  V30 21 1 21 22
M  V30 22 2 22 23
M  V30 23 1 22 24
M  V30 24 1 2 25
M  V30 25 2 25 26
M  V30 26 1 26 27
M  V30 27 2 27 28
M  V30 28 1 28 29
M  V30 29 1 29 30
M  V30 30 1 30 31
M  V30 31 1 31 32
M  V30 32 1 32 33
M  V30 33 1 33 34
M  V30 34 1 28 35
M  V30 35 2 35 36
M  V30 36 1 21 5
M  V30 37 1 36 25
M  V30 38 1 19 13
M  V30 39 1 34 29
M  V30 40 1 1 37
M  V30 41 1 1 38
M  V30 42 1 1 39
M  V30 43 1 4 40
M  V30 44 1 6 41
M  V30 45 1 7 42
M  V30 46 1 12 43
M  V30 47 1 14 44
M  V30 48 1 15 45
M  V30 49 1 18 46
M  V30 50 1 19 47
M  V30 51 1 20 48
M  V30 52 1 26 49
M  V30 53 1 27 50
M  V30 54 1 30 51
M  V30 55 1 30 52
M  V30 56 1 31 53
M  V30 57 1 31 54
M  V30 58 1 33 55
M  V30 59 1 33 56
M  V30 60 1 34 57
M  V30 61 1 34 58
M  V30 62 1 35 59
M  V30 63 1 36 60
M  V30 END BOND
M  V30 END CTAB
M  END
>  <Dataset>  (677) 
ChEMBL_Kinases

>  <Ligand_Instance>  (677) 
nan

>  <PDB_ID>  (677) 
nan

>  <Standardized_SMILES>  (677) 
C/C(=N\Nc1ccc(S(=O)(=O)Nc2ccc(Cl)cc2)cc1[N+](=O)[O-])c1ccc(N2CCOCC2)cc1

>  <Name>  (677) 
nan

>  <Pocket>  (677) 
nan

>  <ATP_Site>  (677) 
nan

>  <Peripheral>  (677) 
nan

>  <Num_H_Atoms_ProtBoundConf>  (677) 
nan

>  <Num_Resolved_Atoms>  (677) 
nan

>  <Num_Not_Resolved_Atoms>  (677) 
nan

$$$$
CHEMBL3209559
     RDKit          3D

  0  0  0  0  0  0  0  0  0  0999 V3000
M  V30 BEGIN CTAB
M  V30 COUNTS 43 44 0 0 0
M  V30 BEGIN ATOM
M  V30 1 C -0.443876 -6.346159 -0.310997 0
M  V30 2 C 0.545463 -6.265483 0.814729 0
M  V30 3 O 1.761463 -5.653191 0.490231 0
M  V30 4 C 1.955637 -4.375329 0.061816 0
M  V30 5 C 0.839659 -3.582224 -0.066759 0
M  V30 6 C 1.072260 -2.274308 -0.508258 0
M  V30 7 C 2.321695 -1.741070 -0.816073 0
M  V30 8 N 2.360390 -0.367950 -1.261555 0
M  V30 9 N 1.794315 0.352379 -0.219996 0
M  V30 10 C 0.789310 1.116602 -0.389120 0
M  V30 11 C 0.153200 1.305424 -1.666087 0
M  V30 12 C -0.963781 2.060807 -2.261297 0
M  V30 13 O 0.770595 0.595094 -2.480755 0
M  V30 14 C 0.588957 1.593645 0.955040 0
M  V30 15 S -0.714924 2.579397 0.631434 0
M  V30 16 N 0.379553 2.065965 2.241591 0
M  V30 17 C -0.225371 2.839013 3.255900 0
M  V30 18 C -1.423141 2.292727 3.651325 0
M  V30 19 C -2.148334 2.962302 4.627837 0
M  V30 20 C -1.592198 4.132873 5.119629 0
M  V30 21 C -0.382535 4.613695 4.670756 0
M  V30 22 C 0.369667 3.987926 3.707674 0
M  V30 23 C 3.425088 -2.589839 -0.669140 0
M  V30 24 C 3.199708 -3.903182 -0.227122 0
M  V30 25 H -0.730655 -7.436439 -0.380553 0
M  V30 26 H -1.391379 -5.814769 -0.150993 0
M  V30 27 H 0.017587 -5.973664 -1.237522 0
M  V30 28 H 0.783163 -7.265066 1.260841 0
M  V30 29 H 0.124884 -5.689684 1.695224 0
M  V30 30 H -0.193507 -3.824933 0.132219 0
M  V30 31 H 0.222990 -1.612347 -0.625149 0
M  V30 32 H 2.799799 -0.478868 -2.196964 0
M  V30 33 H -1.913853 1.476579 -2.221920 0
M  V30 34 H -1.123822 3.072079 -1.801575 0
M  V30 35 H -0.773542 2.292613 -3.339149 0
M  V30 36 H 1.108258 1.501422 2.769943 0
M  V30 37 H -1.876512 1.396418 3.293994 0
M  V30 38 H -3.097971 2.649656 5.030880 0
M  V30 39 H -2.137551 4.666076 5.870347 0
M  V30 40 H -0.058753 5.542908 5.136600 0
M  V30 41 H 1.311911 4.362911 3.357685 0
M  V30 42 H 4.370990 -2.139948 -0.917617 0
M  V30 43 H 4.100128 -4.503437 -0.138303 0
M  V30 END ATOM
M  V30 BEGIN BOND
M  V30 1 1 1 2
M  V30 2 1 2 3
M  V30 3 1 3 4
M  V30 4 2 4 5
M  V30 5 1 5 6
M  V30 6 2 6 7
M  V30 7 1 7 8
M  V30 8 1 8 9
M  V30 9 2 9 10
M  V30 10 1 10 11
M  V30 11 1 11 12
M  V30 12 2 11 13
M  V30 13 1 10 14
M  V30 14 2 14 15
M  V30 15 1 14 16
M  V30 16 1 16 17
M  V30 17 2 17 18
M  V30 18 1 18 19
M  V30 19 2 19 20
M  V30 20 1 20 21
M  V30 21 2 21 22
M  V30 22 1 7 23
M  V30 23 2 23 24
M  V30 24 1 24 4
M  V30 25 1 22 17
M  V30 26 1 1 25
M  V30 27 1 1 26
M  V30 28 1 1 27
M  V30 29 1 2 28
M  V30 30 1 2 29
M  V30 31 1 5 30
M  V30 32 1 6 31
M  V30 33 1 8 32
M  V30 34 1 12 33
M  V30 35 1 12 34
M  V30 36 1 12 35
M  V30 37 1 16 36
M  V30 38 1 18 37
M  V30 39 1 19 38
M  V30 40 1 20 39
M  V30 41 1 21 40
M  V30 42 1 22 41
M  V30 43 1 23 42
M  V30 44 1 24 43
M  V30 END BOND
M  V30 END CTAB
M  END
>  <Dataset>  (678) 
ChEMBL_Kinases

>  <Ligand_Instance>  (678) 
nan

>  <PDB_ID>  (678) 
nan

>  <Standardized_SMILES>  (678) 
CCOc1ccc(N/N=C(\C(C)=O)C(=S)Nc2ccccc2)cc1

>  <Name>  (678) 
nan

>  <Pocket>  (678) 
nan

>  <ATP_Site>  (678) 
nan

>  <Peripheral>  (678) 
nan

>  <Num_H_Atoms_ProtBoundConf>  (678) 
nan

>  <Num_Resolved_Atoms>  (678) 
nan

>  <Num_Not_Resolved_Atoms>  (678) 
nan

$$$$
CHEMBL3209429
     RDKit          3D

  0  0  0  0  0  0  0  0  0  0999 V3000
M  V30 BEGIN CTAB
M  V30 COUNTS 38 38 0 0 0
M  V30 BEGIN ATOM
M  V30 1 C -1.913636 -2.605340 0.604732 0
M  V30 2 O -1.403704 -2.689227 1.871206 0
M  V30 3 C -0.997072 -3.925511 2.290749 0
M  V30 4 C 0.127914 -4.539557 1.533840 0
M  V30 5 C 1.422612 -3.785346 1.575741 0
M  V30 6 N 1.221596 -2.469465 1.027242 0
M  V30 7 C 1.090389 -1.457738 1.826734 0
M  V30 8 C 0.890300 -0.158879 1.197794 0
M  V30 9 C 0.848438 -0.043044 -0.114483 0
M  V30 10 O 0.998184 -1.181602 -0.904762 0
M  V30 11 C 0.653248 1.199194 -0.915963 0
M  V30 12 C 0.394597 2.416700 -0.100745 0
M  V30 13 C -0.771260 3.175512 -0.747112 0
M  V30 14 C 1.639049 3.301345 -0.166130 0
M  V30 15 C 0.002436 2.173363 1.322273 0
M  V30 16 C 0.728160 1.063824 1.976941 0
M  V30 17 O 1.216854 1.094902 3.156577 0
M  V30 18 H -1.205936 -2.924860 -0.150329 0
M  V30 19 H -2.861504 -3.173380 0.474232 0
M  V30 20 H -2.134378 -1.524896 0.380481 0
M  V30 21 H -0.700394 -3.799870 3.374800 0
M  V30 22 H -1.863346 -4.644987 2.310014 0
M  V30 23 H -0.180563 -4.575936 0.450911 0
M  V30 24 H 0.301055 -5.601095 1.801153 0
M  V30 25 H 1.876298 -3.767584 2.585443 0
M  V30 26 H 2.112537 -4.314261 0.867720 0
M  V30 27 H 1.121613 -1.532232 2.895758 0
M  V30 28 H 1.883287 -1.559709 -1.177034 0
M  V30 29 H -0.201861 0.989464 -1.615458 0
M  V30 30 H 1.532996 1.327597 -1.562210 0
M  V30 31 H -1.407891 2.495594 -1.364433 0
M  V30 32 H -1.468848 3.590663 0.024132 0
M  V30 33 H -0.409554 3.998620 -1.399826 0
M  V30 34 H 1.728670 3.829485 0.787700 0
M  V30 35 H 1.535113 3.997054 -1.041863 0
M  V30 36 H 2.564528 2.682974 -0.290004 0
M  V30 37 H -1.100989 1.991993 1.400477 0
M  V30 38 H 0.205781 3.125101 1.895884 0
M  V30 END ATOM
M  V30 BEGIN BOND
M  V30 1 1 1 2
M  V30 2 1 2 3
M  V30 3 1 3 4
M  V30 4 1 4 5
M  V30 5 1 5 6
M  V30 6 2 6 7
M  V30 7 1 7 8
M  V30 8 2 8 9
M  V30 9 1 9 10
M  V30 10 1 9 11
M  V30 11 1 11 12
M  V30 12 1 12 13
M  V30 13 1 12 14
M  V30 14 1 12 15
M  V30 15 1 15 16
M  V30 16 2 16 17
M  V30 17 1 16 8
M  V30 18 1 1 18
M  V30 19 1 1 19
M  V30 20 1 1 20
M  V30 21 1 3 21
M  V30 22 1 3 22
M  V30 23 1 4 23
M  V30 24 1 4 24
M  V30 25 1 5 25
M  V30 26 1 5 26
M  V30 27 1 7 27
M  V30 28 1 10 28
M  V30 29 1 11 29
M  V30 30 1 11 30
M  V30 31 1 13 31
M  V30 32 1 13 32
M  V30 33 1 13 33
M  V30 34 1 14 34
M  V30 35 1 14 35
M  V30 36 1 14 36
M  V30 37 1 15 37
M  V30 38 1 15 38
M  V30 END BOND
M  V30 END CTAB
M  END
>  <Dataset>  (679) 
ChEMBL_Kinases

>  <Ligand_Instance>  (679) 
nan

>  <PDB_ID>  (679) 
nan

>  <Standardized_SMILES>  (679) 
COCCC/N=C/C1=C(O)CC(C)(C)CC1=O

>  <Name>  (679) 
nan

>  <Pocket>  (679) 
nan

>  <ATP_Site>  (679) 
nan

>  <Peripheral>  (679) 
nan

>  <Num_H_Atoms_ProtBoundConf>  (679) 
nan

>  <Num_Resolved_Atoms>  (679) 
nan

>  <Num_Not_Resolved_Atoms>  (679) 
nan

$$$$
CHEMBL3209422
     RDKit          3D

  0  0  0  0  0  0  0  0  0  0999 V3000
M  V30 BEGIN CTAB
M  V30 COUNTS 35 36 0 0 0
M  V30 BEGIN ATOM
M  V30 1 C -1.219497 -1.857323 5.671335 0
M  V30 2 C 0.178489 -1.308837 5.469065 0
M  V30 3 C 0.311473 -0.678391 4.144867 0
M  V30 4 C 0.659494 -1.037870 2.900678 0
M  V30 5 C 0.660488 -0.134531 1.897649 0
M  V30 6 C 1.041624 -0.539856 0.548290 0
M  V30 7 N 1.062605 0.257706 -0.432129 0
M  V30 8 C 1.417032 -0.037848 -1.776844 0
M  V30 9 C 0.965196 -1.380380 -2.283653 0
M  V30 10 C -0.514840 -1.537757 -2.156068 0
M  V30 11 C -1.271941 -0.259896 -1.961484 0
M  V30 12 C -0.707190 0.899231 -2.704644 0
M  V30 13 C 0.788235 0.978592 -2.740465 0
M  V30 14 C 0.294909 1.152360 2.199704 0
M  V30 15 O 0.241772 2.243008 1.244968 0
M  V30 16 S -0.080939 1.124096 4.003701 0
M  V30 17 H -1.909191 -1.079126 6.067543 0
M  V30 18 H -1.622956 -2.230810 4.717171 0
M  V30 19 H -1.213676 -2.707813 6.374748 0
M  V30 20 H 0.943276 -2.111879 5.591672 0
M  V30 21 H 0.394787 -0.575215 6.271833 0
M  V30 22 H 0.913991 -2.088333 2.861223 0
M  V30 23 H 1.337088 -1.528457 0.247815 0
M  V30 24 H 2.508255 0.083294 -1.912064 0
M  V30 25 H 1.239344 -1.398342 -3.367572 0
M  V30 26 H 1.529225 -2.214768 -1.822344 0
M  V30 27 H -0.901444 -2.043769 -3.077223 0
M  V30 28 H -0.690251 -2.253750 -1.331221 0
M  V30 29 H -1.415935 0.025853 -0.903224 0
M  V30 30 H -2.316636 -0.435819 -2.345509 0
M  V30 31 H -1.126319 0.891978 -3.739937 0
M  V30 32 H -1.079175 1.836071 -2.204486 0
M  V30 33 H 1.121102 0.635388 -3.762638 0
M  V30 34 H 1.200152 1.969286 -2.536426 0
M  V30 35 H 1.155619 2.472451 0.874959 0
M  V30 END ATOM
M  V30 BEGIN BOND
M  V30 1 1 1 2
M  V30 2 1 2 3
M  V30 3 2 3 4
M  V30 4 1 4 5
M  V30 5 1 5 6
M  V30 6 2 6 7
M  V30 7 1 7 8
M  V30 8 1 8 9
M  V30 9 1 9 10
M  V30 10 1 10 11
M  V30 11 1 11 12
M  V30 12 1 12 13
M  V30 13 2 5 14
M  V30 14 1 14 15
M  V30 15 1 14 16
M  V30 16 1 16 3
M  V30 17 1 13 8
M  V30 18 1 1 17
M  V30 19 1 1 18
M  V30 20 1 1 19
M  V30 21 1 2 20
M  V30 22 1 2 21
M  V30 23 1 4 22
M  V30 24 1 6 23
M  V30 25 1 8 24
M  V30 26 1 9 25
M  V30 27 1 9 26
M  V30 28 1 10 27
M  V30 29 1 10 28
M  V30 30 1 11 29
M  V30 31 1 11 30
M  V30 32 1 12 31
M  V30 33 1 12 32
M  V30 34 1 13 33
M  V30 35 1 13 34
M  V30 36 1 15 35
M  V30 END BOND
M  V30 END CTAB
M  END
>  <Dataset>  (680) 
ChEMBL_Kinases

>  <Ligand_Instance>  (680) 
nan

>  <PDB_ID>  (680) 
nan

>  <Standardized_SMILES>  (680) 
CCc1cc(/C=N/C2CCCCC2)c(O)s1

>  <Name>  (680) 
nan

>  <Pocket>  (680) 
nan

>  <ATP_Site>  (680) 
nan

>  <Peripheral>  (680) 
nan

>  <Num_H_Atoms_ProtBoundConf>  (680) 
nan

>  <Num_Resolved_Atoms>  (680) 
nan

>  <Num_Not_Resolved_Atoms>  (680) 
nan

$$$$
CHEMBL3208787
     RDKit          3D

  0  0  0  0  0  0  0  0  0  0999 V3000
M  V30 BEGIN CTAB
M  V30 COUNTS 44 47 0 0 0
M  V30 BEGIN ATOM
M  V30 1 C 1.267075 -5.674314 3.936695 0
M  V30 2 O 1.321177 -4.510666 3.142119 0
M  V30 3 C 1.860448 -3.309769 3.541125 0
M  V30 4 O 2.372885 -3.129623 4.689150 0
M  V30 5 C 1.822832 -2.220614 2.574855 0
M  V30 6 C 2.324739 -0.962376 2.833714 0
M  V30 7 C 2.332049 0.123020 1.984207 0
M  V30 8 O 2.865682 1.163143 2.493185 0
M  V30 9 N 1.877013 0.262588 0.726456 0
M  V30 10 C 1.997112 1.522884 0.022933 0
M  V30 11 C 0.804636 2.366913 0.256973 0
M  V30 12 C -0.327842 2.332550 -0.561765 0
M  V30 13 C -1.452545 3.097736 -0.383038 0
M  V30 14 C -1.513888 3.972900 0.660491 0
M  V30 15 C -0.434228 4.058424 1.505913 0
M  V30 16 C 0.659350 3.277805 1.286737 0
M  V30 17 O -0.779685 5.017092 2.458213 0
M  V30 18 C -2.158883 5.282446 2.411170 0
M  V30 19 O -2.484962 4.859242 1.094958 0
M  V30 20 C 1.299350 -0.832369 0.144679 0
M  V30 21 N 0.849019 -0.769975 -1.062994 0
M  V30 22 C 0.257531 -1.937834 -1.620255 0
M  V30 23 C 1.014142 -3.000284 -2.114034 0
M  V30 24 C 0.383237 -4.111518 -2.644943 0
M  V30 25 C -1.010291 -4.209520 -2.705368 0
M  V30 26 C -1.765206 -3.175254 -2.224875 0
M  V30 27 C -1.131458 -2.059277 -1.691697 0
M  V30 28 S 1.156113 -2.334196 0.984555 0
M  V30 29 H 0.196372 -5.884726 4.147708 0
M  V30 30 H 1.776079 -5.528664 4.920927 0
M  V30 31 H 1.677547 -6.578529 3.452333 0
M  V30 32 H 2.751904 -0.883821 3.847549 0
M  V30 33 H 2.928156 2.050539 0.329075 0
M  V30 34 H 2.096621 1.349420 -1.073018 0
M  V30 35 H -0.371343 1.676027 -1.414952 0
M  V30 36 H -2.306355 3.040801 -1.038509 0
M  V30 37 H 1.453129 3.412658 1.988724 0
M  V30 38 H -2.718679 4.615877 3.125223 0
M  V30 39 H -2.439880 6.320307 2.619269 0
M  V30 40 H 2.090041 -2.935887 -2.072700 0
M  V30 41 H 0.952834 -4.957961 -3.038667 0
M  V30 42 H -1.540079 -5.043445 -3.104359 0
M  V30 43 H -2.830695 -3.184141 -2.239898 0
M  V30 44 H -1.723166 -1.238430 -1.310276 0
M  V30 END ATOM
M  V30 BEGIN BOND
M  V30 1 1 1 2
M  V30 2 1 2 3
M  V30 3 2 3 4
M  V30 4 1 3 5
M  V30 5 2 5 6
M  V30 6 1 6 7
M  V30 7 2 7 8
M  V30 8 1 7 9
M  V30 9 1 9 10
M  V30 10 1 10 11
M  V30 11 2 11 12
M  V30 12 1 12 13
M  V30 13 2 13 14
M  V30 14 1 14 15
M  V30 15 2 15 16
M  V30 16 1 15 17
M  V30 17 1 17 18
M  V30 18 1 18 19
M  V30 19 1 9 20
M  V30 20 2 20 21
M  V30 21 1 21 22
M  V30 22 2 22 23
M  V30 23 1 23 24
M  V30 24 2 24 25
M  V30 25 1 25 26
M  V30 26 2 26 27
M  V30 27 1 20 28
M  V30 28 1 28 5
M  V30 29 1 16 11
M  V30 30 1 27 22
M  V30 31 1 19 14
M  V30 32 1 1 29
M  V30 33 1 1 30
M  V30 34 1 1 31
M  V30 35 1 6 32
M  V30 36 1 10 33
M  V30 37 1 10 34
M  V30 38 1 12 35
M  V30 39 1 13 36
M  V30 40 1 16 37
M  V30 41 1 18 38
M  V30 42 1 18 39
M  V30 43 1 23 40
M  V30 44 1 24 41
M  V30 45 1 25 42
M  V30 46 1 26 43
M  V30 47 1 27 44
M  V30 END BOND
M  V30 END CTAB
M  END
>  <Dataset>  (681) 
ChEMBL_Kinases

>  <Ligand_Instance>  (681) 
nan

>  <PDB_ID>  (681) 
nan

>  <Standardized_SMILES>  (681) 
COC(=O)c1cc(=O)n(Cc2ccc3c(c2)OCO3)/c(=N/c2ccccc2)s1

>  <Name>  (681) 
nan

>  <Pocket>  (681) 
nan

>  <ATP_Site>  (681) 
nan

>  <Peripheral>  (681) 
nan

>  <Num_H_Atoms_ProtBoundConf>  (681) 
nan

>  <Num_Resolved_Atoms>  (681) 
nan

>  <Num_Not_Resolved_Atoms>  (681) 
nan

$$$$
CHEMBL3208748
     RDKit          3D

  0  0  0  0  0  0  0  0  0  0999 V3000
M  V30 BEGIN CTAB
M  V30 COUNTS 35 36 0 0 0
M  V30 BEGIN ATOM
M  V30 1 C 0.883467 -1.444369 4.067552 0
M  V30 2 C 1.011698 -2.353997 2.920366 0
M  V30 3 N 1.008167 -3.694737 2.957408 0
M  V30 4 N 1.147756 -4.172996 1.713565 0
M  V30 5 C 1.187435 -5.582813 1.352422 0
M  V30 6 C 1.243941 -3.122952 0.851173 0
M  V30 7 C 1.158854 -1.971712 1.604073 0
M  V30 8 C 1.209526 -0.589100 1.145124 0
M  V30 9 N 1.350028 -0.256027 -0.101841 0
M  V30 10 N 1.395122 1.076811 -0.516113 0
M  V30 11 C 1.864284 2.414975 -0.443863 0
M  V30 12 O 2.710352 2.815472 0.392781 0
M  V30 13 C 1.253363 3.327132 -1.467792 0
M  V30 14 S -0.346305 3.942457 -0.808360 0
M  V30 15 C -1.433780 2.507015 -0.691428 0
M  V30 16 C -2.263548 2.081664 -1.702846 0
M  V30 17 C -3.064431 0.969709 -1.541985 0
M  V30 18 C -3.037551 0.274179 -0.360147 0
M  V30 19 C -2.196271 0.727336 0.630858 0
M  V30 20 N -1.397367 1.825473 0.488545 0
M  V30 21 H 1.797997 -1.451037 4.683694 0
M  V30 22 H -0.015337 -1.722736 4.688816 0
M  V30 23 H 0.709206 -0.395137 3.729423 0
M  V30 24 H 0.512701 -5.711064 0.458189 0
M  V30 25 H 0.641414 -6.143510 2.160389 0
M  V30 26 H 2.192857 -5.956453 1.172917 0
M  V30 27 H 1.363211 -3.133816 -0.214499 0
M  V30 28 H 1.131045 0.233461 1.835303 0
M  V30 29 H 0.678363 0.745322 -1.225693 0
M  V30 30 H 1.014085 2.802773 -2.411835 0
M  V30 31 H 1.930395 4.140457 -1.724458 0
M  V30 32 H -2.257280 2.650807 -2.612937 0
M  V30 33 H -3.683019 0.700148 -2.372047 0
M  V30 34 H -3.646128 -0.591032 -0.204730 0
M  V30 35 H -2.160085 0.186845 1.577268 0
M  V30 END ATOM
M  V30 BEGIN BOND
M  V30 1 1 1 2
M  V30 2 2 2 3
M  V30 3 1 3 4
M  V30 4 1 4 5
M  V30 5 1 4 6
M  V30 6 2 6 7
M  V30 7 1 7 8
M  V30 8 2 8 9
M  V30 9 1 9 10
M  V30 10 1 10 11
M  V30 11 2 11 12
M  V30 12 1 11 13
M  V30 13 1 13 14
M  V30 14 1 14 15
M  V30 15 2 15 16
M  V30 16 1 16 17
M  V30 17 2 17 18
M  V30 18 1 18 19
M  V30 19 2 19 20
M  V30 20 1 7 2
M  V30 21 1 20 15
M  V30 22 1 1 21
M  V30 23 1 1 22
M  V30 24 1 1 23
M  V30 25 1 5 24
M  V30 26 1 5 25
M  V30 27 1 5 26
M  V30 28 1 6 27
M  V30 29 1 8 28
M  V30 30 1 10 29
M  V30 31 1 13 30
M  V30 32 1 13 31
M  V30 33 1 16 32
M  V30 34 1 17 33
M  V30 35 1 18 34
M  V30 36 1 19 35
M  V30 END BOND
M  V30 END CTAB
M  END
>  <Dataset>  (682) 
ChEMBL_Kinases

>  <Ligand_Instance>  (682) 
nan

>  <PDB_ID>  (682) 
nan

>  <Standardized_SMILES>  (682) 
Cc1nn(C)cc1/C=N/NC(=O)CSc1ccccn1

>  <Name>  (682) 
nan

>  <Pocket>  (682) 
nan

>  <ATP_Site>  (682) 
nan

>  <Peripheral>  (682) 
nan

>  <Num_H_Atoms_ProtBoundConf>  (682) 
nan

>  <Num_Resolved_Atoms>  (682) 
nan

>  <Num_Not_Resolved_Atoms>  (682) 
nan

$$$$
CHEMBL3208727
     RDKit          3D

  0  0  0  0  0  0  0  0  0  0999 V3000
M  V30 BEGIN CTAB
M  V30 COUNTS 31 32 0 0 0
M  V30 BEGIN ATOM
M  V30 1 O -0.971679 -2.478679 0.866606 0
M  V30 2 C 0.305062 -2.592461 0.831819 0
M  V30 3 C 1.279394 -3.704795 0.533468 0
M  V30 4 C 2.570951 -3.042352 0.205085 0
M  V30 5 N 3.446228 -3.085338 1.260322 0
M  V30 6 N 4.654257 -2.506101 1.106017 0
M  V30 7 C 4.925369 -1.913470 -0.094361 0
M  V30 8 O 6.161757 -1.306869 -0.292284 0
M  V30 9 N 4.064531 -1.871232 -1.128823 0
M  V30 10 C 2.833909 -2.448589 -1.005915 0
M  V30 11 O 1.805488 -2.530155 -1.910065 0
M  V30 12 N 0.808916 -1.281620 1.177094 0
M  V30 13 N -0.292459 -0.454157 1.408525 0
M  V30 14 C -0.982699 0.175800 0.565955 0
M  V30 15 C -2.112759 0.992820 1.068320 0
M  V30 16 C -2.327756 0.994688 2.429137 0
M  V30 17 C -3.381042 1.773747 2.895856 0
M  V30 18 C -4.164855 2.507595 2.001290 0
M  V30 19 C -3.873636 2.444170 0.653299 0
M  V30 20 Cl -4.885744 3.378075 -0.435715 0
M  V30 21 C -2.830902 1.681967 0.117091 0
M  V30 22 H 1.318164 -4.398523 1.365658 0
M  V30 23 H 0.935366 -4.217496 -0.411759 0
M  V30 24 H 6.563401 -0.649866 0.358845 0
M  V30 25 H 1.006576 -1.909472 -1.903143 0
M  V30 26 H 1.863350 -1.109360 1.208883 0
M  V30 27 H -0.698145 0.076095 -0.471473 0
M  V30 28 H -1.725328 0.431565 3.109864 0
M  V30 29 H -3.538045 1.767996 3.958120 0
M  V30 30 H -4.983974 3.110459 2.382038 0
M  V30 31 H -2.619061 1.641243 -0.934291 0
M  V30 END ATOM
M  V30 BEGIN BOND
M  V30 1 2 1 2
M  V30 2 1 2 3
M  V30 3 1 3 4
M  V30 4 2 4 5
M  V30 5 1 5 6
M  V30 6 2 6 7
M  V30 7 1 7 8
M  V30 8 1 7 9
M  V30 9 2 9 10
M  V30 10 1 10 11
M  V30 11 1 2 12
M  V30 12 1 12 13
M  V30 13 2 13 14
M  V30 14 1 14 15
M  V30 15 2 15 16
M  V30 16 1 16 17
M  V30 17 2 17 18
M  V30 18 1 18 19
M  V30 19 1 19 20
M  V30 20 2 19 21
M  V30 21 1 10 4
M  V30 22 1 21 15
M  V30 23 1 3 22
M  V30 24 1 3 23
M  V30 25 1 8 24
M  V30 26 1 11 25
M  V30 27 1 12 26
M  V30 28 1 14 27
M  V30 29 1 16 28
M  V30 30 1 17 29
M  V30 31 1 18 30
M  V30 32 1 21 31
M  V30 END BOND
M  V30 END CTAB
M  END
>  <Dataset>  (683) 
ChEMBL_Kinases

>  <Ligand_Instance>  (683) 
nan

>  <PDB_ID>  (683) 
nan

>  <Standardized_SMILES>  (683) 
O=C(Cc1nnc(O)nc1O)N/N=C/c1cccc(Cl)c1

>  <Name>  (683) 
nan

>  <Pocket>  (683) 
nan

>  <ATP_Site>  (683) 
nan

>  <Peripheral>  (683) 
nan

>  <Num_H_Atoms_ProtBoundConf>  (683) 
nan

>  <Num_Resolved_Atoms>  (683) 
nan

>  <Num_Not_Resolved_Atoms>  (683) 
nan

$$$$
CHEMBL3208674
     RDKit          3D

  0  0  0  0  0  0  0  0  0  0999 V3000
M  V30 BEGIN CTAB
M  V30 COUNTS 70 74 0 0 0
M  V30 BEGIN ATOM
M  V30 1 C 3.077536 3.282347 4.089194 0
M  V30 2 O 2.600195 3.522505 2.761058 0
M  V30 3 C 2.072875 2.443494 2.054911 0
M  V30 4 C 1.610279 2.663765 0.774078 0
M  V30 5 C 1.066484 1.627401 0.001101 0
M  V30 6 C 1.035237 0.403524 0.612585 0
M  V30 7 N 0.597329 -0.690671 -0.145870 0
M  V30 8 C -0.594869 -1.109806 -0.196654 0
M  V30 9 C -0.926929 -2.246883 -1.013272 0
M  V30 10 N -0.171994 -2.981805 -1.769531 0
M  V30 11 C 1.212080 -2.665631 -1.846930 0
M  V30 12 C 1.697617 -1.695175 -2.718453 0
M  V30 13 C 3.030603 -1.371905 -2.812452 0
M  V30 14 C 3.946867 -2.032110 -2.010610 0
M  V30 15 O 5.305478 -1.738018 -2.071706 0
M  V30 16 C 5.694276 -0.733601 -2.992895 0
M  V30 17 C 3.473972 -3.003468 -1.136052 0
M  V30 18 C 2.129443 -3.318746 -1.051805 0
M  V30 19 N -2.324628 -2.426974 -0.826726 0
M  V30 20 C -3.067825 -3.463299 -1.467497 0
M  V30 21 C -3.255591 -4.719657 -0.918352 0
M  V30 22 C -4.001408 -5.655661 -1.635447 0
M  V30 23 C -4.547803 -5.355794 -2.865352 0
M  V30 24 O -5.295035 -6.263199 -3.605638 0
M  V30 25 C -5.516252 -7.571589 -3.081408 0
M  V30 26 C -4.348528 -4.092585 -3.398019 0
M  V30 27 C -3.612304 -3.155099 -2.699837 0
M  V30 28 C -2.833633 -1.431795 0.075690 0
M  V30 29 S -4.410077 -1.430151 0.447208 0
M  V30 30 N -1.730973 -0.622335 0.453517 0
M  V30 31 C -1.859201 0.439969 1.320502 0
M  V30 32 O -3.054480 0.549766 1.691645 0
M  V30 33 C -1.559605 1.568046 2.137299 0
M  V30 34 C -1.197525 1.383564 3.478060 0
M  V30 35 C -0.866137 2.445765 4.333246 0
M  V30 36 C -0.944489 3.653552 3.692988 0
M  V30 37 O -0.626222 4.744525 4.491170 0
M  V30 38 C -0.250345 4.681813 5.841621 0
M  V30 39 C -1.279686 3.994542 2.404383 0
M  V30 40 C -1.594492 2.873684 1.625555 0
M  V30 41 C 1.479223 0.093179 1.901613 0
M  V30 42 C 2.012231 1.167158 2.626493 0
M  V30 43 H 3.786409 2.406396 4.078278 0
M  V30 44 H 2.278220 2.997838 4.784402 0
M  V30 45 H 3.658388 4.139996 4.465461 0
M  V30 46 H 1.653952 3.650154 0.325492 0
M  V30 47 H 0.690110 1.745462 -1.004328 0
M  V30 48 H 1.014965 -1.150640 -3.367479 0
M  V30 49 H 3.355207 -0.600779 -3.515252 0
M  V30 50 H 5.351964 -1.111560 -3.991734 0
M  V30 51 H 6.763815 -0.537066 -3.026753 0
M  V30 52 H 5.105059 0.199656 -2.810189 0
M  V30 53 H 4.182954 -3.537125 -0.493321 0
M  V30 54 H 1.838038 -4.093489 -0.339892 0
M  V30 55 H -2.820011 -4.940702 0.049202 0
M  V30 56 H -4.149646 -6.637003 -1.209526 0
M  V30 57 H -5.798660 -7.538117 -2.004479 0
M  V30 58 H -6.363649 -8.070584 -3.594001 0
M  V30 59 H -4.616172 -8.221717 -3.209751 0
M  V30 60 H -4.769913 -3.833126 -4.366659 0
M  V30 61 H -3.470939 -2.171370 -3.140501 0
M  V30 62 H -1.170900 0.367909 3.879756 0
M  V30 63 H -0.586956 2.329127 5.358023 0
M  V30 64 H 0.482080 3.901661 6.090530 0
M  V30 65 H -1.155589 4.550774 6.489086 0
M  V30 66 H 0.240690 5.659317 6.069879 0
M  V30 67 H -1.299736 4.997131 2.033305 0
M  V30 68 H -1.875910 3.006619 0.591523 0
M  V30 69 H 1.410293 -0.907251 2.297958 0
M  V30 70 H 2.376012 1.001528 3.630062 0
M  V30 END ATOM
M  V30 BEGIN BOND
M  V30 1 1 1 2
M  V30 2 1 2 3
M  V30 3 2 3 4
M  V30 4 1 4 5
M  V30 5 2 5 6
M  V30 6 1 6 7
M  V30 7 2 7 8
M  V30 8 1 8 9
M  V30 9 2 9 10
M  V30 10 1 10 11
M  V30 11 2 11 12
M  V30 12 1 12 13
M  V30 13 2 13 14
M  V30 14 1 14 15
M  V30 15 1 15 16
M  V30 16 1 14 17
M  V30 17 2 17 18
M  V30 18 1 9 19
M  V30 19 1 19 20
M  V30 20 2 20 21
M  V30 21 1 21 22
M  V30 22 2 22 23
M  V30 23 1 23 24
M  V30 24 1 24 25
M  V30 25 1 23 26
M  V30 26 2 26 27
M  V30 27 1 19 28
M  V30 28 2 28 29
M  V30 29 1 28 30
M  V30 30 1 30 31
M  V30 31 2 31 32
M  V30 32 1 31 33
M  V30 33 2 33 34
M  V30 34 1 34 35
M  V30 35 2 35 36
M  V30 36 1 36 37
M  V30 37 1 37 38
M  V30 38 1 36 39
M  V30 39 2 39 40
M  V30 40 1 6 41
M  V30 41 2 41 42
M  V30 42 1 42 3
M  V30 43 1 30 8
M  V30 44 1 40 33
M  V30 45 1 18 11
M  V30 46 1 27 20
M  V30 47 1 1 43
M  V30 48 1 1 44
M  V30 49 1 1 45
M  V30 50 1 4 46
M  V30 51 1 5 47
M  V30 52 1 12 48
M  V30 53 1 13 49
M  V30 54 1 16 50
M  V30 55 1 16 51
M  V30 56 1 16 52
M  V30 57 1 17 53
M  V30 58 1 18 54
M  V30 59 1 21 55
M  V30 60 1 22 56
M  V30 61 1 25 57
M  V30 62 1 25 58
M  V30 63 1 25 59
M  V30 64 1 26 60
M  V30 65 1 27 61
M  V30 66 1 34 62
M  V30 67 1 35 63
M  V30 68 1 38 64
M  V30 69 1 38 65
M  V30 70 1 38 66
M  V30 71 1 39 67
M  V30 72 1 40 68
M  V30 73 1 41 69
M  V30 74 1 42 70
M  V30 END BOND
M  V30 END CTAB
M  END
>  <Dataset>  (684) 
ChEMBL_Kinases

>  <Ligand_Instance>  (684) 
nan

>  <PDB_ID>  (684) 
nan

>  <Standardized_SMILES>  (684) 
COc1ccc(/N=C2C(=N\c3ccc(OC)cc3)/N(c3ccc(OC)cc3)C(=S)N/2C(=O)c2ccc(OC)cc2)cc1

>  <Name>  (684) 
nan

>  <Pocket>  (684) 
nan

>  <ATP_Site>  (684) 
nan

>  <Peripheral>  (684) 
nan

>  <Num_H_Atoms_ProtBoundConf>  (684) 
nan

>  <Num_Resolved_Atoms>  (684) 
nan

>  <Num_Not_Resolved_Atoms>  (684) 
nan

$$$$
CHEMBL3208608
     RDKit          3D

  0  0  0  0  0  0  0  0  0  0999 V3000
M  V30 BEGIN CTAB
M  V30 COUNTS 57 60 0 0 0
M  V30 BEGIN ATOM
M  V30 1 O 0.792320 0.118013 6.032351 0
M  V30 2 N 0.565289 -0.631815 5.076994 0 CHG=1 VAL=4
M  V30 3 O -0.489608 -1.331005 5.610195 0 CHG=-1 VAL=1
M  V30 4 C 1.326694 -0.580501 3.882538 0
M  V30 5 C 2.618595 -0.130964 4.006207 0
M  V30 6 C 3.362657 -0.079929 2.846384 0
M  V30 7 S 5.022746 0.467280 2.824438 0
M  V30 8 O 5.695251 0.109401 4.115166 0
M  V30 9 O 5.785042 -0.227449 1.734137 0
M  V30 10 N 5.102540 2.167824 2.562279 0
M  V30 11 C 4.550013 3.130618 3.422202 0
M  V30 12 C 3.827562 4.183394 2.895606 0
M  V30 13 C 3.244090 5.183397 3.668687 0
M  V30 14 C 3.410800 5.096252 5.036479 0
M  V30 15 C 4.119752 4.073275 5.634235 0
M  V30 16 Cl 4.290134 4.026893 7.371258 0
M  V30 17 C 4.663095 3.127116 4.795258 0
M  V30 18 C 2.848836 -0.458042 1.616254 0
M  V30 19 C 1.543371 -0.897608 1.577996 0
M  V30 20 C 0.743801 -0.973783 2.698435 0
M  V30 21 N -0.594840 -1.437363 2.580312 0
M  V30 22 N -1.099558 -1.812886 1.357296 0
M  V30 23 C -2.181733 -2.438784 1.137206 0
M  V30 24 C -2.577311 -2.763677 -0.229177 0
M  V30 25 C -3.735198 -3.440713 -0.554416 0
M  V30 26 C -4.086219 -3.735934 -1.861161 0
M  V30 27 C -3.277311 -3.357729 -2.906629 0
M  V30 28 N -3.631088 -3.659281 -4.246956 0
M  V30 29 C -4.805967 -4.396980 -4.658219 0
M  V30 30 C -5.651300 -3.378988 -5.435444 0
M  V30 31 O -5.005574 -3.194576 -6.632804 0
M  V30 32 C -3.746469 -2.628519 -6.493382 0
M  V30 33 C -2.898831 -3.292273 -5.439482 0
M  V30 34 C -2.121434 -2.682622 -2.592558 0
M  V30 35 C -1.775590 -2.390541 -1.288627 0
M  V30 36 H 3.051559 0.171875 4.948981 0
M  V30 37 H 5.580555 2.565187 1.726213 0
M  V30 38 H 3.715208 4.221939 1.810762 0
M  V30 39 H 2.705148 5.951523 3.139060 0
M  V30 40 H 2.939232 5.894825 5.584853 0
M  V30 41 H 5.216295 2.329043 5.261790 0
M  V30 42 H 3.417087 -0.427094 0.682890 0
M  V30 43 H 1.109874 -1.201644 0.629446 0
M  V30 44 H -1.229813 -1.507328 3.404365 0
M  V30 45 H -2.784478 -2.715129 1.978080 0
M  V30 46 H -4.373687 -3.738710 0.280273 0
M  V30 47 H -5.012722 -4.266229 -1.973995 0
M  V30 48 H -5.369781 -4.870299 -3.860832 0
M  V30 49 H -4.543921 -5.216881 -5.390767 0
M  V30 50 H -6.663584 -3.760382 -5.628997 0
M  V30 51 H -5.641248 -2.414234 -4.886481 0
M  V30 52 H -3.176320 -2.617603 -7.437825 0
M  V30 53 H -3.894408 -1.573290 -6.184423 0
M  V30 54 H -2.527418 -4.241416 -5.902786 0
M  V30 55 H -2.022236 -2.665455 -5.232490 0
M  V30 56 H -1.420222 -2.343279 -3.339023 0
M  V30 57 H -0.847662 -1.850674 -1.061060 0
M  V30 END ATOM
M  V30 BEGIN BOND
M  V30 1 2 1 2
M  V30 2 1 2 3
M  V30 3 1 2 4
M  V30 4 2 4 5
M  V30 5 1 5 6
M  V30 6 1 6 7
M  V30 7 2 7 8
M  V30 8 2 7 9
M  V30 9 1 7 10
M  V30 10 1 10 11
M  V30 11 2 11 12
M  V30 12 1 12 13
M  V30 13 2 13 14
M  V30 14 1 14 15
M  V30 15 1 15 16
M  V30 16 2 15 17
M  V30 17 2 6 18
M  V30 18 1 18 19
M  V30 19 2 19 20
M  V30 20 1 20 21
M  V30 21 1 21 22
M  V30 22 2 22 23
M  V30 23 1 23 24
M  V30 24 2 24 25
M  V30 25 1 25 26
M  V30 26 2 26 27
M  V30 27 1 27 28
M  V30 28 1 28 29
M  V30 29 1 29 30
M  V30 30 1 30 31
M  V30 31 1 31 32
M  V30 32 1 32 33
M  V30 33 1 27 34
M  V30 34 2 34 35
M  V30 35 1 20 4
M  V30 36 1 35 24
M  V30 37 1 17 11
M  V30 38 1 33 28
M  V30 39 1 5 36
M  V30 40 1 10 37
M  V30 41 1 12 38
M  V30 42 1 13 39
M  V30 43 1 14 40
M  V30 44 1 17 41
M  V30 45 1 18 42
M  V30 46 1 19 43
M  V30 47 1 21 44
M  V30 48 1 23 45
M  V30 49 1 25 46
M  V30 50 1 26 47
M  V30 51 1 29 48
M  V30 52 1 29 49
M  V30 53 1 30 50
M  V30 54 1 30 51
M  V30 55 1 32 52
M  V30 56 1 32 53
M  V30 57 1 33 54
M  V30 58 1 33 55
M  V30 59 1 34 56
M  V30 60 1 35 57
M  V30 END BOND
M  V30 END CTAB
M  END
>  <Dataset>  (685) 
ChEMBL_Kinases

>  <Ligand_Instance>  (685) 
nan

>  <PDB_ID>  (685) 
nan

>  <Standardized_SMILES>  (685) 
O=[N+]([O-])c1cc(S(=O)(=O)Nc2cccc(Cl)c2)ccc1N/N=C/c1ccc(N2CCOCC2)cc1

>  <Name>  (685) 
nan

>  <Pocket>  (685) 
nan

>  <ATP_Site>  (685) 
nan

>  <Peripheral>  (685) 
nan

>  <Num_H_Atoms_ProtBoundConf>  (685) 
nan

>  <Num_Resolved_Atoms>  (685) 
nan

>  <Num_Not_Resolved_Atoms>  (685) 
nan

$$$$
CHEMBL3208561
     RDKit          3D

  0  0  0  0  0  0  0  0  0  0999 V3000
M  V30 BEGIN CTAB
M  V30 COUNTS 58 62 0 0 0
M  V30 BEGIN ATOM
M  V30 1 C 1.208102 -3.807816 7.211142 0
M  V30 2 O 1.948076 -4.266790 6.121491 0
M  V30 3 C 1.936602 -3.745175 4.841648 0
M  V30 4 C 1.161631 -2.661604 4.465434 0
M  V30 5 C 1.250706 -2.248499 3.153720 0
M  V30 6 C 2.057191 -2.846830 2.210766 0
M  V30 7 C 2.063601 -2.314600 0.851409 0
M  V30 8 N 1.325012 -1.320495 0.592072 0
M  V30 9 N 1.200347 -0.679105 -0.644141 0
M  V30 10 C 1.481420 0.749411 -0.461679 0
M  V30 11 C 1.157530 1.545277 -1.678829 0
M  V30 12 N -0.024601 1.227944 -2.376758 0
M  V30 13 C -1.116763 2.127966 -2.299187 0
M  V30 14 C -1.697835 2.356159 -0.978933 0
M  V30 15 C -1.358366 2.845626 0.256147 0
M  V30 16 C -2.165306 2.937388 1.365927 0
M  V30 17 C -3.462023 2.491415 1.236858 0
M  V30 18 C -3.897870 1.981424 0.032480 0
M  V30 19 C -3.029368 1.922373 -1.034176 0
M  V30 20 C -3.371477 1.409926 -2.352445 0
M  V30 21 C -4.468520 0.880565 -2.964631 0
M  V30 22 C -4.481503 0.473742 -4.281840 0
M  V30 23 C -3.329233 0.595032 -5.060951 0
M  V30 24 C -2.234727 1.128371 -4.433212 0
M  V30 25 C -2.230260 1.533439 -3.112604 0
M  V30 26 C -0.394430 -0.162749 -2.287076 0
M  V30 27 C 0.886842 -0.936319 -2.054058 0
M  V30 28 C 2.815945 -3.923387 2.618014 0
M  V30 29 C 2.777436 -4.398087 3.931640 0
M  V30 30 O 3.552332 -5.483455 4.312669 0
M  V30 31 C 4.364808 -6.065177 3.311170 0
M  V30 32 H 0.788571 -4.676628 7.793380 0
M  V30 33 H 1.858228 -3.182323 7.889889 0
M  V30 34 H 0.337572 -3.173664 6.956078 0
M  V30 35 H 0.527366 -2.182465 5.186779 0
M  V30 36 H 0.628581 -1.387775 2.876354 0
M  V30 37 H 2.662939 -2.721432 0.056172 0
M  V30 38 H 0.996624 1.172630 0.427375 0
M  V30 39 H 2.586156 0.886324 -0.277477 0
M  V30 40 H 1.144554 2.626162 -1.384749 0
M  V30 41 H 2.029604 1.472364 -2.391464 0
M  V30 42 H -0.821200 3.072234 -2.817366 0
M  V30 43 H -0.344717 3.204644 0.388109 0
M  V30 44 H -1.816221 3.337839 2.305233 0
M  V30 45 H -4.111424 2.553854 2.094969 0
M  V30 46 H -4.913262 1.658778 0.016321 0
M  V30 47 H -5.378373 0.772971 -2.387996 0
M  V30 48 H -5.364817 0.056217 -4.745675 0
M  V30 49 H -3.306278 0.283406 -6.103202 0
M  V30 50 H -1.349879 1.210465 -5.067095 0
M  V30 51 H -1.043900 -0.237494 -1.365444 0
M  V30 52 H -0.990418 -0.538348 -3.113161 0
M  V30 53 H 0.750210 -2.023187 -2.234136 0
M  V30 54 H 1.727873 -0.523410 -2.641008 0
M  V30 55 H 3.445168 -4.385151 1.868942 0
M  V30 56 H 4.926216 -6.946037 3.688957 0
M  V30 57 H 3.724636 -6.362849 2.453619 0
M  V30 58 H 5.125502 -5.350946 2.921795 0
M  V30 END ATOM
M  V30 BEGIN BOND
M  V30 1 1 1 2
M  V30 2 1 2 3
M  V30 3 2 3 4
M  V30 4 1 4 5
M  V30 5 2 5 6
M  V30 6 1 6 7
M  V30 7 2 7 8
M  V30 8 1 8 9
M  V30 9 1 9 10
M  V30 10 1 10 11
M  V30 11 1 11 12
M  V30 12 1 12 13
M  V30 13 1 13 14
M  V30 14 2 14 15
M  V30 15 1 15 16
M  V30 16 2 16 17
M  V30 17 1 17 18
M  V30 18 2 18 19
M  V30 19 1 19 20
M  V30 20 2 20 21
M  V30 21 1 21 22
M  V30 22 2 22 23
M  V30 23 1 23 24
M  V30 24 2 24 25
M  V30 25 1 12 26
M  V30 26 1 26 27
M  V30 27 1 6 28
M  V30 28 2 28 29
M  V30 29 1 29 30
M  V30 30 1 30 31
M  V30 31 1 29 3
M  V30 32 1 27 9
M  V30 33 1 25 13
M  V30 34 1 19 14
M  V30 35 1 25 20
M  V30 36 1 1 32
M  V30 37 1 1 33
M  V30 38 1 1 34
M  V30 39 1 4 35
M  V30 40 1 5 36
M  V30 41 1 7 37
M  V30 42 1 10 38
M  V30 43 1 10 39
M  V30 44 1 11 40
M  V30 45 1 11 41
M  V30 46 1 13 42
M  V30 47 1 15 43
M  V30 48 1 16 44
M  V30 49 1 17 45
M  V30 50 1 18 46
M  V30 51 1 21 47
M  V30 52 1 22 48
M  V30 53 1 23 49
M  V30 54 1 24 50
M  V30 55 1 26 51
M  V30 56 1 26 52
M  V30 57 1 27 53
M  V30 58 1 27 54
M  V30 59 1 28 55
M  V30 60 1 31 56
M  V30 61 1 31 57
M  V30 62 1 31 58
M  V30 END BOND
M  V30 END CTAB
M  END
>  <Dataset>  (686) 
ChEMBL_Kinases

>  <Ligand_Instance>  (686) 
nan

>  <PDB_ID>  (686) 
nan

>  <Standardized_SMILES>  (686) 
COc1ccc(/C=N/N2CCN(C3c4ccccc4-c4ccccc43)CC2)cc1OC

>  <Name>  (686) 
nan

>  <Pocket>  (686) 
nan

>  <ATP_Site>  (686) 
nan

>  <Peripheral>  (686) 
nan

>  <Num_H_Atoms_ProtBoundConf>  (686) 
nan

>  <Num_Resolved_Atoms>  (686) 
nan

>  <Num_Not_Resolved_Atoms>  (686) 
nan

$$$$
CHEMBL3208488
     RDKit          3D

  0  0  0  0  0  0  0  0  0  0999 V3000
M  V30 BEGIN CTAB
M  V30 COUNTS 77 78 0 0 0
M  V30 BEGIN ATOM
M  V30 1 C -0.461693 -2.443678 7.854979 0
M  V30 2 C 0.501321 -2.039182 6.780729 0
M  V30 3 O 1.692234 -2.437803 6.837496 0
M  V30 4 O 0.102773 -1.243656 5.741425 0
M  V30 5 C 0.886345 -0.790046 4.675154 0
M  V30 6 C 1.464605 -1.950855 3.852950 0 CFG=1
M  V30 7 O 0.428408 -2.676537 3.363868 0
M  V30 8 C 0.022989 -2.458083 2.075684 0 CFG=1
M  V30 9 O -0.506941 -1.144426 2.009921 0
M  V30 10 N -1.849740 -1.080894 1.649352 0
M  V30 11 C -2.352383 -0.135716 0.943450 0
M  V30 12 C -3.629916 0.322081 0.354248 0
M  V30 13 C -3.453889 0.653553 -1.132225 0 CFG=2
M  V30 14 C -3.003156 -0.578786 -1.794344 0
M  V30 15 C -2.234624 -0.483152 -2.873949 0
M  V30 16 C -1.834503 0.848029 -3.407189 0 CFG=2
M  V30 17 O -0.468923 0.749833 -3.781137 0
M  V30 18 C -0.035887 0.886938 -5.080799 0
M  V30 19 C 1.431885 0.756180 -5.305479 0
M  V30 20 O -0.942662 1.105490 -5.909256 0
M  V30 21 C -2.072949 1.977794 -2.459618 0 CFG=1
M  V30 22 C -3.000652 3.025448 -3.074233 0
M  V30 23 O -4.321090 2.590196 -3.196509 0
M  V30 24 C -5.383657 3.293750 -3.706769 0
M  V30 25 C -6.714036 2.679990 -3.761567 0
M  V30 26 O -5.086561 4.446647 -4.091547 0
M  V30 27 O -2.475797 1.617209 -1.197263 0
M  V30 28 C 1.123024 -2.550537 1.041332 0 CFG=2
M  V30 29 O 1.029533 -3.812795 0.407427 0
M  V30 30 C 0.782660 -3.864872 -0.964094 0
M  V30 31 C 0.637460 -5.015398 -1.874207 0
M  V30 32 O 0.658109 -2.743712 -1.550107 0
M  V30 33 C 2.474207 -2.339752 1.677318 0 CFG=1
M  V30 34 O 3.432485 -2.015557 0.720483 0
M  V30 35 C 4.557161 -2.842091 0.530618 0
M  V30 36 C 5.660069 -2.614777 -0.457845 0
M  V30 37 O 4.813005 -3.915098 1.171582 0
M  V30 38 C 2.268931 -1.303477 2.749503 0 CFG=2
M  V30 39 O 3.496393 -0.786570 3.231109 0
M  V30 40 C 3.831027 0.555984 3.172541 0
M  V30 41 C 5.184971 0.796649 3.755805 0
M  V30 42 O 3.095047 1.477164 2.689250 0
M  V30 43 H 0.040268 -2.607303 8.813800 0
M  V30 44 H -1.320687 -1.764890 7.896972 0
M  V30 45 H -0.842371 -3.444522 7.516319 0
M  V30 46 H 1.698120 -0.103851 4.992750 0
M  V30 47 H 0.248567 -0.196579 3.992342 0
M  V30 48 H 2.130034 -2.521397 4.545443 0
M  V30 49 H -0.839074 -3.127080 1.795740 0
M  V30 50 H -1.599198 0.612828 0.659678 0
M  V30 51 H -4.379126 -0.474379 0.504120 0
M  V30 52 H -3.939389 1.228614 0.911545 0
M  V30 53 H -4.440776 0.958490 -1.529437 0
M  V30 54 H -3.261549 -1.588265 -1.453367 0
M  V30 55 H -1.864409 -1.350571 -3.414615 0
M  V30 56 H -2.413839 1.045080 -4.341095 0
M  V30 57 H 1.577067 0.865736 -6.406829 0
M  V30 58 H 2.004593 1.575174 -4.844841 0
M  V30 59 H 1.813496 -0.227144 -4.982876 0
M  V30 60 H -1.092353 2.518568 -2.324310 0
M  V30 61 H -2.628035 3.317389 -4.075545 0
M  V30 62 H -2.932462 3.952616 -2.456646 0
M  V30 63 H -6.880802 2.107035 -4.707318 0
M  V30 64 H -6.887534 1.967576 -2.934624 0
M  V30 65 H -7.556682 3.422354 -3.670536 0
M  V30 66 H 0.980343 -1.716721 0.327498 0
M  V30 67 H 0.481357 -5.968482 -1.330321 0
M  V30 68 H 1.469348 -5.043584 -2.598223 0
M  V30 69 H -0.283890 -4.855642 -2.481396 0
M  V30 70 H 2.807807 -3.295542 2.170567 0
M  V30 71 H 5.561089 -3.451693 -1.191288 0
M  V30 72 H 5.557246 -1.638300 -0.951444 0
M  V30 73 H 6.656570 -2.674930 0.003535 0
M  V30 74 H 1.678927 -0.465903 2.346384 0
M  V30 75 H 5.222393 0.477020 4.828133 0
M  V30 76 H 5.468299 1.856388 3.676912 0
M  V30 77 H 5.882808 0.183438 3.150561 0
M  V30 END ATOM
M  V30 BEGIN BOND
M  V30 1 1 1 2
M  V30 2 2 2 3
M  V30 3 1 2 4
M  V30 4 1 4 5
M  V30 5 1 5 6
M  V30 6 1 6 7
M  V30 7 1 7 8
M  V30 8 1 8 9
M  V30 9 1 9 10
M  V30 10 2 10 11
M  V30 11 1 11 12
M  V30 12 1 12 13
M  V30 13 1 13 14
M  V30 14 2 14 15
M  V30 15 1 15 16
M  V30 16 1 16 17
M  V30 17 1 17 18
M  V30 18 1 18 19
M  V30 19 2 18 20
M  V30 20 1 16 21
M  V30 21 1 21 22
M  V30 22 1 22 23
M  V30 23 1 23 24
M  V30 24 1 24 25
M  V30 25 2 24 26
M  V30 26 1 21 27
M  V30 27 1 8 28
M  V30 28 1 28 29
M  V30 29 1 29 30
M  V30 30 1 30 31
M  V30 31 2 30 32
M  V30 32 1 28 33
M  V30 33 1 33 34
M  V30 34 1 34 35
M  V30 35 1 35 36
M  V30 36 2 35 37
M  V30 37 1 33 38
M  V30 38 1 38 39
M  V30 39 1 39 40
M  V30 40 1 40 41
M  V30 41 2 40 42
M  V30 42 1 38 6
M  V30 43 1 27 13
M  V30 44 1 1 43
M  V30 45 1 1 44
M  V30 46 1 1 45
M  V30 47 1 5 46
M  V30 48 1 5 47
M  V30 49 1 6 48 CFG=1
M  V30 50 1 8 49 CFG=3
M  V30 51 1 11 50
M  V30 52 1 12 51
M  V30 53 1 12 52
M  V30 54 1 13 53 CFG=3
M  V30 55 1 14 54
M  V30 56 1 15 55
M  V30 57 1 16 56 CFG=3
M  V30 58 1 19 57
M  V30 59 1 19 58
M  V30 60 1 19 59
M  V30 61 1 21 60 CFG=1
M  V30 62 1 22 61
M  V30 63 1 22 62
M  V30 64 1 25 63
M  V30 65 1 25 64
M  V30 66 1 25 65
M  V30 67 1 28 66 CFG=3
M  V30 68 1 31 67
M  V30 69 1 31 68
M  V30 70 1 31 69
M  V30 71 1 33 70 CFG=1
M  V30 72 1 36 71
M  V30 73 1 36 72
M  V30 74 1 36 73
M  V30 75 1 38 74 CFG=3
M  V30 76 1 41 75
M  V30 77 1 41 76
M  V30 78 1 41 77
M  V30 END BOND
M  V30 END CTAB
M  END
>  <Dataset>  (687) 
ChEMBL_Kinases

>  <Ligand_Instance>  (687) 
nan

>  <PDB_ID>  (687) 
nan

>  <Standardized_SMILES>  (687) 
CC(=O)OC[C@H]1O[C@@H](O/N=C/C[C@@H]2C=C[C@H](OC(C)=O)[C@@H](COC(C)=O)O2)[C@H](OC(C)=O)[C@@H](OC(C)=O)[C@@H]1OC(C)=O

>  <Name>  (687) 
nan

>  <Pocket>  (687) 
nan

>  <ATP_Site>  (687) 
nan

>  <Peripheral>  (687) 
nan

>  <Num_H_Atoms_ProtBoundConf>  (687) 
nan

>  <Num_Resolved_Atoms>  (687) 
nan

>  <Num_Not_Resolved_Atoms>  (687) 
nan

$$$$
CHEMBL3208484
     RDKit          3D

  0  0  0  0  0  0  0  0  0  0999 V3000
M  V30 BEGIN CTAB
M  V30 COUNTS 42 43 0 0 0
M  V30 BEGIN ATOM
M  V30 1 C 0.358484 -6.469652 1.005835 0
M  V30 2 C 0.010370 -5.091885 1.507366 0
M  V30 3 O 0.004329 -4.141969 0.471457 0
M  V30 4 C 1.122980 -3.851987 -0.310882 0
M  V30 5 O 2.221699 -4.451905 -0.112116 0
M  V30 6 C 0.914390 -2.798711 -1.375523 0
M  V30 7 O 2.101400 -2.617173 -2.067865 0
M  V30 8 C 0.463325 -1.572479 -0.670397 0
M  V30 9 C -0.556682 -0.690590 -0.962632 0
M  V30 10 C -0.788325 0.397417 -0.146092 0
M  V30 11 C -0.037416 0.665186 0.981089 0
M  V30 12 N -0.374766 1.821941 1.744857 0
M  V30 13 C 0.393829 2.824278 1.869403 0
M  V30 14 C 1.629765 2.851884 1.257646 0
M  V30 15 C 2.389636 3.986447 1.454433 0
M  V30 16 C 1.867166 5.000764 2.238994 0
M  V30 17 C 0.626407 4.948991 2.840807 0
M  V30 18 N -0.098668 3.832629 2.635725 0
M  V30 19 C -1.414659 3.745432 3.257487 0
M  V30 20 C 0.988062 -0.207537 1.288744 0
M  V30 21 C 1.224436 -1.298585 0.474588 0
M  V30 22 C -0.151549 -3.396870 -2.269331 0
M  V30 23 F -0.499798 -2.595665 -3.325739 0
M  V30 24 F 0.192975 -4.663470 -2.643245 0
M  V30 25 F -1.314491 -3.522346 -1.496155 0
M  V30 26 H -0.209278 -7.256070 1.569370 0
M  V30 27 H 1.428702 -6.701438 1.068229 0
M  V30 28 H -0.024021 -6.511781 -0.051287 0
M  V30 29 H -1.011267 -5.092591 1.940460 0
M  V30 30 H 0.703635 -4.767833 2.330666 0
M  V30 31 H 2.108981 -3.252639 -2.827785 0
M  V30 32 H -1.096474 -0.963170 -1.851827 0
M  V30 33 H -1.598158 1.032655 -0.442713 0
M  V30 34 H 1.941474 2.002460 0.664344 0
M  V30 35 H 3.358295 4.050058 0.996493 0
M  V30 36 H 2.452013 5.898928 2.403237 0
M  V30 37 H 0.238914 5.759179 3.452361 0
M  V30 38 H -2.126337 3.157119 2.631912 0
M  V30 39 H -1.387781 3.292678 4.255027 0
M  V30 40 H -1.829605 4.781076 3.258486 0
M  V30 41 H 1.579606 -0.002668 2.170684 0
M  V30 42 H 2.063295 -1.922652 0.815601 0
M  V30 END ATOM
M  V30 BEGIN BOND
M  V30 1 1 1 2
M  V30 2 1 2 3
M  V30 3 1 3 4
M  V30 4 2 4 5
M  V30 5 1 4 6
M  V30 6 1 6 7
M  V30 7 1 6 8
M  V30 8 2 8 9
M  V30 9 1 9 10
M  V30 10 2 10 11
M  V30 11 1 11 12
M  V30 12 2 12 13
M  V30 13 1 13 14
M  V30 14 2 14 15
M  V30 15 1 15 16
M  V30 16 2 16 17
M  V30 17 1 17 18
M  V30 18 1 18 19
M  V30 19 1 11 20
M  V30 20 2 20 21
M  V30 21 1 6 22
M  V30 22 1 22 23
M  V30 23 1 22 24
M  V30 24 1 22 25
M  V30 25 1 21 8
M  V30 26 1 18 13
M  V30 27 1 1 26
M  V30 28 1 1 27
M  V30 29 1 1 28
M  V30 30 1 2 29
M  V30 31 1 2 30
M  V30 32 1 7 31
M  V30 33 1 9 32
M  V30 34 1 10 33
M  V30 35 1 14 34
M  V30 36 1 15 35
M  V30 37 1 16 36
M  V30 38 1 17 37
M  V30 39 1 19 38
M  V30 40 1 19 39
M  V30 41 1 19 40
M  V30 42 1 20 41
M  V30 43 1 21 42
M  V30 END BOND
M  V30 END CTAB
M  END
>  <Dataset>  (688) 
ChEMBL_Kinases

>  <Ligand_Instance>  (688) 
nan

>  <PDB_ID>  (688) 
nan

>  <Standardized_SMILES>  (688) 
CCOC(=O)C(O)(c1ccc(/N=c2\ccccn2C)cc1)C(F)(F)F

>  <Name>  (688) 
nan

>  <Pocket>  (688) 
nan

>  <ATP_Site>  (688) 
nan

>  <Peripheral>  (688) 
nan

>  <Num_H_Atoms_ProtBoundConf>  (688) 
nan

>  <Num_Resolved_Atoms>  (688) 
nan

>  <Num_Not_Resolved_Atoms>  (688) 
nan

$$$$
CHEMBL3208441
     RDKit          3D

  0  0  0  0  0  0  0  0  0  0999 V3000
M  V30 BEGIN CTAB
M  V30 COUNTS 49 52 0 0 0
M  V30 BEGIN ATOM
M  V30 1 C -0.624355 -2.940594 4.009057 0
M  V30 2 C -0.306002 -3.483941 2.680650 0
M  V30 3 N 0.787878 -3.199433 2.098931 0
M  V30 4 N 1.797294 -2.373435 2.605069 0
M  V30 5 C 1.940550 -1.049856 2.066802 0
M  V30 6 N 2.900573 -0.195395 2.516472 0
M  V30 7 N 3.059827 1.028903 2.041463 0
M  V30 8 C 2.256211 1.513120 1.056277 0
M  V30 9 C 2.342882 2.842982 0.464703 0
M  V30 10 C 2.729871 3.269614 -0.786289 0
M  V30 11 C 2.712170 4.609819 -1.108362 0
M  V30 12 C 2.304008 5.543454 -0.173929 0
M  V30 13 C 1.910466 5.144327 1.089589 0
M  V30 14 C 1.932062 3.798987 1.402153 0
M  V30 15 C 1.257398 0.656717 0.571893 0
M  V30 16 C 0.299299 0.972400 -0.481668 0
M  V30 17 C 0.439031 1.073239 -1.848824 0
M  V30 18 C -0.642462 1.409168 -2.625845 0
M  V30 19 C -1.886739 1.656084 -2.085121 0
M  V30 20 C -2.047448 1.561126 -0.719236 0
M  V30 21 C -0.961626 1.222448 0.069554 0
M  V30 22 N 1.130309 -0.579512 1.082219 0
M  V30 23 C -1.271525 -4.362016 2.035074 0
M  V30 24 C -2.474169 -4.709263 2.602083 0
M  V30 25 C -3.431013 -5.532047 2.047837 0
M  V30 26 C -3.111262 -6.031011 0.811693 0
M  V30 27 C -1.929763 -5.757027 0.131455 0
M  V30 28 N -1.632328 -6.296431 -1.154818 0 CHG=1 VAL=4
M  V30 29 O -2.504811 -7.048870 -1.659617 0
M  V30 30 O -0.421094 -5.931102 -1.695849 0 CHG=-1 VAL=1
M  V30 31 C -1.038309 -4.920164 0.776273 0
M  V30 32 H -0.878682 -3.800748 4.681529 0
M  V30 33 H 0.235775 -2.428162 4.484001 0
M  V30 34 H -1.549841 -2.297089 4.006218 0
M  V30 35 H 2.452378 -2.646930 3.343164 0
M  V30 36 H 3.025768 2.456069 -1.408460 0
M  V30 37 H 3.045771 4.782187 -2.133461 0
M  V30 38 H 2.345614 6.561824 -0.578084 0
M  V30 39 H 1.606708 5.941914 1.752685 0
M  V30 40 H 1.594531 3.641480 2.436523 0
M  V30 41 H 1.448769 0.854701 -2.158409 0
M  V30 42 H -0.439367 1.461425 -3.675995 0
M  V30 43 H -2.648195 1.908927 -2.814620 0
M  V30 44 H -3.042997 1.765403 -0.360658 0
M  V30 45 H -1.239850 1.186089 1.136936 0
M  V30 46 H -2.628679 -4.254210 3.592699 0
M  V30 47 H -4.360797 -5.769340 2.545091 0
M  V30 48 H -3.786637 -6.687244 0.286081 0
M  V30 49 H -0.104288 -4.676039 0.290669 0
M  V30 END ATOM
M  V30 BEGIN BOND
M  V30 1 1 1 2
M  V30 2 2 2 3
M  V30 3 1 3 4
M  V30 4 1 4 5
M  V30 5 2 5 6
M  V30 6 1 6 7
M  V30 7 2 7 8
M  V30 8 1 8 9
M  V30 9 2 9 10
M  V30 10 1 10 11
M  V30 11 2 11 12
M  V30 12 1 12 13
M  V30 13 2 13 14
M  V30 14 1 8 15
M  V30 15 1 15 16
M  V30 16 2 16 17
M  V30 17 1 17 18
M  V30 18 2 18 19
M  V30 19 1 19 20
M  V30 20 2 20 21
M  V30 21 2 15 22
M  V30 22 1 2 23
M  V30 23 2 23 24
M  V30 24 1 24 25
M  V30 25 2 25 26
M  V30 26 1 26 27
M  V30 27 1 27 28
M  V30 28 2 28 29
M  V30 29 1 28 30
M  V30 30 2 27 31
M  V30 31 1 22 5
M  V30 32 1 31 23
M  V30 33 1 14 9
M  V30 34 1 21 16
M  V30 35 1 1 32
M  V30 36 1 1 33
M  V30 37 1 1 34
M  V30 38 1 4 35
M  V30 39 1 10 36
M  V30 40 1 11 37
M  V30 41 1 12 38
M  V30 42 1 13 39
M  V30 43 1 14 40
M  V30 44 1 17 41
M  V30 45 1 18 42
M  V30 46 1 19 43
M  V30 47 1 20 44
M  V30 48 1 21 45
M  V30 49 1 24 46
M  V30 50 1 25 47
M  V30 51 1 26 48
M  V30 52 1 31 49
M  V30 END BOND
M  V30 END CTAB
M  END
>  <Dataset>  (689) 
ChEMBL_Kinases

>  <Ligand_Instance>  (689) 
nan

>  <PDB_ID>  (689) 
nan

>  <Standardized_SMILES>  (689) 
C/C(=N\Nc1nnc(-c2ccccc2)c(-c2ccccc2)n1)c1cccc([N+](=O)[O-])c1

>  <Name>  (689) 
nan

>  <Pocket>  (689) 
nan

>  <ATP_Site>  (689) 
nan

>  <Peripheral>  (689) 
nan

>  <Num_H_Atoms_ProtBoundConf>  (689) 
nan

>  <Num_Resolved_Atoms>  (689) 
nan

>  <Num_Not_Resolved_Atoms>  (689) 
nan

$$$$
CHEMBL319103
     RDKit          3D

  0  0  0  0  0  0  0  0  0  0999 V3000
M  V30 BEGIN CTAB
M  V30 COUNTS 51 54 0 0 0
M  V30 BEGIN ATOM
M  V30 1 N 7.246886 -2.468164 4.684306 0
M  V30 2 S 7.007790 -3.501526 3.311699 0
M  V30 3 O 8.351012 -3.805949 2.751755 0
M  V30 4 O 6.256643 -4.712185 3.782761 0
M  V30 5 C 6.047347 -2.640010 2.107262 0
M  V30 6 C 6.611990 -1.874746 1.115195 0
M  V30 7 C 5.810480 -1.229477 0.214216 0
M  V30 8 C 4.410060 -1.299786 0.237497 0
M  V30 9 N 3.663047 -0.609687 -0.743318 0
M  V30 10 C 2.348057 -0.087759 -0.685133 0
M  V30 11 C 1.418535 0.009932 0.322518 0
M  V30 12 C 0.250156 0.597099 -0.115406 0
M  V30 13 C -0.942137 0.857736 0.688255 0
M  V30 14 C -0.948443 0.485770 2.038230 0
M  V30 15 C -2.105942 0.752558 2.778608 0
M  V30 16 C -3.197555 1.359342 2.196402 0
M  V30 17 C -3.158417 1.715637 0.853976 0
M  V30 18 N -4.348185 2.334895 0.376557 0
M  V30 19 S -4.983790 1.829376 -1.128386 0
M  V30 20 O -3.980141 2.056588 -2.230973 0
M  V30 21 O -6.250939 2.578104 -1.427186 0
M  V30 22 C -5.412358 0.114880 -1.041147 0
M  V30 23 C -4.482784 -0.842471 -1.374060 0
M  V30 24 C -4.759729 -2.207834 -1.326033 0
M  V30 25 C -6.027238 -2.578354 -0.924154 0
M  V30 26 C -6.946953 -1.604028 -0.593993 0
M  V30 27 C -6.693771 -0.251015 -0.634582 0
M  V30 28 C -2.038300 1.471357 0.087473 0
M  V30 29 N 0.511661 0.845539 -1.409945 0
M  V30 30 N 1.719066 0.453135 -1.743405 0
M  V30 31 C 3.940437 -2.088540 1.264158 0
M  V30 32 C 4.698279 -2.753306 2.189137 0
M  V30 33 H 6.486080 -1.783541 4.781538 0
M  V30 34 H 7.332104 -3.083874 5.515158 0
M  V30 35 H 7.683559 -1.804935 1.075825 0
M  V30 36 H 6.318527 -0.634112 -0.554874 0
M  V30 37 H 4.194776 -0.478053 -1.656817 0
M  V30 38 H 1.552014 -0.310822 1.334380 0
M  V30 39 H -0.091503 0.007433 2.502068 0
M  V30 40 H -2.089962 0.455942 3.824442 0
M  V30 41 H -4.039246 1.520333 2.853601 0
M  V30 42 H -4.821685 3.076685 0.926706 0
M  V30 43 H -3.502890 -0.490389 -1.683056 0
M  V30 44 H -4.037444 -2.952032 -1.584784 0
M  V30 45 H -6.272603 -3.633367 -0.877118 0
M  V30 46 H -7.927471 -1.901701 -0.283413 0
M  V30 47 H -7.434799 0.478596 -0.370249 0
M  V30 48 H -2.055135 1.761977 -0.935346 0
M  V30 49 H -0.163729 1.296361 -2.073100 0
M  V30 50 H 2.873104 -2.207829 1.346522 0
M  V30 51 H 4.229238 -3.350490 2.960892 0
M  V30 END ATOM
M  V30 BEGIN BOND
M  V30 1 1 1 2
M  V30 2 2 2 3
M  V30 3 2 2 4
M  V30 4 1 2 5
M  V30 5 2 5 6
M  V30 6 1 6 7
M  V30 7 2 7 8
M  V30 8 1 8 9
M  V30 9 1 9 10
M  V30 10 1 10 11
M  V30 11 2 11 12
M  V30 12 1 12 13
M  V30 13 2 13 14
M  V30 14 1 14 15
M  V30 15 2 15 16
M  V30 16 1 16 17
M  V30 17 1 17 18
M  V30 18 1 18 19
M  V30 19 2 19 20
M  V30 20 2 19 21
M  V30 21 1 19 22
M  V30 22 2 22 23
M  V30 23 1 23 24
M  V30 24 2 24 25
M  V30 25 1 25 26
M  V30 26 2 26 27
M  V30 27 2 17 28
M  V30 28 1 12 29
M  V30 29 1 29 30
M  V30 30 1 8 31
M  V30 31 2 31 32
M  V30 32 1 32 5
M  V30 33 2 30 10
M  V30 34 1 28 13
M  V30 35 1 27 22
M  V30 36 1 1 33
M  V30 37 1 1 34
M  V30 38 1 6 35
M  V30 39 1 7 36
M  V30 40 1 9 37
M  V30 41 1 11 38
M  V30 42 1 14 39
M  V30 43 1 15 40
M  V30 44 1 16 41
M  V30 45 1 18 42
M  V30 46 1 23 43
M  V30 47 1 24 44
M  V30 48 1 25 45
M  V30 49 1 26 46
M  V30 50 1 27 47
M  V30 51 1 28 48
M  V30 52 1 29 49
M  V30 53 1 31 50
M  V30 54 1 32 51
M  V30 END BOND
M  V30 END CTAB
M  END
>  <Dataset>  (690) 
ChEMBL_Kinases

>  <Ligand_Instance>  (690) 
nan

>  <PDB_ID>  (690) 
nan

>  <Standardized_SMILES>  (690) 
NS(=O)(=O)c1ccc(Nc2cc(-c3cccc(NS(=O)(=O)c4ccccc4)c3)[nH]n2)cc1

>  <Name>  (690) 
nan

>  <Pocket>  (690) 
nan

>  <ATP_Site>  (690) 
nan

>  <Peripheral>  (690) 
nan

>  <Num_H_Atoms_ProtBoundConf>  (690) 
nan

>  <Num_Resolved_Atoms>  (690) 
nan

>  <Num_Not_Resolved_Atoms>  (690) 
nan

$$$$
CHEMBL319903
     RDKit          3D

  0  0  0  0  0  0  0  0  0  0999 V3000
M  V30 BEGIN CTAB
M  V30 COUNTS 36 38 0 0 0
M  V30 BEGIN ATOM
M  V30 1 N 0.693978 -4.576307 3.196103 0
M  V30 2 S 2.025038 -4.823573 2.093349 0
M  V30 3 O 3.210088 -5.213740 2.891224 0
M  V30 4 O 1.582313 -5.876635 1.110239 0
M  V30 5 C 2.334483 -3.343965 1.201051 0
M  V30 6 C 1.723008 -3.155658 -0.025798 0
M  V30 7 C 1.981644 -1.947423 -0.688668 0
M  V30 8 C 2.822045 -1.009054 -0.101213 0
M  V30 9 N 2.857311 0.106791 -1.018457 0
M  V30 10 C 1.886564 1.002129 -0.438546 0
M  V30 11 C 0.530543 0.810511 -0.580184 0
M  V30 12 C -0.247279 1.783862 0.034984 0
M  V30 13 C -1.696685 1.843440 0.047596 0
M  V30 14 C -2.357880 2.887571 0.652724 0
M  V30 15 C -3.746892 2.845937 0.594529 0
M  V30 16 C -4.467629 1.841677 -0.020314 0
M  V30 17 Br -6.369766 1.835534 -0.090483 0
M  V30 18 C -3.785082 0.797086 -0.624345 0
M  V30 19 C -2.412997 0.823717 -0.575522 0
M  V30 20 N 0.709668 2.573628 0.554105 0
M  V30 21 N 1.924628 2.151510 0.299452 0
M  V30 22 C 3.421952 -1.203951 1.109029 0
M  V30 23 C 3.164320 -2.388078 1.751155 0
M  V30 24 H 0.784004 -3.614790 3.606488 0
M  V30 25 H -0.184306 -4.534198 2.604958 0
M  V30 26 H 1.088056 -3.952806 -0.390978 0
M  V30 27 H 1.445092 -1.930333 -1.633551 0
M  V30 28 H 3.403298 0.294980 -1.881892 0
M  V30 29 H 0.085551 -0.028924 -1.118798 0
M  V30 30 H -1.811314 3.671054 1.134394 0
M  V30 31 H -4.298125 3.654295 1.064438 0
M  V30 32 H -4.333644 0.005220 -1.107337 0
M  V30 33 H -1.938991 -0.032657 -1.070386 0
M  V30 34 H 0.490524 3.439331 1.106849 0
M  V30 35 H 4.030030 -0.369385 1.392334 0
M  V30 36 H 3.670117 -2.493671 2.716455 0
M  V30 END ATOM
M  V30 BEGIN BOND
M  V30 1 1 1 2
M  V30 2 2 2 3
M  V30 3 2 2 4
M  V30 4 1 2 5
M  V30 5 2 5 6
M  V30 6 1 6 7
M  V30 7 2 7 8
M  V30 8 1 8 9
M  V30 9 1 9 10
M  V30 10 1 10 11
M  V30 11 2 11 12
M  V30 12 1 12 13
M  V30 13 2 13 14
M  V30 14 1 14 15
M  V30 15 2 15 16
M  V30 16 1 16 17
M  V30 17 1 16 18
M  V30 18 2 18 19
M  V30 19 1 12 20
M  V30 20 1 20 21
M  V30 21 1 8 22
M  V30 22 2 22 23
M  V30 23 1 23 5
M  V30 24 2 21 10
M  V30 25 1 19 13
M  V30 26 1 1 24
M  V30 27 1 1 25
M  V30 28 1 6 26
M  V30 29 1 7 27
M  V30 30 1 9 28
M  V30 31 1 11 29
M  V30 32 1 14 30
M  V30 33 1 15 31
M  V30 34 1 18 32
M  V30 35 1 19 33
M  V30 36 1 20 34
M  V30 37 1 22 35
M  V30 38 1 23 36
M  V30 END BOND
M  V30 END CTAB
M  END
>  <Dataset>  (691) 
ChEMBL_Kinases

>  <Ligand_Instance>  (691) 
nan

>  <PDB_ID>  (691) 
nan

>  <Standardized_SMILES>  (691) 
NS(=O)(=O)c1ccc(Nc2cc(-c3ccc(Br)cc3)[nH]n2)cc1

>  <Name>  (691) 
nan

>  <Pocket>  (691) 
nan

>  <ATP_Site>  (691) 
nan

>  <Peripheral>  (691) 
nan

>  <Num_H_Atoms_ProtBoundConf>  (691) 
nan

>  <Num_Resolved_Atoms>  (691) 
nan

>  <Num_Not_Resolved_Atoms>  (691) 
nan

$$$$
CHEMBL3199093
     RDKit          3D

  0  0  0  0  0  0  0  0  0  0999 V3000
M  V30 BEGIN CTAB
M  V30 COUNTS 31 33 0 0 0
M  V30 BEGIN ATOM
M  V30 1 O -2.341889 -2.706830 0.781735 0
M  V30 2 C -1.415490 -2.315055 1.537213 0
M  V30 3 C -0.316853 -1.388689 1.187313 0
M  V30 4 C -0.085949 -0.743564 -0.101538 0
M  V30 5 N 0.824480 0.060707 -0.490264 0
M  V30 6 C 0.934080 0.623105 -1.793235 0
M  V30 7 C 0.800494 -0.018170 -3.006960 0
M  V30 8 C 0.937133 0.675999 -4.187517 0
M  V30 9 C 1.214138 2.045406 -4.182034 0
M  V30 10 C 1.345696 2.676408 -2.952542 0
M  V30 11 C 1.204413 1.959189 -1.767172 0
M  V30 12 O 1.374330 2.781778 -0.662268 0
M  V30 13 C 0.482725 -1.197115 2.234817 0
M  V30 14 O 1.610562 -0.429177 2.369503 0
M  V30 15 C -0.012761 -1.972425 3.357237 0
M  V30 16 C 0.372389 -2.177703 4.664619 0
M  V30 17 C -0.278334 -2.986017 5.572328 0
M  V30 18 C -1.419971 -3.645238 5.117312 0
M  V30 19 C -1.843262 -3.463292 3.798264 0
M  V30 20 C -1.148678 -2.640001 2.935966 0
M  V30 21 H -0.795200 -0.956438 -0.914851 0
M  V30 22 H 0.585935 -1.080243 -2.924697 0
M  V30 23 H 0.818407 0.103334 -5.093367 0
M  V30 24 H 1.317946 2.573446 -5.120743 0
M  V30 25 H 1.561950 3.746837 -3.034048 0
M  V30 26 H 1.069548 2.413450 0.251579 0
M  V30 27 H 1.681609 0.553663 2.475728 0
M  V30 28 H 1.268911 -1.660602 5.023504 0
M  V30 29 H 0.102288 -3.082928 6.578473 0
M  V30 30 H -1.959835 -4.290025 5.800732 0
M  V30 31 H -2.734177 -3.984120 3.460378 0
M  V30 END ATOM
M  V30 BEGIN BOND
M  V30 1 2 1 2
M  V30 2 1 2 3
M  V30 3 1 3 4
M  V30 4 2 4 5
M  V30 5 1 5 6
M  V30 6 2 6 7
M  V30 7 1 7 8
M  V30 8 2 8 9
M  V30 9 1 9 10
M  V30 10 2 10 11
M  V30 11 1 11 12
M  V30 12 2 3 13
M  V30 13 1 13 14
M  V30 14 1 13 15
M  V30 15 2 15 16
M  V30 16 1 16 17
M  V30 17 2 17 18
M  V30 18 1 18 19
M  V30 19 2 19 20
M  V30 20 1 20 2
M  V30 21 1 11 6
M  V30 22 1 20 15
M  V30 23 1 4 21
M  V30 24 1 7 22
M  V30 25 1 8 23
M  V30 26 1 9 24
M  V30 27 1 10 25
M  V30 28 1 12 26
M  V30 29 1 14 27
M  V30 30 1 16 28
M  V30 31 1 17 29
M  V30 32 1 18 30
M  V30 33 1 19 31
M  V30 END BOND
M  V30 END CTAB
M  END
>  <Dataset>  (692) 
ChEMBL_Kinases

>  <Ligand_Instance>  (692) 
nan

>  <PDB_ID>  (692) 
nan

>  <Standardized_SMILES>  (692) 
O=C1C(/C=N/c2ccccc2O)=C(O)c2ccccc21

>  <Name>  (692) 
nan

>  <Pocket>  (692) 
nan

>  <ATP_Site>  (692) 
nan

>  <Peripheral>  (692) 
nan

>  <Num_H_Atoms_ProtBoundConf>  (692) 
nan

>  <Num_Resolved_Atoms>  (692) 
nan

>  <Num_Not_Resolved_Atoms>  (692) 
nan

$$$$
CHEMBL3199246
     RDKit          3D

  0  0  0  0  0  0  0  0  0  0999 V3000
M  V30 BEGIN CTAB
M  V30 COUNTS 60 63 0 0 0
M  V30 BEGIN ATOM
M  V30 1 C 0.151679 -3.574268 3.277814 0
M  V30 2 C 0.378549 -3.104008 1.906824 0
M  V30 3 N 1.137537 -2.071777 1.632568 0
M  V30 4 N 1.748256 -1.402660 2.729455 0
M  V30 5 C 1.865350 -0.131663 2.096840 0
M  V30 6 C 3.116152 0.211651 1.632644 0
M  V30 7 C 3.285949 1.425396 1.004212 0
M  V30 8 C 2.260671 2.354353 0.798352 0
M  V30 9 S 2.562184 3.878779 -0.003087 0
M  V30 10 O 3.787865 3.733926 -0.894583 0
M  V30 11 O 1.395989 4.263598 -0.891424 0
M  V30 12 N 2.894824 5.153932 1.104312 0
M  V30 13 C 2.030877 5.655388 2.104778 0
M  V30 14 C 2.279955 5.961566 3.423896 0
M  V30 15 C 1.286755 6.446763 4.246271 0
M  V30 16 C 0.003547 6.646216 3.786036 0
M  V30 17 C -0.282232 6.344784 2.449038 0
M  V30 18 C 0.731761 5.854930 1.628816 0
M  V30 19 C 1.013320 2.000416 1.267041 0
M  V30 20 C 0.845984 0.769874 1.902738 0
M  V30 21 N -0.418833 0.374273 2.385903 0 CHG=1 VAL=4
M  V30 22 O -0.658200 -0.331656 3.383707 0
M  V30 23 O -1.768323 0.466377 2.174684 0 CHG=-1 VAL=1
M  V30 24 C -0.254680 -3.760404 0.771858 0
M  V30 25 C -0.022290 -3.277919 -0.505314 0
M  V30 26 C -0.604028 -3.829664 -1.646860 0
M  V30 27 C -1.450611 -4.906467 -1.493657 0
M  V30 28 N -2.115012 -5.558715 -2.600580 0
M  V30 29 C -3.100834 -6.597315 -2.435734 0
M  V30 30 C -4.052388 -6.595121 -3.593271 0
M  V30 31 O -4.263581 -5.267544 -3.981514 0
M  V30 32 C -3.145138 -4.785084 -4.672250 0
M  V30 33 C -1.875994 -5.252953 -4.004368 0
M  V30 34 C -1.718190 -5.430003 -0.247255 0
M  V30 35 C -1.111064 -4.843441 0.871108 0
M  V30 36 H 0.899531 -3.173776 4.001351 0
M  V30 37 H -0.835503 -3.182618 3.602056 0
M  V30 38 H 0.065560 -4.684286 3.357265 0
M  V30 39 H 2.108678 -1.476324 3.719919 0
M  V30 40 H 3.995914 -0.444205 1.743065 0
M  V30 41 H 4.263034 1.748212 0.617317 0
M  V30 42 H 3.760789 5.745545 1.212488 0
M  V30 43 H 3.312829 5.778021 3.711704 0
M  V30 44 H 1.558769 6.670107 5.288581 0
M  V30 45 H -0.777906 7.028048 4.435794 0
M  V30 46 H -1.304151 6.522477 2.147732 0
M  V30 47 H 0.329286 5.675362 0.619789 0
M  V30 48 H 0.169759 2.667010 1.142628 0
M  V30 49 H 0.638139 -2.429748 -0.683907 0
M  V30 50 H -0.396751 -3.421592 -2.619162 0
M  V30 51 H -2.632741 -7.593002 -2.271369 0
M  V30 52 H -3.683667 -6.369973 -1.505900 0
M  V30 53 H -5.071229 -6.995752 -3.325243 0
M  V30 54 H -3.700210 -7.227369 -4.437457 0
M  V30 55 H -3.206383 -3.685212 -4.664727 0
M  V30 56 H -3.223215 -5.132273 -5.713105 0
M  V30 57 H -1.071549 -4.518853 -4.152317 0
M  V30 58 H -1.550328 -6.197422 -4.481787 0
M  V30 59 H -2.349596 -6.260109 0.017060 0
M  V30 60 H -1.278189 -5.208791 1.894095 0
M  V30 END ATOM
M  V30 BEGIN BOND
M  V30 1 1 1 2
M  V30 2 2 2 3
M  V30 3 1 3 4
M  V30 4 1 4 5
M  V30 5 2 5 6
M  V30 6 1 6 7
M  V30 7 2 7 8
M  V30 8 1 8 9
M  V30 9 2 9 10
M  V30 10 2 9 11
M  V30 11 1 9 12
M  V30 12 1 12 13
M  V30 13 2 13 14
M  V30 14 1 14 15
M  V30 15 2 15 16
M  V30 16 1 16 17
M  V30 17 2 17 18
M  V30 18 1 8 19
M  V30 19 2 19 20
M  V30 20 1 20 21
M  V30 21 2 21 22
M  V30 22 1 21 23
M  V30 23 1 2 24
M  V30 24 2 24 25
M  V30 25 1 25 26
M  V30 26 2 26 27
M  V30 27 1 27 28
M  V30 28 1 28 29
M  V30 29 1 29 30
M  V30 30 1 30 31
M  V30 31 1 31 32
M  V30 32 1 32 33
M  V30 33 1 27 34
M  V30 34 2 34 35
M  V30 35 1 20 5
M  V30 36 1 35 24
M  V30 37 1 18 13
M  V30 38 1 33 28
M  V30 39 1 1 36
M  V30 40 1 1 37
M  V30 41 1 1 38
M  V30 42 1 4 39
M  V30 43 1 6 40
M  V30 44 1 7 41
M  V30 45 1 12 42
M  V30 46 1 14 43
M  V30 47 1 15 44
M  V30 48 1 16 45
M  V30 49 1 17 46
M  V30 50 1 18 47
M  V30 51 1 19 48
M  V30 52 1 25 49
M  V30 53 1 26 50
M  V30 54 1 29 51
M  V30 55 1 29 52
M  V30 56 1 30 53
M  V30 57 1 30 54
M  V30 58 1 32 55
M  V30 59 1 32 56
M  V30 60 1 33 57
M  V30 61 1 33 58
M  V30 62 1 34 59
M  V30 63 1 35 60
M  V30 END BOND
M  V30 END CTAB
M  END
>  <Dataset>  (693) 
ChEMBL_Kinases

>  <Ligand_Instance>  (693) 
nan

>  <PDB_ID>  (693) 
nan

>  <Standardized_SMILES>  (693) 
C/C(=N\Nc1ccc(S(=O)(=O)Nc2ccccc2)cc1[N+](=O)[O-])c1ccc(N2CCOCC2)cc1

>  <Name>  (693) 
nan

>  <Pocket>  (693) 
nan

>  <ATP_Site>  (693) 
nan

>  <Peripheral>  (693) 
nan

>  <Num_H_Atoms_ProtBoundConf>  (693) 
nan

>  <Num_Resolved_Atoms>  (693) 
nan

>  <Num_Not_Resolved_Atoms>  (693) 
nan

$$$$
CHEMBL3199337
     RDKit          3D

  0  0  0  0  0  0  0  0  0  0999 V3000
M  V30 BEGIN CTAB
M  V30 COUNTS 38 39 0 0 0
M  V30 BEGIN ATOM
M  V30 1 C 0.582063 3.195722 3.621724 0
M  V30 2 C -0.197463 1.937023 3.519719 0
M  V30 3 N -0.813131 1.670529 4.602126 0
M  V30 4 C -0.046803 1.337241 2.211562 0
M  V30 5 C 0.731800 1.860886 1.139536 0
M  V30 6 N 1.376448 2.286587 0.285440 0
M  V30 7 C -0.747100 0.247701 2.202376 0
M  V30 8 O -0.629119 -0.367214 0.958418 0
M  V30 9 C -1.627154 -0.596998 2.997752 0
M  V30 10 S -3.267496 -0.772829 2.154271 0
M  V30 11 C -3.026187 -1.664277 0.617934 0
M  V30 12 N -3.086467 -2.811143 0.534969 0
M  V30 13 N -2.930260 -3.564000 -0.510825 0
M  V30 14 C -2.693526 -3.184950 -1.580773 0
M  V30 15 N -2.376585 -3.026043 -3.057618 0
M  V30 16 C -1.042206 -2.744283 -3.530585 0
M  V30 17 C -0.827764 -2.701056 -4.884653 0
M  V30 18 C 0.484805 -2.404306 -5.257026 0
M  V30 19 C 1.487111 -2.173398 -4.350342 0
M  V30 20 C 1.157716 -2.242948 -2.991214 0
M  V30 21 C 2.303601 -1.973968 -2.071176 0
M  V30 22 C -0.112493 -2.529538 -2.542378 0
M  V30 23 S -2.642014 -1.336467 -1.219587 0
M  V30 24 H 0.630428 3.635712 4.613172 0
M  V30 25 H 0.247256 3.906732 2.832429 0
M  V30 26 H 1.645228 2.937257 3.335085 0
M  V30 27 H -0.690543 2.348067 5.383238 0
M  V30 28 H 0.213320 -0.918229 0.740639 0
M  V30 29 H -1.234520 -1.648210 3.013036 0
M  V30 30 H -1.796141 -0.302161 4.041120 0
M  V30 31 H -3.211280 -3.143518 -3.655254 0
M  V30 32 H -1.660802 -2.893899 -5.532969 0
M  V30 33 H 0.659687 -2.368752 -6.343328 0
M  V30 34 H 2.488949 -1.945476 -4.686524 0
M  V30 35 H 3.119657 -2.690082 -2.223469 0
M  V30 36 H 1.979304 -2.035042 -1.012485 0
M  V30 37 H 2.630575 -0.911538 -2.261344 0
M  V30 38 H -0.321012 -2.571824 -1.487725 0
M  V30 END ATOM
M  V30 BEGIN BOND
M  V30 1 1 1 2
M  V30 2 2 2 3
M  V30 3 1 2 4
M  V30 4 1 4 5
M  V30 5 3 5 6
M  V30 6 2 4 7
M  V30 7 1 7 8
M  V30 8 1 7 9
M  V30 9 1 9 10
M  V30 10 1 10 11
M  V30 11 2 11 12
M  V30 12 1 12 13
M  V30 13 2 13 14
M  V30 14 1 14 15
M  V30 15 1 15 16
M  V30 16 2 16 17
M  V30 17 1 17 18
M  V30 18 2 18 19
M  V30 19 1 19 20
M  V30 20 1 20 21
M  V30 21 2 20 22
M  V30 22 1 14 23
M  V30 23 1 23 11
M  V30 24 1 22 16
M  V30 25 1 1 24
M  V30 26 1 1 25
M  V30 27 1 1 26
M  V30 28 1 3 27
M  V30 29 1 8 28
M  V30 30 1 9 29
M  V30 31 1 9 30
M  V30 32 1 15 31
M  V30 33 1 17 32
M  V30 34 1 18 33
M  V30 35 1 19 34
M  V30 36 1 21 35
M  V30 37 1 21 36
M  V30 38 1 21 37
M  V30 39 1 22 38
M  V30 END BOND
M  V30 END CTAB
M  END
>  <Dataset>  (694) 
ChEMBL_Kinases

>  <Ligand_Instance>  (694) 
nan

>  <PDB_ID>  (694) 
nan

>  <Standardized_SMILES>  (694) 
CC(=N)/C(C#N)=C(/O)CSc1nnc(Nc2cccc(C)c2)s1

>  <Name>  (694) 
nan

>  <Pocket>  (694) 
nan

>  <ATP_Site>  (694) 
nan

>  <Peripheral>  (694) 
nan

>  <Num_H_Atoms_ProtBoundConf>  (694) 
nan

>  <Num_Resolved_Atoms>  (694) 
nan

>  <Num_Not_Resolved_Atoms>  (694) 
nan

$$$$
CHEMBL3199569
     RDKit          3D

  0  0  0  0  0  0  0  0  0  0999 V3000
M  V30 BEGIN CTAB
M  V30 COUNTS 69 72 0 0 0
M  V30 BEGIN ATOM
M  V30 1 C 2.362746 1.427144 7.540796 0
M  V30 2 O 1.798660 1.612713 6.272235 0
M  V30 3 C 2.639108 1.852094 5.193751 0
M  V30 4 C 3.998442 1.896565 5.420933 0
M  V30 5 C 4.805482 2.135770 4.331634 0
M  V30 6 C 4.298830 2.325444 3.060502 0
M  V30 7 O 5.155532 2.564021 1.992404 0
M  V30 8 C 6.531174 2.609543 2.219212 0
M  V30 9 C 2.942623 2.283898 2.817539 0
M  V30 10 N 2.484217 2.485172 1.496213 0
M  V30 11 C 1.175060 2.490854 0.999132 0
M  V30 12 O 0.207079 2.296831 1.772992 0
M  V30 13 C 0.791549 2.712730 -0.414682 0
M  V30 14 C -0.690484 2.654273 -0.606650 0
M  V30 15 C -1.092367 1.434847 -1.411470 0
M  V30 16 C -0.451719 0.246639 -0.774116 0
M  V30 17 C -0.976299 -1.070855 -1.361317 0
M  V30 18 N -0.256801 -2.101618 -0.637043 0
M  V30 19 C -0.684718 -3.295732 -0.492106 0
M  V30 20 C -1.800785 -3.989010 -0.885359 0
M  V30 21 N -2.968547 -3.663989 -1.631095 0
M  V30 22 C -2.969024 -3.840679 -3.081144 0
M  V30 23 C -4.244227 -3.277062 -3.650465 0
M  V30 24 C -5.411927 -3.962787 -2.978350 0
M  V30 25 C -5.311020 -5.438429 -3.311607 0
M  V30 26 C -5.412726 -3.806457 -1.499474 0
M  V30 27 C -4.160889 -3.157338 -0.959175 0
M  V30 28 C -1.279860 -5.093125 -0.247244 0
M  V30 29 O -1.687340 -6.402836 -0.054407 0
M  V30 30 C -0.145706 -4.393379 0.153886 0
M  V30 31 O 0.887538 -4.680944 0.813838 0
M  V30 32 C 1.043138 0.324468 -0.868649 0
M  V30 33 C 1.499346 1.689420 -1.275198 0
M  V30 34 C 2.165582 2.045431 3.913323 0
M  V30 35 H 3.129349 0.651620 7.591773 0
M  V30 36 H 1.516971 1.177144 8.237745 0
M  V30 37 H 2.833667 2.374986 7.901415 0
M  V30 38 H 4.432918 1.753557 6.397768 0
M  V30 39 H 5.881544 2.186030 4.424833 0
M  V30 40 H 6.865507 3.325349 2.979197 0
M  V30 41 H 7.050219 2.870450 1.258578 0
M  V30 42 H 6.942787 1.620162 2.513356 0
M  V30 43 H 3.168574 2.660571 0.729581 0
M  V30 44 H 1.160400 3.709535 -0.785126 0
M  V30 45 H -1.171235 2.533026 0.399331 0
M  V30 46 H -1.115429 3.586660 -1.027535 0
M  V30 47 H -2.208091 1.328880 -1.367334 0
M  V30 48 H -0.852405 1.528742 -2.489500 0
M  V30 49 H -0.818591 0.221697 0.289527 0
M  V30 50 H -2.052547 -1.055734 -1.175646 0
M  V30 51 H -0.724532 -1.040057 -2.429772 0
M  V30 52 H -2.054765 -3.496065 -3.561100 0
M  V30 53 H -3.038707 -4.949645 -3.224004 0
M  V30 54 H -4.334277 -2.183421 -3.562495 0
M  V30 55 H -4.232604 -3.523797 -4.731674 0
M  V30 56 H -6.334481 -3.560042 -3.463155 0
M  V30 57 H -4.800613 -5.610013 -4.281117 0
M  V30 58 H -6.345485 -5.874434 -3.331572 0
M  V30 59 H -4.792445 -5.935325 -2.468667 0
M  V30 60 H -6.248584 -3.090999 -1.250558 0
M  V30 61 H -5.644420 -4.726738 -0.923033 0
M  V30 62 H -4.093913 -3.464896 0.120754 0
M  V30 63 H -4.220005 -2.068809 -0.975598 0
M  V30 64 H -1.393528 -6.969426 0.727992 0
M  V30 65 H 1.470373 0.096702 0.133649 0
M  V30 66 H 1.420060 -0.471984 -1.542059 0
M  V30 67 H 2.586911 1.775546 -1.155641 0
M  V30 68 H 1.277899 1.906871 -2.344817 0
M  V30 69 H 1.106648 1.994461 3.830386 0
M  V30 END ATOM
M  V30 BEGIN BOND
M  V30 1 1 1 2
M  V30 2 1 2 3
M  V30 3 2 3 4
M  V30 4 1 4 5
M  V30 5 2 5 6
M  V30 6 1 6 7
M  V30 7 1 7 8
M  V30 8 1 6 9
M  V30 9 1 9 10
M  V30 10 1 10 11
M  V30 11 2 11 12
M  V30 12 1 11 13
M  V30 13 1 13 14
M  V30 14 1 14 15
M  V30 15 1 15 16
M  V30 16 1 16 17
M  V30 17 1 17 18
M  V30 18 2 18 19
M  V30 19 1 19 20
M  V30 20 1 20 21
M  V30 21 1 21 22
M  V30 22 1 22 23
M  V30 23 1 23 24
M  V30 24 1 24 25
M  V30 25 1 24 26
M  V30 26 1 26 27
M  V30 27 2 20 28
M  V30 28 1 28 29
M  V30 29 1 28 30
M  V30 30 2 30 31
M  V30 31 1 16 32
M  V30 32 1 32 33
M  V30 33 2 9 34
M  V30 34 1 34 3
M  V30 35 1 33 13
M  V30 36 1 30 19
M  V30 37 1 27 21
M  V30 38 1 1 35
M  V30 39 1 1 36
M  V30 40 1 1 37
M  V30 41 1 4 38
M  V30 42 1 5 39
M  V30 43 1 8 40
M  V30 44 1 8 41
M  V30 45 1 8 42
M  V30 46 1 10 43
M  V30 47 1 13 44
M  V30 48 1 14 45
M  V30 49 1 14 46
M  V30 50 1 15 47
M  V30 51 1 15 48
M  V30 52 1 16 49
M  V30 53 1 17 50
M  V30 54 1 17 51
M  V30 55 1 22 52
M  V30 56 1 22 53
M  V30 57 1 23 54
M  V30 58 1 23 55
M  V30 59 1 24 56
M  V30 60 1 25 57
M  V30 61 1 25 58
M  V30 62 1 25 59
M  V30 63 1 26 60
M  V30 64 1 26 61
M  V30 65 1 27 62
M  V30 66 1 27 63
M  V30 67 1 29 64
M  V30 68 1 32 65
M  V30 69 1 32 66
M  V30 70 1 33 67
M  V30 71 1 33 68
M  V30 72 1 34 69
M  V30 END BOND
M  V30 END CTAB
M  END
>  <Dataset>  (695) 
ChEMBL_Kinases

>  <Ligand_Instance>  (695) 
nan

>  <PDB_ID>  (695) 
nan

>  <Standardized_SMILES>  (695) 
COc1ccc(OC)c(NC(=O)C2CCC(C/N=c3\c(N4CCC(C)CC4)c(O)c3=O)CC2)c1

>  <Name>  (695) 
nan

>  <Pocket>  (695) 
nan

>  <ATP_Site>  (695) 
nan

>  <Peripheral>  (695) 
nan

>  <Num_H_Atoms_ProtBoundConf>  (695) 
nan

>  <Num_Resolved_Atoms>  (695) 
nan

>  <Num_Not_Resolved_Atoms>  (695) 
nan

$$$$
CHEMBL3199576
     RDKit          3D

  0  0  0  0  0  0  0  0  0  0999 V3000
M  V30 BEGIN CTAB
M  V30 COUNTS 39 41 0 0 0
M  V30 BEGIN ATOM
M  V30 1 C -1.253458 -1.009689 1.273820 0
M  V30 2 C 0.031743 -0.493732 0.809247 0
M  V30 3 N 0.788154 -1.042262 -0.044737 0
M  V30 4 C 0.445040 -2.318093 -0.696016 0
M  V30 5 C 0.665748 -3.485828 0.183353 0
M  V30 6 C -0.237482 -4.647715 0.119799 0
M  V30 7 C -1.570188 -4.457025 -0.504630 0
M  V30 8 C -1.621771 -3.465477 -1.600880 0
M  V30 9 C -0.778213 -2.267091 -1.519226 0
M  V30 10 C 0.493659 0.785202 1.387171 0
M  V30 11 C 1.650306 1.368566 1.050076 0
M  V30 12 O 2.607308 0.928692 0.142696 0
M  V30 13 C 1.790848 2.622922 1.815330 0
M  V30 14 C 2.789040 3.577538 1.831788 0
M  V30 15 C 2.668866 4.687805 2.664463 0
M  V30 16 C 1.574083 4.873179 3.485955 0
M  V30 17 C 0.568719 3.906025 3.465509 0
M  V30 18 C 0.693426 2.798147 2.631584 0
M  V30 19 C -0.180073 1.629645 2.390262 0
M  V30 20 O -1.272647 1.392734 2.922676 0
M  V30 21 H -1.225712 -0.884618 2.398596 0
M  V30 22 H -1.448600 -2.069328 1.133146 0
M  V30 23 H -2.129127 -0.363787 0.986655 0
M  V30 24 H 1.284813 -2.335258 -1.439366 0
M  V30 25 H 0.724092 -3.078007 1.240088 0
M  V30 26 H 1.707281 -3.919911 0.098630 0
M  V30 27 H 0.226899 -5.552183 -0.372066 0
M  V30 28 H -0.427342 -5.023219 1.167095 0
M  V30 29 H -2.335146 -4.202914 0.289135 0
M  V30 30 H -1.964986 -5.426569 -0.882593 0
M  V30 31 H -2.697643 -3.119999 -1.654578 0
M  V30 32 H -1.513294 -4.017514 -2.582191 0
M  V30 33 H -0.605184 -1.955490 -2.596897 0
M  V30 34 H -1.367485 -1.368247 -1.160064 0
M  V30 35 H 2.284661 0.689190 -0.803826 0
M  V30 36 H 3.689869 3.495587 1.203928 0
M  V30 37 H 3.445300 5.441470 2.684849 0
M  V30 38 H 1.414499 5.698500 4.149544 0
M  V30 39 H -0.329040 3.967953 4.077791 0
M  V30 END ATOM
M  V30 BEGIN BOND
M  V30 1 1 1 2
M  V30 2 2 2 3
M  V30 3 1 3 4
M  V30 4 1 4 5
M  V30 5 1 5 6
M  V30 6 1 6 7
M  V30 7 1 7 8
M  V30 8 1 8 9
M  V30 9 1 2 10
M  V30 10 2 10 11
M  V30 11 1 11 12
M  V30 12 1 11 13
M  V30 13 2 13 14
M  V30 14 1 14 15
M  V30 15 2 15 16
M  V30 16 1 16 17
M  V30 17 2 17 18
M  V30 18 1 18 19
M  V30 19 2 19 20
M  V30 20 1 9 4
M  V30 21 1 19 10
M  V30 22 1 18 13
M  V30 23 1 1 21
M  V30 24 1 1 22
M  V30 25 1 1 23
M  V30 26 1 4 24
M  V30 27 1 5 25
M  V30 28 1 5 26
M  V30 29 1 6 27
M  V30 30 1 6 28
M  V30 31 1 7 29
M  V30 32 1 7 30
M  V30 33 1 8 31
M  V30 34 1 8 32
M  V30 35 1 9 33
M  V30 36 1 9 34
M  V30 37 1 12 35
M  V30 38 1 14 36
M  V30 39 1 15 37
M  V30 40 1 16 38
M  V30 41 1 17 39
M  V30 END BOND
M  V30 END CTAB
M  END
>  <Dataset>  (696) 
ChEMBL_Kinases

>  <Ligand_Instance>  (696) 
nan

>  <PDB_ID>  (696) 
nan

>  <Standardized_SMILES>  (696) 
C/C(=N\C1CCCCC1)C1=C(O)c2ccccc2C1=O

>  <Name>  (696) 
nan

>  <Pocket>  (696) 
nan

>  <ATP_Site>  (696) 
nan

>  <Peripheral>  (696) 
nan

>  <Num_H_Atoms_ProtBoundConf>  (696) 
nan

>  <Num_Resolved_Atoms>  (696) 
nan

>  <Num_Not_Resolved_Atoms>  (696) 
nan

$$$$
CHEMBL3199668
     RDKit          3D

  0  0  0  0  0  0  0  0  0  0999 V3000
M  V30 BEGIN CTAB
M  V30 COUNTS 47 50 0 0 0
M  V30 BEGIN ATOM
M  V30 1 C -0.465866 -3.591239 1.868002 0
M  V30 2 C 0.893636 -3.166138 2.362537 0
M  V30 3 C 1.527899 -2.152637 1.449255 0
M  V30 4 C 1.715207 -2.690612 0.047599 0
M  V30 5 N 2.321865 -1.675487 -0.769721 0
M  V30 6 C 3.743484 -1.634360 -0.691110 0
M  V30 7 C 4.276607 -0.650531 0.305070 0
M  V30 8 N 3.370533 -0.514018 1.419724 0
M  V30 9 C 2.440771 0.555992 1.271210 0
M  V30 10 C 1.196551 0.115814 0.488277 0
M  V30 11 C 1.629417 -0.445963 -0.820946 0
M  V30 12 C 0.631962 -0.980856 1.328947 0
M  V30 13 N -0.507359 -0.893150 1.877938 0
M  V30 14 N -1.218440 0.292055 1.654884 0
M  V30 15 C -2.540142 0.123075 1.167799 0
M  V30 16 O -2.956358 -1.049529 0.980027 0
M  V30 17 C -3.441483 1.231883 0.873343 0
M  V30 18 C -4.702885 0.927219 0.405682 0
M  V30 19 C -5.549350 1.977338 0.129446 0
M  V30 20 C -5.200163 3.307029 0.296160 0
M  V30 21 Cl -6.313974 4.625434 -0.069679 0
M  V30 22 C -3.923908 3.604180 0.769016 0
M  V30 23 C -3.066377 2.548082 1.049129 0
M  V30 24 C 2.882682 -1.733052 1.960755 0
M  V30 25 H -0.414288 -4.657941 1.593857 0
M  V30 26 H -1.268944 -3.451993 2.626990 0
M  V30 27 H -0.763069 -3.054092 0.932378 0
M  V30 28 H 0.702903 -2.640879 3.344919 0
M  V30 29 H 1.512345 -4.047994 2.512664 0
M  V30 30 H 2.441104 -3.525880 0.132113 0
M  V30 31 H 0.774276 -3.032599 -0.402933 0
M  V30 32 H 4.072260 -2.649939 -0.320252 0
M  V30 33 H 4.219208 -1.548035 -1.687127 0
M  V30 34 H 5.280080 -0.936438 0.682655 0
M  V30 35 H 4.396924 0.368468 -0.134116 0
M  V30 36 H 2.946279 1.389765 0.786017 0
M  V30 37 H 2.061918 0.849566 2.267504 0
M  V30 38 H 0.528651 0.965217 0.345759 0
M  V30 39 H 2.316727 0.306382 -1.286761 0
M  V30 40 H 0.775850 -0.506267 -1.544403 0
M  V30 41 H -0.850070 1.251807 1.818862 0
M  V30 42 H -5.051979 -0.079065 0.248538 0
M  V30 43 H -6.557222 1.752952 -0.243690 0
M  V30 44 H -3.616215 4.630115 0.911719 0
M  V30 45 H -2.100968 2.807559 1.407870 0
M  V30 46 H 3.607903 -2.532021 1.693967 0
M  V30 47 H 2.832100 -1.733487 3.081717 0
M  V30 END ATOM
M  V30 BEGIN BOND
M  V30 1 1 1 2
M  V30 2 1 2 3
M  V30 3 1 3 4
M  V30 4 1 4 5
M  V30 5 1 5 6
M  V30 6 1 6 7
M  V30 7 1 7 8
M  V30 8 1 8 9
M  V30 9 1 9 10
M  V30 10 1 10 11
M  V30 11 1 10 12
M  V30 12 2 12 13
M  V30 13 1 13 14
M  V30 14 1 14 15
M  V30 15 2 15 16
M  V30 16 1 15 17
M  V30 17 2 17 18
M  V30 18 1 18 19
M  V30 19 2 19 20
M  V30 20 1 20 21
M  V30 21 1 20 22
M  V30 22 2 22 23
M  V30 23 1 8 24
M  V30 24 1 12 3
M  V30 25 1 23 17
M  V30 26 1 24 3
M  V30 27 1 11 5
M  V30 28 1 1 25
M  V30 29 1 1 26
M  V30 30 1 1 27
M  V30 31 1 2 28
M  V30 32 1 2 29
M  V30 33 1 4 30
M  V30 34 1 4 31
M  V30 35 1 6 32
M  V30 36 1 6 33
M  V30 37 1 7 34
M  V30 38 1 7 35
M  V30 39 1 9 36
M  V30 40 1 9 37
M  V30 41 1 10 38
M  V30 42 1 11 39
M  V30 43 1 11 40
M  V30 44 1 14 41
M  V30 45 1 18 42
M  V30 46 1 19 43
M  V30 47 1 22 44
M  V30 48 1 23 45
M  V30 49 1 24 46
M  V30 50 1 24 47
M  V30 END BOND
M  V30 END CTAB
M  END
>  <Dataset>  (697) 
ChEMBL_Kinases

>  <Ligand_Instance>  (697) 
nan

>  <PDB_ID>  (697) 
nan

>  <Standardized_SMILES>  (697) 
CCC12CN3CCN(CC(C3)/C1=N\NC(=O)c1ccc(Cl)cc1)C2

>  <Name>  (697) 
nan

>  <Pocket>  (697) 
nan

>  <ATP_Site>  (697) 
nan

>  <Peripheral>  (697) 
nan

>  <Num_H_Atoms_ProtBoundConf>  (697) 
nan

>  <Num_Resolved_Atoms>  (697) 
nan

>  <Num_Not_Resolved_Atoms>  (697) 
nan

$$$$
CHEMBL3208117
     RDKit          3D

  0  0  0  0  0  0  0  0  0  0999 V3000
M  V30 BEGIN CTAB
M  V30 COUNTS 56 58 0 0 0
M  V30 BEGIN ATOM
M  V30 1 C 6.093014 -6.340609 0.839884 0
M  V30 2 O 5.256375 -5.192962 0.751470 0
M  V30 3 C 5.716163 -3.972629 0.258487 0
M  V30 4 O 6.890012 -3.769088 -0.148148 0
M  V30 5 C 4.791777 -2.833133 0.198494 0
M  V30 6 C 5.280572 -1.626978 -0.298885 0
M  V30 7 C 4.437904 -0.526235 -0.371548 0
M  V30 8 C 3.117510 -0.621790 0.047041 0
M  V30 9 C 2.213404 0.522306 -0.019877 0
M  V30 10 N 1.005982 0.432695 0.364488 0
M  V30 11 N 0.084613 1.489996 0.327955 0
M  V30 12 C 0.546635 2.740439 0.885615 0
M  V30 13 O 1.642840 3.172243 1.320265 0
M  V30 14 C -0.662192 3.641895 0.889295 0
M  V30 15 N -1.696033 2.611274 1.012612 0
M  V30 16 C -1.453823 1.972984 2.286445 0
M  V30 17 C -1.557752 2.989863 3.397730 0
M  V30 18 C -2.394166 0.855961 2.616505 0
M  V30 19 C -1.264406 1.792241 -0.103341 0
M  V30 20 C -2.105728 0.666075 -0.407834 0
M  V30 21 C -3.459682 0.975923 -0.412122 0
M  V30 22 C -4.438096 0.012320 -0.686669 0
M  V30 23 C -4.076075 -1.285837 -0.963196 0
M  V30 24 C -5.094024 -2.290193 -1.249076 0
M  V30 25 O -6.296127 -1.931841 -1.234916 0
M  V30 26 O -4.787248 -3.591481 -1.528155 0
M  V30 27 C -5.812804 -4.528020 -1.798609 0
M  V30 28 C -2.729136 -1.619234 -0.964640 0
M  V30 29 C -1.784256 -0.649507 -0.690643 0
M  V30 30 C 2.682140 -1.837586 0.531499 0
M  V30 31 C 3.475586 -2.962403 0.625763 0
M  V30 32 H 7.101369 -6.175121 0.409796 0
M  V30 33 H 5.585829 -7.138702 0.250490 0
M  V30 34 H 6.192383 -6.725741 1.873865 0
M  V30 35 H 6.310747 -1.507936 -0.638521 0
M  V30 36 H 4.823765 0.419322 -0.762217 0
M  V30 37 H 2.585718 1.462450 -0.405494 0
M  V30 38 H -0.656549 4.370281 1.692046 0
M  V30 39 H -0.816194 4.125033 -0.096536 0
M  V30 40 H -0.392159 1.631940 2.302124 0
M  V30 41 H -2.424068 3.674430 3.295677 0
M  V30 42 H -0.607738 3.538981 3.565127 0
M  V30 43 H -1.714932 2.419935 4.337663 0
M  V30 44 H -2.298122 0.704414 3.731405 0
M  V30 45 H -2.140942 -0.121592 2.190490 0
M  V30 46 H -3.424321 1.194232 2.477066 0
M  V30 47 H -1.144595 2.472837 -0.990302 0
M  V30 48 H -3.882665 1.958086 -0.210882 0
M  V30 49 H -5.500011 0.251436 -0.690932 0
M  V30 50 H -6.780830 -4.034361 -2.059176 0
M  V30 51 H -6.007674 -5.201174 -0.945006 0
M  V30 52 H -5.510904 -5.119050 -2.686844 0
M  V30 53 H -2.401217 -2.624515 -1.176037 0
M  V30 54 H -0.709710 -0.840494 -0.675109 0
M  V30 55 H 1.656378 -1.921372 0.859330 0
M  V30 56 H 3.156970 -3.915873 0.998930 0
M  V30 END ATOM
M  V30 BEGIN BOND
M  V30 1 1 1 2
M  V30 2 1 2 3
M  V30 3 2 3 4
M  V30 4 1 3 5
M  V30 5 2 5 6
M  V30 6 1 6 7
M  V30 7 2 7 8
M  V30 8 1 8 9
M  V30 9 2 9 10
M  V30 10 1 10 11
M  V30 11 1 11 12
M  V30 12 2 12 13
M  V30 13 1 12 14
M  V30 14 1 14 15
M  V30 15 1 15 16
M  V30 16 1 16 17
M  V30 17 1 16 18
M  V30 18 1 15 19
M  V30 19 1 19 20
M  V30 20 2 20 21
M  V30 21 1 21 22
M  V30 22 2 22 23
M  V30 23 1 23 24
M  V30 24 2 24 25
M  V30 25 1 24 26
M  V30 26 1 26 27
M  V30 27 1 23 28
M  V30 28 2 28 29
M  V30 29 1 8 30
M  V30 30 2 30 31
M  V30 31 1 31 5
M  V30 32 1 19 11
M  V30 33 1 29 20
M  V30 34 1 1 32
M  V30 35 1 1 33
M  V30 36 1 1 34
M  V30 37 1 6 35
M  V30 38 1 7 36
M  V30 39 1 9 37
M  V30 40 1 14 38
M  V30 41 1 14 39
M  V30 42 1 16 40
M  V30 43 1 17 41
M  V30 44 1 17 42
M  V30 45 1 17 43
M  V30 46 1 18 44
M  V30 47 1 18 45
M  V30 48 1 18 46
M  V30 49 1 19 47
M  V30 50 1 21 48
M  V30 51 1 22 49
M  V30 52 1 27 50
M  V30 53 1 27 51
M  V30 54 1 27 52
M  V30 55 1 28 53
M  V30 56 1 29 54
M  V30 57 1 30 55
M  V30 58 1 31 56
M  V30 END BOND
M  V30 END CTAB
M  END
>  <Dataset>  (698) 
ChEMBL_Kinases

>  <Ligand_Instance>  (698) 
nan

>  <PDB_ID>  (698) 
nan

>  <Standardized_SMILES>  (698) 
COC(=O)c1ccc(/C=N/N2C(=O)CN(C(C)C)C2c2ccc(C(=O)OC)cc2)cc1

>  <Name>  (698) 
nan

>  <Pocket>  (698) 
nan

>  <ATP_Site>  (698) 
nan

>  <Peripheral>  (698) 
nan

>  <Num_H_Atoms_ProtBoundConf>  (698) 
nan

>  <Num_Resolved_Atoms>  (698) 
nan

>  <Num_Not_Resolved_Atoms>  (698) 
nan

$$$$
CHEMBL3199890
     RDKit          3D

  0  0  0  0  0  0  0  0  0  0999 V3000
M  V30 BEGIN CTAB
M  V30 COUNTS 51 54 0 0 0
M  V30 BEGIN ATOM
M  V30 1 C -0.255032 -2.643683 3.676995 0
M  V30 2 C -1.028112 -2.531722 2.402379 0
M  V30 3 C -1.074747 -1.432788 1.556771 0
M  V30 4 N -0.377326 -0.212879 1.776919 0
M  V30 5 C 0.425715 0.257974 0.905460 0
M  V30 6 S 0.640232 -0.613106 -0.528244 0
M  V30 7 C 1.881179 0.637796 -1.245557 0
M  V30 8 C 1.932313 1.606446 -0.171530 0
M  V30 9 C 2.858103 2.670179 -0.519880 0
M  V30 10 C 4.141192 2.388052 -0.946568 0
M  V30 11 C 5.129128 3.301998 -1.330665 0
M  V30 12 C 4.717753 4.615916 -1.254193 0
M  V30 13 C 3.462967 5.015013 -0.843551 0
M  V30 14 C 2.577062 4.018580 -0.490666 0
M  V30 15 N 1.167988 1.330858 0.867961 0
M  V30 16 C 1.154077 2.204977 2.026606 0
M  V30 17 C 2.205989 1.740093 3.043835 0
M  V30 18 O 3.470498 1.762987 2.495360 0
M  V30 19 C -1.907775 -1.832784 0.549766 0
M  V30 20 O -2.186585 -1.061660 -0.424249 0
M  V30 21 N -2.324200 -3.082626 0.785323 0
M  V30 22 C -3.198510 -3.779016 -0.076921 0
M  V30 23 C -2.839068 -4.919616 -0.728469 0
M  V30 24 C -3.763072 -5.532054 -1.552629 0
M  V30 25 C -5.036829 -4.984660 -1.707567 0
M  V30 26 C -5.386256 -3.814811 -1.031143 0
M  V30 27 C -4.456553 -3.189760 -0.195670 0
M  V30 28 N -1.804280 -3.542038 1.912893 0
M  V30 29 C -1.998486 -4.847796 2.531514 0
M  V30 30 H 0.075242 -3.661700 3.883872 0
M  V30 31 H -0.897110 -2.325799 4.529852 0
M  V30 32 H 0.604400 -1.931909 3.642234 0
M  V30 33 H 2.366419 0.543659 -2.229012 0
M  V30 34 H 4.437144 1.329099 -0.996169 0
M  V30 35 H 6.087737 2.953925 -1.642535 0
M  V30 36 H 5.434717 5.374223 -1.537257 0
M  V30 37 H 3.203220 6.057526 -0.805830 0
M  V30 38 H 1.604516 4.375282 -0.191971 0
M  V30 39 H 0.162401 2.187075 2.515938 0
M  V30 40 H 1.372517 3.259644 1.811316 0
M  V30 41 H 2.172444 2.483072 3.872102 0
M  V30 42 H 1.942230 0.769680 3.481457 0
M  V30 43 H 4.023450 2.513877 2.806468 0
M  V30 44 H -1.873165 -5.350877 -0.622372 0
M  V30 45 H -3.567223 -6.433554 -2.105070 0
M  V30 46 H -5.767036 -5.470378 -2.360090 0
M  V30 47 H -6.374006 -3.380532 -1.144383 0
M  V30 48 H -4.743645 -2.279266 0.324364 0
M  V30 49 H -2.157162 -5.626617 1.750291 0
M  V30 50 H -2.901992 -4.882566 3.170116 0
M  V30 51 H -1.084759 -5.160441 3.087060 0
M  V30 END ATOM
M  V30 BEGIN BOND
M  V30 1 1 1 2
M  V30 2 2 2 3
M  V30 3 1 3 4
M  V30 4 2 4 5
M  V30 5 1 5 6
M  V30 6 1 6 7
M  V30 7 2 7 8
M  V30 8 1 8 9
M  V30 9 2 9 10
M  V30 10 1 10 11
M  V30 11 2 11 12
M  V30 12 1 12 13
M  V30 13 2 13 14
M  V30 14 1 8 15
M  V30 15 1 15 16
M  V30 16 1 16 17
M  V30 17 1 17 18
M  V30 18 1 3 19
M  V30 19 2 19 20
M  V30 20 1 19 21
M  V30 21 1 21 22
M  V30 22 2 22 23
M  V30 23 1 23 24
M  V30 24 2 24 25
M  V30 25 1 25 26
M  V30 26 2 26 27
M  V30 27 1 21 28
M  V30 28 1 28 29
M  V30 29 1 28 2
M  V30 30 1 15 5
M  V30 31 1 27 22
M  V30 32 1 14 9
M  V30 33 1 1 30
M  V30 34 1 1 31
M  V30 35 1 1 32
M  V30 36 1 7 33
M  V30 37 1 10 34
M  V30 38 1 11 35
M  V30 39 1 12 36
M  V30 40 1 13 37
M  V30 41 1 14 38
M  V30 42 1 16 39
M  V30 43 1 16 40
M  V30 44 1 17 41
M  V30 45 1 17 42
M  V30 46 1 18 43
M  V30 47 1 23 44
M  V30 48 1 24 45
M  V30 49 1 25 46
M  V30 50 1 26 47
M  V30 51 1 27 48
M  V30 52 1 29 49
M  V30 53 1 29 50
M  V30 54 1 29 51
M  V30 END BOND
M  V30 END CTAB
M  END
>  <Dataset>  (699) 
ChEMBL_Kinases

>  <Ligand_Instance>  (699) 
nan

>  <PDB_ID>  (699) 
nan

>  <Standardized_SMILES>  (699) 
Cc1c(/N=c2\scc(-c3ccccc3)n2CCO)c(=O)n(-c2ccccc2)n1C

>  <Name>  (699) 
nan

>  <Pocket>  (699) 
nan

>  <ATP_Site>  (699) 
nan

>  <Peripheral>  (699) 
nan

>  <Num_H_Atoms_ProtBoundConf>  (699) 
nan

>  <Num_Resolved_Atoms>  (699) 
nan

>  <Num_Not_Resolved_Atoms>  (699) 
nan

$$$$
CHEMBL3199891
     RDKit          3D

  0  0  0  0  0  0  0  0  0  0999 V3000
M  V30 BEGIN CTAB
M  V30 COUNTS 35 36 0 0 0
M  V30 BEGIN ATOM
M  V30 1 C 1.544861 -7.140333 1.283025 0
M  V30 2 O 1.317824 -6.727856 -0.051856 0
M  V30 3 N 0.718022 -5.480359 -0.216668 0
M  V30 4 C 0.792688 -4.570251 0.682507 0
M  V30 5 C 0.181336 -3.252694 0.552305 0
M  V30 6 C -0.530661 -2.905620 -0.575751 0
M  V30 7 C -1.128980 -1.675287 -0.752072 0
M  V30 8 C -0.985765 -0.755217 0.288475 0
M  V30 9 O -1.574135 0.494595 0.147625 0
M  V30 10 C -0.864055 1.688597 0.140874 0
M  V30 11 C 0.511955 1.893696 0.209757 0
M  V30 12 C 1.017625 3.178369 0.188814 0
M  V30 13 C 0.194359 4.288580 0.100361 0
M  V30 14 C 0.808617 5.646185 0.084425 0
M  V30 15 C -1.178299 4.108509 0.030529 0
M  V30 16 C -1.660028 2.815215 0.053171 0
M  V30 17 C -0.278104 -1.116976 1.396910 0
M  V30 18 N -0.103386 -0.216542 2.502381 0 CHG=1 VAL=4
M  V30 19 O -0.693428 0.744404 3.033385 0
M  V30 20 O -0.988064 0.803324 2.853998 0 CHG=-1 VAL=1
M  V30 21 C 0.322798 -2.346527 1.578428 0
M  V30 22 H 1.901793 -8.203323 1.230797 0
M  V30 23 H 0.670166 -7.027202 1.930918 0
M  V30 24 H 2.442887 -6.563354 1.637985 0
M  V30 25 H 1.342892 -4.846582 1.549932 0
M  V30 26 H -0.642953 -3.618073 -1.384179 0
M  V30 27 H -1.682772 -1.429081 -1.649090 0
M  V30 28 H 1.076607 0.974705 0.274590 0
M  V30 29 H 2.100898 3.261822 0.246109 0
M  V30 30 H 0.731632 6.100600 1.091875 0
M  V30 31 H 1.871880 5.548531 -0.203798 0
M  V30 32 H 0.346823 6.318355 -0.652194 0
M  V30 33 H -1.818086 4.978485 -0.038577 0
M  V30 34 H -2.753208 2.768583 -0.005646 0
M  V30 35 H 0.880426 -2.608734 2.469944 0
M  V30 END ATOM
M  V30 BEGIN BOND
M  V30 1 1 1 2
M  V30 2 1 2 3
M  V30 3 2 3 4
M  V30 4 1 4 5
M  V30 5 2 5 6
M  V30 6 1 6 7
M  V30 7 2 7 8
M  V30 8 1 8 9
M  V30 9 1 9 10
M  V30 10 2 10 11
M  V30 11 1 11 12
M  V30 12 2 12 13
M  V30 13 1 13 14
M  V30 14 1 13 15
M  V30 15 2 15 16
M  V30 16 1 8 17
M  V30 17 1 17 18
M  V30 18 2 18 19
M  V30 19 1 18 20
M  V30 20 2 17 21
M  V30 21 1 21 5
M  V30 22 1 16 10
M  V30 23 1 1 22
M  V30 24 1 1 23
M  V30 25 1 1 24
M  V30 26 1 4 25
M  V30 27 1 6 26
M  V30 28 1 7 27
M  V30 29 1 11 28
M  V30 30 1 12 29
M  V30 31 1 14 30
M  V30 32 1 14 31
M  V30 33 1 14 32
M  V30 34 1 15 33
M  V30 35 1 16 34
M  V30 36 1 21 35
M  V30 END BOND
M  V30 END CTAB
M  END
>  <Dataset>  (700) 
ChEMBL_Kinases

>  <Ligand_Instance>  (700) 
nan

>  <PDB_ID>  (700) 
nan

>  <Standardized_SMILES>  (700) 
CO/N=C/c1ccc(Oc2ccc(C)cc2)c([N+](=O)[O-])c1

>  <Name>  (700) 
nan

>  <Pocket>  (700) 
nan

>  <ATP_Site>  (700) 
nan

>  <Peripheral>  (700) 
nan

>  <Num_H_Atoms_ProtBoundConf>  (700) 
nan

>  <Num_Resolved_Atoms>  (700) 
nan

>  <Num_Not_Resolved_Atoms>  (700) 
nan

$$$$
CHEMBL320069
     RDKit          3D

  0  0  0  0  0  0  0  0  0  0999 V3000
M  V30 BEGIN CTAB
M  V30 COUNTS 45 48 0 0 0
M  V30 BEGIN ATOM
M  V30 1 O -2.416573 -1.509218 0.376214 0
M  V30 2 C -1.291382 -1.497714 -0.179130 0
M  V30 3 C -0.231811 -2.476531 -0.406141 0
M  V30 4 C -0.431531 -3.588157 -1.193285 0
M  V30 5 C 0.611577 -4.475070 -1.366917 0
M  V30 6 C 1.851469 -4.272911 -0.768673 0
M  V30 7 N 3.008074 -4.954220 -0.768994 0
M  V30 8 C 3.929137 -4.305115 -0.006714 0
M  V30 9 C 3.373760 -3.155288 0.520428 0
M  V30 10 C 2.081998 -3.168104 0.025653 0
M  V30 11 C 1.021416 -2.300459 0.180310 0
M  V30 12 N -0.970141 -0.203469 -0.724449 0
M  V30 13 C -1.882471 0.941963 -0.618003 0
M  V30 14 C -1.163929 2.132832 0.006479 0
M  V30 15 N 0.118437 1.745388 0.368442 0
M  V30 16 C 0.694567 2.163594 1.582504 0
M  V30 17 C -0.039027 1.760897 2.775033 0
M  V30 18 C 0.208752 0.537389 3.392844 0
M  V30 19 C -0.465132 0.130389 4.526899 0
M  V30 20 C -1.416998 0.978953 5.056512 0
M  V30 21 C -1.718501 2.215723 4.495243 0
M  V30 22 C -1.007338 2.565631 3.357940 0
M  V30 23 C 0.991050 1.260341 -0.634420 0
M  V30 24 C 0.228331 0.207727 -1.436892 0
M  V30 25 H -1.411310 -3.711880 -1.641663 0
M  V30 26 H 0.431901 -5.341681 -1.989477 0
M  V30 27 H 3.153030 -5.843421 -1.282697 0
M  V30 28 H 4.941797 -4.672038 0.139664 0
M  V30 29 H 3.845491 -2.426259 1.163733 0
M  V30 30 H 1.129629 -1.413680 0.788960 0
M  V30 31 H -2.256750 1.156065 -1.626320 0
M  V30 32 H -2.741344 0.674347 0.037718 0
M  V30 33 H -1.113625 2.916504 -0.803080 0
M  V30 34 H -1.722418 2.576803 0.824473 0
M  V30 35 H 0.796800 3.287128 1.563053 0
M  V30 36 H 1.733498 1.790749 1.683412 0
M  V30 37 H 0.949317 -0.160753 3.011438 0
M  V30 38 H -0.284796 -0.819731 5.022270 0
M  V30 39 H -1.977556 0.694679 5.959296 0
M  V30 40 H -2.467504 2.866866 4.925534 0
M  V30 41 H -1.269607 3.534550 2.956197 0
M  V30 42 H 1.352479 2.063774 -1.310623 0
M  V30 43 H 1.863675 0.750221 -0.194250 0
M  V30 44 H -0.081401 0.648740 -2.403101 0
M  V30 45 H 0.873793 -0.678558 -1.665269 0
M  V30 END ATOM
M  V30 BEGIN BOND
M  V30 1 2 1 2
M  V30 2 1 2 3
M  V30 3 2 3 4
M  V30 4 1 4 5
M  V30 5 2 5 6
M  V30 6 1 6 7
M  V30 7 1 7 8
M  V30 8 2 8 9
M  V30 9 1 9 10
M  V30 10 2 10 11
M  V30 11 1 2 12
M  V30 12 1 12 13
M  V30 13 1 13 14
M  V30 14 1 14 15
M  V30 15 1 15 16
M  V30 16 1 16 17
M  V30 17 2 17 18
M  V30 18 1 18 19
M  V30 19 2 19 20
M  V30 20 1 20 21
M  V30 21 2 21 22
M  V30 22 1 15 23
M  V30 23 1 23 24
M  V30 24 1 11 3
M  V30 25 1 24 12
M  V30 26 1 10 6
M  V30 27 1 22 17
M  V30 28 1 4 25
M  V30 29 1 5 26
M  V30 30 1 7 27
M  V30 31 1 8 28
M  V30 32 1 9 29
M  V30 33 1 11 30
M  V30 34 1 13 31
M  V30 35 1 13 32
M  V30 36 1 14 33
M  V30 37 1 14 34
M  V30 38 1 16 35
M  V30 39 1 16 36
M  V30 40 1 18 37
M  V30 41 1 19 38
M  V30 42 1 20 39
M  V30 43 1 21 40
M  V30 44 1 22 41
M  V30 45 1 23 42
M  V30 46 1 23 43
M  V30 47 1 24 44
M  V30 48 1 24 45
M  V30 END BOND
M  V30 END CTAB
M  END
>  <Dataset>  (701) 
ChEMBL_Kinases

>  <Ligand_Instance>  (701) 
nan

>  <PDB_ID>  (701) 
nan

>  <Standardized_SMILES>  (701) 
O=C(c1ccc2[nH]ccc2c1)N1CCN(Cc2ccccc2)CC1

>  <Name>  (701) 
nan

>  <Pocket>  (701) 
nan

>  <ATP_Site>  (701) 
nan

>  <Peripheral>  (701) 
nan

>  <Num_H_Atoms_ProtBoundConf>  (701) 
nan

>  <Num_Resolved_Atoms>  (701) 
nan

>  <Num_Not_Resolved_Atoms>  (701) 
nan

$$$$
CHEMBL320247
     RDKit          3D

  0  0  0  0  0  0  0  0  0  0999 V3000
M  V30 BEGIN CTAB
M  V30 COUNTS 52 55 0 0 0
M  V30 BEGIN ATOM
M  V30 1 C -1.273341 -5.680246 2.604942 0
M  V30 2 N -0.585179 -4.853619 1.631931 0
M  V30 3 C -0.498739 -3.530202 1.835232 0
M  V30 4 O -1.014418 -3.048518 2.860893 0
M  V30 5 C 0.130132 -2.700645 0.965038 0
M  V30 6 C 0.664959 -3.328144 -0.129706 0
M  V30 7 N 1.261156 -2.425706 -0.910750 0
M  V30 8 C 1.125524 -1.188358 -0.336616 0
M  V30 9 N 1.675794 -0.010096 -0.857142 0
M  V30 10 C 1.881773 1.373816 -0.739289 0
M  V30 11 C 0.594541 2.156013 -0.823430 0
M  V30 12 C 0.933778 3.647969 -0.984251 0
M  V30 13 C 1.512173 4.075506 0.325643 0
M  V30 14 C 2.250339 3.057640 1.094155 0
M  V30 15 C 2.735421 1.840896 0.411411 0
M  V30 16 N 0.419123 -1.401743 0.817525 0
M  V30 17 C -0.070239 -0.436432 1.774864 0
M  V30 18 C -1.494258 -0.081559 1.533777 0
M  V30 19 C -2.364184 -0.160560 2.635982 0
M  V30 20 C -3.718685 0.089957 2.644375 0
M  V30 21 C -4.284773 0.457270 1.447311 0
M  V30 22 C -3.497812 0.554271 0.332184 0
M  V30 23 C -2.155027 0.288392 0.402660 0
M  V30 24 N 0.627940 -4.634900 -0.414170 0
M  V30 25 C 1.206811 -5.261420 -1.584888 0
M  V30 26 C -0.022405 -5.359002 0.520701 0
M  V30 27 O -0.133065 -6.603885 0.380285 0
M  V30 28 H -0.652707 -5.939152 3.469745 0
M  V30 29 H -1.740773 -6.578258 2.141186 0
M  V30 30 H -2.137375 -5.086838 3.011136 0
M  V30 31 H 2.183079 -0.250313 -1.774934 0
M  V30 32 H 2.447730 1.743526 -1.657560 0
M  V30 33 H -0.022343 1.891239 -1.695906 0
M  V30 34 H -0.014121 2.101724 0.094164 0
M  V30 35 H -0.012652 4.165235 -1.183947 0
M  V30 36 H 1.672078 3.755971 -1.810326 0
M  V30 37 H 0.660575 4.512614 0.924648 0
M  V30 38 H 2.143511 4.988936 0.098689 0
M  V30 39 H 1.625949 2.779352 1.994239 0
M  V30 40 H 3.118391 3.596642 1.578260 0
M  V30 41 H 3.784793 1.991052 0.088536 0
M  V30 42 H 2.783965 1.005991 1.137599 0
M  V30 43 H 0.525181 0.483482 1.664947 0
M  V30 44 H 0.053048 -0.887784 2.788294 0
M  V30 45 H -1.942864 -0.452565 3.611946 0
M  V30 46 H -4.291168 -0.002116 3.553064 0
M  V30 47 H -5.335485 0.672404 1.359748 0
M  V30 48 H -3.892096 0.841904 -0.647191 0
M  V30 49 H -1.551609 0.352995 -0.467505 0
M  V30 50 H 1.618520 -6.276218 -1.312593 0
M  V30 51 H 0.448387 -5.488881 -2.366724 0
M  V30 52 H 1.984989 -4.654177 -2.054491 0
M  V30 END ATOM
M  V30 BEGIN BOND
M  V30 1 1 1 2
M  V30 2 1 2 3
M  V30 3 2 3 4
M  V30 4 1 3 5
M  V30 5 2 5 6
M  V30 6 1 6 7
M  V30 7 2 7 8
M  V30 8 1 8 9
M  V30 9 1 9 10
M  V30 10 1 10 11
M  V30 11 1 11 12
M  V30 12 1 12 13
M  V30 13 1 13 14
M  V30 14 1 14 15
M  V30 15 1 8 16
M  V30 16 1 16 17
M  V30 17 1 17 18
M  V30 18 2 18 19
M  V30 19 1 19 20
M  V30 20 2 20 21
M  V30 21 1 21 22
M  V30 22 2 22 23
M  V30 23 1 6 24
M  V30 24 1 24 25
M  V30 25 1 24 26
M  V30 26 2 26 27
M  V30 27 1 26 2
M  V30 28 1 16 5
M  V30 29 1 23 18
M  V30 30 1 15 10
M  V30 31 1 1 28
M  V30 32 1 1 29
M  V30 33 1 1 30
M  V30 34 1 9 31
M  V30 35 1 10 32
M  V30 36 1 11 33
M  V30 37 1 11 34
M  V30 38 1 12 35
M  V30 39 1 12 36
M  V30 40 1 13 37
M  V30 41 1 13 38
M  V30 42 1 14 39
M  V30 43 1 14 40
M  V30 44 1 15 41
M  V30 45 1 15 42
M  V30 46 1 17 43
M  V30 47 1 17 44
M  V30 48 1 19 45
M  V30 49 1 20 46
M  V30 50 1 21 47
M  V30 51 1 22 48
M  V30 52 1 23 49
M  V30 53 1 25 50
M  V30 54 1 25 51
M  V30 55 1 25 52
M  V30 END BOND
M  V30 END CTAB
M  END
>  <Dataset>  (702) 
ChEMBL_Kinases

>  <Ligand_Instance>  (702) 
nan

>  <PDB_ID>  (702) 
nan

>  <Standardized_SMILES>  (702) 
Cn1c(=O)c2c(nc(NC3CCCCC3)n2Cc2ccccc2)n(C)c1=O

>  <Name>  (702) 
nan

>  <Pocket>  (702) 
nan

>  <ATP_Site>  (702) 
nan

>  <Peripheral>  (702) 
nan

>  <Num_H_Atoms_ProtBoundConf>  (702) 
nan

>  <Num_Resolved_Atoms>  (702) 
nan

>  <Num_Not_Resolved_Atoms>  (702) 
nan

$$$$
CHEMBL3207361
     RDKit          3D

  0  0  0  0  0  0  0  0  0  0999 V3000
M  V30 BEGIN CTAB
M  V30 COUNTS 43 44 0 0 0
M  V30 BEGIN ATOM
M  V30 1 C -0.877353 -6.364189 1.233366 0
M  V30 2 O -1.091221 -5.368092 2.225023 0
M  V30 3 C -0.662267 -4.078890 1.933418 0
M  V30 4 C -0.048242 -3.752090 0.731816 0
M  V30 5 C 0.344099 -2.439023 0.534249 0
M  V30 6 C 0.994289 -2.027062 -0.704139 0
M  V30 7 N 1.356818 -0.823720 -0.891805 0
M  V30 8 N 1.985654 -0.321258 -2.035800 0
M  V30 9 C 1.468805 1.014097 -2.216593 0
M  V30 10 S 1.977992 1.946762 -3.482012 0
M  V30 11 N 0.508588 1.564681 -1.314759 0
M  V30 12 C -0.027125 2.901709 -1.471042 0
M  V30 13 C 1.002928 3.960640 -1.414022 0
M  V30 14 C 1.387978 4.578419 -0.219110 0
M  V30 15 C 2.368571 5.530635 -0.461069 0
M  V30 16 C 2.536194 5.443812 -1.822618 0
M  V30 17 O 1.739811 4.536595 -2.334252 0
M  V30 18 C 0.119295 -1.500474 1.520611 0
M  V30 19 C -0.490380 -1.821594 2.715438 0
M  V30 20 O -0.728649 -0.910360 3.717740 0
M  V30 21 C -0.407125 0.438755 3.696840 0
M  V30 22 C -0.894910 -3.139361 2.937778 0
M  V30 23 O -1.514021 -3.494717 4.135979 0
M  V30 24 C -0.641784 -3.920660 5.190236 0
M  V30 25 H -1.429348 -7.307470 1.498378 0
M  V30 26 H -1.293324 -6.068947 0.252563 0
M  V30 27 H 0.206092 -6.552493 1.075742 0
M  V30 28 H 0.109558 -4.514007 -0.013791 0
M  V30 29 H 1.184365 -2.738924 -1.496000 0
M  V30 30 H 2.684229 -0.658867 -2.732270 0
M  V30 31 H 0.200067 0.940682 -0.512137 0
M  V30 32 H -0.622724 2.971393 -2.428367 0
M  V30 33 H -0.760710 3.065046 -0.657668 0
M  V30 34 H 0.977488 4.346839 0.765696 0
M  V30 35 H 2.863464 6.169461 0.253908 0
M  V30 36 H 3.222692 6.027840 -2.428923 0
M  V30 37 H 0.396333 -0.479978 1.429300 0
M  V30 38 H -1.255281 1.048913 3.328626 0
M  V30 39 H -0.227671 0.762663 4.762706 0
M  V30 40 H 0.471748 0.706602 3.093992 0
M  V30 41 H -0.811789 -3.287765 6.104199 0
M  V30 42 H 0.424215 -3.784947 4.943048 0
M  V30 43 H -0.772384 -4.980038 5.444515 0
M  V30 END ATOM
M  V30 BEGIN BOND
M  V30 1 1 1 2
M  V30 2 1 2 3
M  V30 3 2 3 4
M  V30 4 1 4 5
M  V30 5 1 5 6
M  V30 6 2 6 7
M  V30 7 1 7 8
M  V30 8 1 8 9
M  V30 9 2 9 10
M  V30 10 1 9 11
M  V30 11 1 11 12
M  V30 12 1 12 13
M  V30 13 2 13 14
M  V30 14 1 14 15
M  V30 15 2 15 16
M  V30 16 1 16 17
M  V30 17 2 5 18
M  V30 18 1 18 19
M  V30 19 1 19 20
M  V30 20 1 20 21
M  V30 21 2 19 22
M  V30 22 1 22 23
M  V30 23 1 23 24
M  V30 24 1 22 3
M  V30 25 1 17 13
M  V30 26 1 1 25
M  V30 27 1 1 26
M  V30 28 1 1 27
M  V30 29 1 4 28
M  V30 30 1 6 29
M  V30 31 1 8 30
M  V30 32 1 11 31
M  V30 33 1 12 32
M  V30 34 1 12 33
M  V30 35 1 14 34
M  V30 36 1 15 35
M  V30 37 1 16 36
M  V30 38 1 18 37
M  V30 39 1 21 38
M  V30 40 1 21 39
M  V30 41 1 21 40
M  V30 42 1 24 41
M  V30 43 1 24 42
M  V30 44 1 24 43
M  V30 END BOND
M  V30 END CTAB
M  END
>  <Dataset>  (703) 
ChEMBL_Kinases

>  <Ligand_Instance>  (703) 
nan

>  <PDB_ID>  (703) 
nan

>  <Standardized_SMILES>  (703) 
COc1cc(/C=N/NC(=S)NCc2ccco2)cc(OC)c1OC

>  <Name>  (703) 
nan

>  <Pocket>  (703) 
nan

>  <ATP_Site>  (703) 
nan

>  <Peripheral>  (703) 
nan

>  <Num_H_Atoms_ProtBoundConf>  (703) 
nan

>  <Num_Resolved_Atoms>  (703) 
nan

>  <Num_Not_Resolved_Atoms>  (703) 
nan

$$$$
CHEMBL3207432
     RDKit          3D

  0  0  0  0  0  0  0  0  0  0999 V3000
M  V30 BEGIN CTAB
M  V30 COUNTS 50 54 0 0 0
M  V30 BEGIN ATOM
M  V30 1 C 3.978893 -4.129096 3.297312 0
M  V30 2 C 3.920117 -2.646303 3.215148 0
M  V30 3 C 4.056792 -1.798583 4.313029 0
M  V30 4 C 3.982376 -0.436181 4.100295 0
M  V30 5 C 3.778818 0.090476 2.842853 0
M  V30 6 C 3.641594 -0.756238 1.741486 0
M  V30 7 S 3.385782 -0.025222 0.175704 0
M  V30 8 O 4.037674 1.322045 0.138049 0
M  V30 9 O 3.947467 -0.874375 -0.925129 0
M  V30 10 C 1.657091 0.183262 -0.137366 0
M  V30 11 C 0.876720 1.277648 0.173510 0
M  V30 12 N 1.324905 2.465678 0.816206 0
M  V30 13 N -0.362081 0.991903 -0.247572 0
M  V30 14 N -1.508616 1.821399 -0.142729 0
M  V30 15 C -2.546468 1.442474 0.523349 0
M  V30 16 C -3.789417 2.181207 0.718156 0
M  V30 17 C -4.840282 1.648404 1.467976 0
M  V30 18 C -5.991106 2.389329 1.619556 0
M  V30 19 C -6.133574 3.636252 1.054303 0
M  V30 20 N -5.118497 4.154250 0.328330 0
M  V30 21 C -3.970298 3.436993 0.165984 0
M  V30 22 C -0.415786 -0.236354 -0.815504 0
M  V30 23 N -1.386452 -0.989886 -1.384892 0
M  V30 24 C -1.118947 -2.224647 -1.880080 0
M  V30 25 C -2.139585 -2.981278 -2.462650 0
M  V30 26 C -1.861076 -4.247662 -2.969547 0
M  V30 27 C -0.578380 -4.751163 -2.894925 0
M  V30 28 C 0.458697 -4.012236 -2.316486 0
M  V30 29 C 0.160307 -2.759612 -1.820496 0
M  V30 30 N 1.132750 -2.002036 -1.248862 0
M  V30 31 C 0.858253 -0.763600 -0.753660 0
M  V30 32 C 3.715182 -2.137491 1.944679 0
M  V30 33 H 4.622277 -4.538077 2.484804 0
M  V30 34 H 4.279236 -4.508458 4.284588 0
M  V30 35 H 2.956993 -4.561783 3.092268 0
M  V30 36 H 4.214997 -2.262973 5.278660 0
M  V30 37 H 4.090404 0.219547 4.965050 0
M  V30 38 H 3.730121 1.172247 2.743806 0
M  V30 39 H 1.787214 2.472789 1.753280 0
M  V30 40 H 1.227021 3.424674 0.401687 0
M  V30 41 H -2.462194 0.465157 0.978907 0
M  V30 42 H -4.657282 0.655126 1.886473 0
M  V30 43 H -6.715745 1.844445 2.226336 0
M  V30 44 H -7.089573 4.109371 1.252199 0
M  V30 45 H -3.177113 3.890458 -0.425913 0
M  V30 46 H -3.144218 -2.549419 -2.504135 0
M  V30 47 H -2.647572 -4.819515 -3.413411 0
M  V30 48 H -0.337203 -5.742825 -3.286419 0
M  V30 49 H 1.466040 -4.400963 -2.254859 0
M  V30 50 H 3.605269 -2.780598 1.069915 0
M  V30 END ATOM
M  V30 BEGIN BOND
M  V30 1 1 1 2
M  V30 2 2 2 3
M  V30 3 1 3 4
M  V30 4 2 4 5
M  V30 5 1 5 6
M  V30 6 1 6 7
M  V30 7 2 7 8
M  V30 8 2 7 9
M  V30 9 1 7 10
M  V30 10 2 10 11
M  V30 11 1 11 12
M  V30 12 1 11 13
M  V30 13 1 13 14
M  V30 14 2 14 15
M  V30 15 1 15 16
M  V30 16 2 16 17
M  V30 17 1 17 18
M  V30 18 2 18 19
M  V30 19 1 19 20
M  V30 20 2 20 21
M  V30 21 1 13 22
M  V30 22 2 22 23
M  V30 23 1 23 24
M  V30 24 2 24 25
M  V30 25 1 25 26
M  V30 26 2 26 27
M  V30 27 1 27 28
M  V30 28 2 28 29
M  V30 29 1 29 30
M  V30 30 2 30 31
M  V30 31 2 6 32
M  V30 32 1 32 2
M  V30 33 1 31 10
M  V30 34 1 21 16
M  V30 35 1 31 22
M  V30 36 1 29 24
M  V30 37 1 1 33
M  V30 38 1 1 34
M  V30 39 1 1 35
M  V30 40 1 3 36
M  V30 41 1 4 37
M  V30 42 1 5 38
M  V30 43 1 12 39
M  V30 44 1 12 40
M  V30 45 1 15 41
M  V30 46 1 17 42
M  V30 47 1 18 43
M  V30 48 1 19 44
M  V30 49 1 21 45
M  V30 50 1 25 46
M  V30 51 1 26 47
M  V30 52 1 27 48
M  V30 53 1 28 49
M  V30 54 1 32 50
M  V30 END BOND
M  V30 END CTAB
M  END
>  <Dataset>  (704) 
ChEMBL_Kinases

>  <Ligand_Instance>  (704) 
nan

>  <PDB_ID>  (704) 
nan

>  <Standardized_SMILES>  (704) 
Cc1cccc(S(=O)(=O)c2c(N)n(/N=C/c3cccnc3)c3nc4ccccc4nc23)c1

>  <Name>  (704) 
nan

>  <Pocket>  (704) 
nan

>  <ATP_Site>  (704) 
nan

>  <Peripheral>  (704) 
nan

>  <Num_H_Atoms_ProtBoundConf>  (704) 
nan

>  <Num_Resolved_Atoms>  (704) 
nan

>  <Num_Not_Resolved_Atoms>  (704) 
nan

$$$$
CHEMBL3207567
     RDKit          3D

  0  0  0  0  0  0  0  0  0  0999 V3000
M  V30 BEGIN CTAB
M  V30 COUNTS 38 39 0 0 0
M  V30 BEGIN ATOM
M  V30 1 C -0.166762 -4.384886 4.762894 0
M  V30 2 C 0.461646 -4.524450 3.414464 0
M  V30 3 O -0.418257 -4.085349 2.369789 0
M  V30 4 C 0.079813 -4.177427 1.080405 0
M  V30 5 O 0.267985 -5.515112 0.813237 0
M  V30 6 C 0.289733 -3.107903 0.349852 0
M  V30 7 C 0.051793 -1.727198 0.740361 0
M  V30 8 N 0.393843 -1.024943 -0.277368 0
M  V30 9 C 0.386515 0.379682 -0.494512 0
M  V30 10 C 0.154618 0.830787 -1.799491 0
M  V30 11 C 0.155484 2.191030 -2.027163 0
M  V30 12 C -0.091068 2.656316 -3.412209 0
M  V30 13 C 0.372719 3.125499 -1.036325 0
M  V30 14 C 0.366872 4.583185 -1.317377 0
M  V30 15 C 0.605338 2.729697 0.264258 0
M  V30 16 C 0.603099 1.364533 0.486549 0
M  V30 17 N 0.850736 1.070792 1.883620 0
M  V30 18 C 0.520953 -0.184083 2.526750 0
M  V30 19 O 1.153257 -0.379479 3.624403 0
M  V30 20 C -0.466869 -1.199404 1.996555 0
M  V30 21 H 0.131450 -3.451363 5.286642 0
M  V30 22 H -1.270369 -4.456421 4.733011 0
M  V30 23 H 0.188406 -5.220958 5.400167 0
M  V30 24 H 1.447133 -4.043615 3.371020 0
M  V30 25 H 0.628321 -5.614860 3.224233 0
M  V30 26 H -0.465625 -6.205468 0.850900 0
M  V30 27 H 0.669441 -3.481995 -0.582104 0
M  V30 28 H -0.007689 0.060397 -2.527433 0
M  V30 29 H -1.125031 3.042767 -3.568771 0
M  V30 30 H 0.036351 1.831607 -4.142170 0
M  V30 31 H 0.662977 3.439937 -3.717326 0
M  V30 32 H -0.137440 5.126074 -0.479422 0
M  V30 33 H 1.390733 4.993902 -1.504917 0
M  V30 34 H -0.189553 4.811181 -2.267460 0
M  V30 35 H 0.782042 3.388218 1.087660 0
M  V30 36 H 1.304515 1.834594 2.469147 0
M  V30 37 H -1.389761 -0.590141 1.736304 0
M  V30 38 H -0.752630 -1.906276 2.764005 0
M  V30 END ATOM
M  V30 BEGIN BOND
M  V30 1 1 1 2
M  V30 2 1 2 3
M  V30 3 1 3 4
M  V30 4 1 4 5
M  V30 5 2 4 6
M  V30 6 1 6 7
M  V30 7 2 7 8
M  V30 8 1 8 9
M  V30 9 2 9 10
M  V30 10 1 10 11
M  V30 11 1 11 12
M  V30 12 2 11 13
M  V30 13 1 13 14
M  V30 14 1 13 15
M  V30 15 2 15 16
M  V30 16 1 16 17
M  V30 17 1 17 18
M  V30 18 2 18 19
M  V30 19 1 18 20
M  V30 20 1 20 7
M  V30 21 1 16 9
M  V30 22 1 1 21
M  V30 23 1 1 22
M  V30 24 1 1 23
M  V30 25 1 2 24
M  V30 26 1 2 25
M  V30 27 1 5 26
M  V30 28 1 6 27
M  V30 29 1 10 28
M  V30 30 1 12 29
M  V30 31 1 12 30
M  V30 32 1 12 31
M  V30 33 1 14 32
M  V30 34 1 14 33
M  V30 35 1 14 34
M  V30 36 1 15 35
M  V30 37 1 17 36
M  V30 38 1 20 37
M  V30 39 1 20 38
M  V30 END BOND
M  V30 END CTAB
M  END
>  <Dataset>  (705) 
ChEMBL_Kinases

>  <Ligand_Instance>  (705) 
nan

>  <PDB_ID>  (705) 
nan

>  <Standardized_SMILES>  (705) 
CCO/C(O)=C\C1=Nc2cc(C)c(C)cc2NC(=O)C1

>  <Name>  (705) 
nan

>  <Pocket>  (705) 
nan

>  <ATP_Site>  (705) 
nan

>  <Peripheral>  (705) 
nan

>  <Num_H_Atoms_ProtBoundConf>  (705) 
nan

>  <Num_Resolved_Atoms>  (705) 
nan

>  <Num_Not_Resolved_Atoms>  (705) 
nan

$$$$
CHEMBL3207615
     RDKit          3D

  0  0  0  0  0  0  0  0  0  0999 V3000
M  V30 BEGIN CTAB
M  V30 COUNTS 43 44 0 0 0
M  V30 BEGIN ATOM
M  V30 1 C -1.581979 -6.069279 0.261857 0
M  V30 2 C -0.678570 -5.396560 -0.709316 0
M  V30 3 C -0.168211 -4.063983 -0.236485 0
M  V30 4 C -1.233655 -3.068359 0.041111 0
M  V30 5 C -0.627402 -1.798568 0.488837 0
M  V30 6 C -0.032659 -0.887940 -0.359360 0
M  V30 7 C 0.007952 -1.164678 -1.818138 0
M  V30 8 C 0.523663 0.283433 0.112212 0
M  V30 9 C 1.128244 1.223442 -0.695018 0
M  V30 10 C 1.679130 2.390613 -0.199387 0
M  V30 11 C 1.645160 2.667805 1.152023 0
M  V30 12 O 2.156505 3.794599 1.780956 0
M  V30 13 C 2.780180 4.772539 0.970904 0
M  V30 14 C 1.033000 1.716769 1.971490 0
M  V30 15 C 0.953471 1.933043 3.432712 0
M  V30 16 C 2.140637 1.316582 4.094873 0
M  V30 17 N 0.087413 2.524582 4.182914 0
M  V30 18 O -1.013686 3.096605 3.589858 0
M  V30 19 C 0.476633 0.538214 1.471391 0
M  V30 20 O -0.075292 -0.298626 2.288737 0
M  V30 21 C -0.599218 -1.407094 1.823710 0
M  V30 22 O -1.113504 -2.154398 2.707258 0
M  V30 23 H -1.345103 -7.153389 0.275994 0
M  V30 24 H -1.433457 -5.643405 1.272454 0
M  V30 25 H -2.637971 -5.986405 -0.084051 0
M  V30 26 H 0.213482 -6.027515 -0.890441 0
M  V30 27 H -1.149077 -5.233295 -1.690640 0
M  V30 28 H 0.570271 -3.626719 -0.931634 0
M  V30 29 H 0.408569 -4.202806 0.724007 0
M  V30 30 H -1.970545 -2.938307 -0.765346 0
M  V30 31 H -1.837613 -3.446632 0.915150 0
M  V30 32 H -0.644470 -1.975963 -2.147721 0
M  V30 33 H -0.330010 -0.257447 -2.377255 0
M  V30 34 H 1.045708 -1.427727 -2.178125 0
M  V30 35 H 1.162192 1.024254 -1.736874 0
M  V30 36 H 2.156187 3.135870 -0.821557 0
M  V30 37 H 2.793426 5.749609 1.538363 0
M  V30 38 H 2.220779 4.994784 0.042506 0
M  V30 39 H 3.834994 4.525490 0.753983 0
M  V30 40 H 2.263681 0.256087 3.726020 0
M  V30 41 H 2.023354 1.282540 5.192982 0
M  V30 42 H 3.057715 1.850808 3.753849 0
M  V30 43 H -1.914956 2.772048 3.963986 0
M  V30 END ATOM
M  V30 BEGIN BOND
M  V30 1 1 1 2
M  V30 2 1 2 3
M  V30 3 1 3 4
M  V30 4 1 4 5
M  V30 5 2 5 6
M  V30 6 1 6 7
M  V30 7 1 6 8
M  V30 8 2 8 9
M  V30 9 1 9 10
M  V30 10 2 10 11
M  V30 11 1 11 12
M  V30 12 1 12 13
M  V30 13 1 11 14
M  V30 14 1 14 15
M  V30 15 1 15 16
M  V30 16 2 15 17
M  V30 17 1 17 18
M  V30 18 2 14 19
M  V30 19 1 19 20
M  V30 20 1 20 21
M  V30 21 2 21 22
M  V30 22 1 21 5
M  V30 23 1 19 8
M  V30 24 1 1 23
M  V30 25 1 1 24
M  V30 26 1 1 25
M  V30 27 1 2 26
M  V30 28 1 2 27
M  V30 29 1 3 28
M  V30 30 1 3 29
M  V30 31 1 4 30
M  V30 32 1 4 31
M  V30 33 1 7 32
M  V30 34 1 7 33
M  V30 35 1 7 34
M  V30 36 1 9 35
M  V30 37 1 10 36
M  V30 38 1 13 37
M  V30 39 1 13 38
M  V30 40 1 13 39
M  V30 41 1 16 40
M  V30 42 1 16 41
M  V30 43 1 16 42
M  V30 44 1 18 43
M  V30 END BOND
M  V30 END CTAB
M  END
>  <Dataset>  (706) 
ChEMBL_Kinases

>  <Ligand_Instance>  (706) 
nan

>  <PDB_ID>  (706) 
nan

>  <Standardized_SMILES>  (706) 
CCCCc1c(C)c2ccc(OC)c(/C(C)=N\O)c2oc1=O

>  <Name>  (706) 
nan

>  <Pocket>  (706) 
nan

>  <ATP_Site>  (706) 
nan

>  <Peripheral>  (706) 
nan

>  <Num_H_Atoms_ProtBoundConf>  (706) 
nan

>  <Num_Resolved_Atoms>  (706) 
nan

>  <Num_Not_Resolved_Atoms>  (706) 
nan

$$$$
CHEMBL3199682
     RDKit          3D

  0  0  0  0  0  0  0  0  0  0999 V3000
M  V30 BEGIN CTAB
M  V30 COUNTS 31 33 0 0 0
M  V30 BEGIN ATOM
M  V30 1 S 1.640936 -0.232877 5.144613 0
M  V30 2 C 2.387734 -0.864833 3.643674 0
M  V30 3 N 3.625748 -1.319832 3.384256 0
M  V30 4 N 3.693853 -1.675853 2.125193 0
M  V30 5 C 2.481628 -1.446194 1.567396 0
M  V30 6 C 2.224419 -1.744477 0.143981 0
M  V30 7 C 3.139765 -1.225874 -0.752842 0
M  V30 8 C 2.890096 -1.510744 -2.083199 0
M  V30 9 N 1.840729 -2.237785 -2.510212 0
M  V30 10 C 0.967383 -2.727160 -1.594869 0
M  V30 11 C 1.127272 -2.497945 -0.229170 0
M  V30 12 N 1.656151 -0.936987 2.514437 0
M  V30 13 N 0.341171 -0.620343 2.163303 0
M  V30 14 C 0.027541 0.021877 1.097338 0
M  V30 15 C -1.378491 0.301314 0.824368 0
M  V30 16 C -2.339492 -0.129939 1.716233 0
M  V30 17 C -3.693116 0.127787 1.473021 0
M  V30 18 C -3.955015 0.821742 0.309672 0
M  V30 19 C -3.050564 1.282357 -0.624580 0
M  V30 20 Cl -3.574073 2.149183 -2.048186 0
M  V30 21 C -1.715461 0.998230 -0.332828 0
M  V30 22 H 0.487423 -0.977246 5.399685 0
M  V30 23 H 3.985383 -0.641042 -0.420228 0
M  V30 24 H 3.574976 -1.129375 -2.827347 0
M  V30 25 H 0.099114 -3.323390 -1.889495 0
M  V30 26 H 0.452893 -2.871673 0.523221 0
M  V30 27 H 0.799242 0.347681 0.416649 0
M  V30 28 H -2.098242 -0.673377 2.621828 0
M  V30 29 H -4.512882 -0.169609 2.111666 0
M  V30 30 H -5.004731 1.043393 0.083298 0
M  V30 31 H -0.966753 1.338677 -1.035411 0
M  V30 END ATOM
M  V30 BEGIN BOND
M  V30 1 1 1 2
M  V30 2 2 2 3
M  V30 3 1 3 4
M  V30 4 2 4 5
M  V30 5 1 5 6
M  V30 6 2 6 7
M  V30 7 1 7 8
M  V30 8 2 8 9
M  V30 9 1 9 10
M  V30 10 2 10 11
M  V30 11 1 5 12
M  V30 12 1 12 13
M  V30 13 2 13 14
M  V30 14 1 14 15
M  V30 15 2 15 16
M  V30 16 1 16 17
M  V30 17 2 17 18
M  V30 18 1 18 19
M  V30 19 1 19 20
M  V30 20 2 19 21
M  V30 21 1 12 2
M  V30 22 1 21 15
M  V30 23 1 11 6
M  V30 24 1 1 22
M  V30 25 1 7 23
M  V30 26 1 8 24
M  V30 27 1 10 25
M  V30 28 1 11 26
M  V30 29 1 14 27
M  V30 30 1 16 28
M  V30 31 1 17 29
M  V30 32 1 18 30
M  V30 33 1 21 31
M  V30 END BOND
M  V30 END CTAB
M  END
>  <Dataset>  (707) 
ChEMBL_Kinases

>  <Ligand_Instance>  (707) 
nan

>  <PDB_ID>  (707) 
nan

>  <Standardized_SMILES>  (707) 
Sc1nnc(-c2ccncc2)n1/N=C/c1cccc(Cl)c1

>  <Name>  (707) 
nan

>  <Pocket>  (707) 
nan

>  <ATP_Site>  (707) 
nan

>  <Peripheral>  (707) 
nan

>  <Num_H_Atoms_ProtBoundConf>  (707) 
nan

>  <Num_Resolved_Atoms>  (707) 
nan

>  <Num_Not_Resolved_Atoms>  (707) 
nan

$$$$
CHEMBL3215661
     RDKit          3D

  0  0  0  0  0  0  0  0  0  0999 V3000
M  V30 BEGIN CTAB
M  V30 COUNTS 51 54 0 0 0
M  V30 BEGIN ATOM
M  V30 1 C 2.714066 0.572265 -2.419858 0
M  V30 2 C 3.889759 0.132495 -1.638983 0
M  V30 3 N 3.619656 -0.532941 -0.386404 0
M  V30 4 C 3.063743 0.455290 0.518823 0
M  V30 5 C 2.756606 -0.093072 1.868017 0
M  V30 6 C 2.653109 -1.563538 1.995599 0
M  V30 7 C 2.534519 -2.358804 0.739341 0
M  V30 8 N 1.378269 -3.237104 0.784866 0
M  V30 9 C 0.121326 -2.590236 0.921356 0
M  V30 10 N 0.050184 -1.257258 0.998295 0
M  V30 11 C -1.080540 -0.542211 1.127203 0
M  V30 12 N -0.999778 0.864024 1.194226 0
M  V30 13 C -2.023054 1.803545 1.339389 0
M  V30 14 C -1.774410 3.170165 1.398819 0
M  V30 15 C -2.753490 4.119795 1.541551 0
M  V30 16 Cl -2.301455 5.810462 1.603300 0
M  V30 17 C -4.078753 3.756948 1.636532 0
M  V30 18 C -4.387737 2.415949 1.584108 0
M  V30 19 Cl -6.071351 1.960812 1.706362 0
M  V30 20 C -3.366071 1.508306 1.440315 0
M  V30 21 N -2.209699 -1.261004 1.179402 0
M  V30 22 C -2.264348 -2.597978 1.112391 0
M  V30 23 C -3.498968 -3.230746 1.177087 0
M  V30 24 C -3.527849 -4.627355 1.103963 0
M  V30 25 C -2.314163 -5.307704 0.970204 0
M  V30 26 Cl -2.433912 -7.061757 0.884472 0
M  V30 27 C -1.117599 -4.625541 0.911445 0
M  V30 28 C -1.073823 -3.271741 0.980898 0
M  V30 29 C 2.619847 -1.573642 -0.522883 0
M  V30 30 H 1.799176 0.810301 -1.884094 0
M  V30 31 H 2.986302 1.522842 -2.967801 0
M  V30 32 H 2.524925 -0.147811 -3.272677 0
M  V30 33 H 4.466146 -0.618434 -2.255528 0
M  V30 34 H 4.604396 0.973291 -1.516368 0
M  V30 35 H 3.813994 1.299825 0.552828 0
M  V30 36 H 2.150013 0.938390 0.101765 0
M  V30 37 H 1.852610 0.425645 2.312059 0
M  V30 38 H 3.604457 0.258263 2.537007 0
M  V30 39 H 1.731446 -1.778345 2.619068 0
M  V30 40 H 3.488951 -1.938836 2.649318 0
M  V30 41 H 3.436509 -3.046437 0.727237 0
M  V30 42 H 1.500099 -4.267687 0.718818 0
M  V30 43 H -0.030112 1.292508 1.125390 0
M  V30 44 H -0.731644 3.517966 1.328527 0
M  V30 45 H -4.852597 4.500951 1.748561 0
M  V30 46 H -3.711245 0.493002 1.410089 0
M  V30 47 H -4.380291 -2.587397 1.282737 0
M  V30 48 H -4.492703 -5.096304 1.155904 0
M  V30 49 H -0.228251 -5.206526 0.808390 0
M  V30 50 H 2.889570 -2.249835 -1.379934 0
M  V30 51 H 1.701869 -1.059501 -0.826474 0
M  V30 END ATOM
M  V30 BEGIN BOND
M  V30 1 1 1 2
M  V30 2 1 2 3
M  V30 3 1 3 4
M  V30 4 1 4 5
M  V30 5 1 5 6
M  V30 6 1 6 7
M  V30 7 1 7 8
M  V30 8 1 8 9
M  V30 9 2 9 10
M  V30 10 1 10 11
M  V30 11 1 11 12
M  V30 12 1 12 13
M  V30 13 2 13 14
M  V30 14 1 14 15
M  V30 15 1 15 16
M  V30 16 2 15 17
M  V30 17 1 17 18
M  V30 18 1 18 19
M  V30 19 2 18 20
M  V30 20 2 11 21
M  V30 21 1 21 22
M  V30 22 2 22 23
M  V30 23 1 23 24
M  V30 24 2 24 25
M  V30 25 1 25 26
M  V30 26 1 25 27
M  V30 27 2 27 28
M  V30 28 1 7 29
M  V30 29 1 29 3
M  V30 30 1 28 9
M  V30 31 1 20 13
M  V30 32 1 28 22
M  V30 33 1 1 30
M  V30 34 1 1 31
M  V30 35 1 1 32
M  V30 36 1 2 33
M  V30 37 1 2 34
M  V30 38 1 4 35
M  V30 39 1 4 36
M  V30 40 1 5 37
M  V30 41 1 5 38
M  V30 42 1 6 39
M  V30 43 1 6 40
M  V30 44 1 7 41
M  V30 45 1 8 42
M  V30 46 1 12 43
M  V30 47 1 14 44
M  V30 48 1 17 45
M  V30 49 1 20 46
M  V30 50 1 23 47
M  V30 51 1 24 48
M  V30 52 1 27 49
M  V30 53 1 29 50
M  V30 54 1 29 51
M  V30 END BOND
M  V30 END CTAB
M  END
>  <Dataset>  (708) 
ChEMBL_Kinases

>  <Ligand_Instance>  (708) 
nan

>  <PDB_ID>  (708) 
nan

>  <Standardized_SMILES>  (708) 
CCN1CCCC(Nc2nc(Nc3cc(Cl)cc(Cl)c3)nc3ccc(Cl)cc23)C1

>  <Name>  (708) 
nan

>  <Pocket>  (708) 
nan

>  <ATP_Site>  (708) 
nan

>  <Peripheral>  (708) 
nan

>  <Num_H_Atoms_ProtBoundConf>  (708) 
nan

>  <Num_Resolved_Atoms>  (708) 
nan

>  <Num_Not_Resolved_Atoms>  (708) 
nan

$$$$
CHEMBL321517
     RDKit          3D

  0  0  0  0  0  0  0  0  0  0999 V3000
M  V30 BEGIN CTAB
M  V30 COUNTS 38 40 0 0 0
M  V30 BEGIN ATOM
M  V30 1 N -2.305923 -6.611842 3.273395 0
M  V30 2 C -1.466584 -5.619917 2.699306 0
M  V30 3 C -0.188917 -5.947924 2.330785 0
M  V30 4 C 0.745374 -5.090538 1.761368 0
M  V30 5 C 0.332285 -3.784383 1.552469 0
M  V30 6 C 1.267966 -2.834740 0.960482 0
M  V30 7 C 1.085490 -1.501314 0.663294 0
M  V30 8 C 2.203740 -0.925292 0.107073 0
M  V30 9 N 2.500338 0.376057 -0.362456 0
M  V30 10 C 1.668823 1.502183 -0.493834 0
M  V30 11 C 0.309776 1.514843 -0.721384 0
M  V30 12 C -0.481311 2.637837 -0.820967 0
M  V30 13 C 0.106264 3.887542 -0.685569 0
M  V30 14 S -0.958576 5.257912 -0.822694 0
M  V30 15 N -1.666859 5.654466 0.703710 0
M  V30 16 O -1.990764 5.001261 -1.880754 0
M  V30 17 O -0.118784 6.421182 -1.307813 0
M  V30 18 C 1.458435 3.937204 -0.457694 0
M  V30 19 C 2.202105 2.791378 -0.367213 0
M  V30 20 N 3.073878 -1.937454 0.071865 0
M  V30 21 N 2.534642 -3.031775 0.562188 0
M  V30 22 C -0.943538 -3.406081 1.906518 0
M  V30 23 C -1.847038 -4.310918 2.477869 0
M  V30 24 H -2.765015 -7.462391 2.854850 0
M  V30 25 H -2.613461 -6.640849 4.275449 0
M  V30 26 H 0.151801 -6.956100 2.484118 0
M  V30 27 H 1.733476 -5.433217 1.500490 0
M  V30 28 H 0.153279 -0.979867 0.861618 0
M  V30 29 H 3.479426 0.571802 -0.673542 0
M  V30 30 H -0.189705 0.571824 -0.843311 0
M  V30 31 H -1.562157 2.532643 -1.004588 0
M  V30 32 H -2.503321 6.252625 0.504606 0
M  V30 33 H -1.019341 6.235868 1.279453 0
M  V30 34 H 1.892715 4.921468 -0.356150 0
M  V30 35 H 3.268254 2.947942 -0.184553 0
M  V30 36 H 4.064176 -1.950044 -0.277744 0
M  V30 37 H -1.286406 -2.394946 1.753557 0
M  V30 38 H -2.849823 -4.017577 2.757982 0
M  V30 END ATOM
M  V30 BEGIN BOND
M  V30 1 1 1 2
M  V30 2 2 2 3
M  V30 3 1 3 4
M  V30 4 2 4 5
M  V30 5 1 5 6
M  V30 6 1 6 7
M  V30 7 2 7 8
M  V30 8 1 8 9
M  V30 9 1 9 10
M  V30 10 2 10 11
M  V30 11 1 11 12
M  V30 12 2 12 13
M  V30 13 1 13 14
M  V30 14 1 14 15
M  V30 15 2 14 16
M  V30 16 2 14 17
M  V30 17 1 13 18
M  V30 18 2 18 19
M  V30 19 1 8 20
M  V30 20 1 20 21
M  V30 21 1 5 22
M  V30 22 2 22 23
M  V30 23 1 23 2
M  V30 24 2 21 6
M  V30 25 1 19 10
M  V30 26 1 1 24
M  V30 27 1 1 25
M  V30 28 1 3 26
M  V30 29 1 4 27
M  V30 30 1 7 28
M  V30 31 1 9 29
M  V30 32 1 11 30
M  V30 33 1 12 31
M  V30 34 1 15 32
M  V30 35 1 15 33
M  V30 36 1 18 34
M  V30 37 1 19 35
M  V30 38 1 20 36
M  V30 39 1 22 37
M  V30 40 1 23 38
M  V30 END BOND
M  V30 END CTAB
M  END
>  <Dataset>  (709) 
ChEMBL_Kinases

>  <Ligand_Instance>  (709) 
nan

>  <PDB_ID>  (709) 
nan

>  <Standardized_SMILES>  (709) 
Nc1ccc(-c2cc(Nc3ccc(S(N)(=O)=O)cc3)[nH]n2)cc1

>  <Name>  (709) 
nan

>  <Pocket>  (709) 
nan

>  <ATP_Site>  (709) 
nan

>  <Peripheral>  (709) 
nan

>  <Num_H_Atoms_ProtBoundConf>  (709) 
nan

>  <Num_Resolved_Atoms>  (709) 
nan

>  <Num_Not_Resolved_Atoms>  (709) 
nan

$$$$
CHEMBL3214598
     RDKit          3D

  0  0  0  0  0  0  0  0  0  0999 V3000
M  V30 BEGIN CTAB
M  V30 COUNTS 50 51 0 0 0
M  V30 BEGIN ATOM
M  V30 1 C 1.495404 2.126908 3.465692 0
M  V30 2 C 0.215145 1.366532 3.624089 0
M  V30 3 O 0.273808 0.023233 3.237303 0
M  V30 4 C 0.593816 -0.406725 1.956823 0
M  V30 5 O 0.855128 0.421019 1.052979 0
M  V30 6 C 0.642497 -1.818237 1.600137 0
M  V30 7 C -0.518052 -2.396270 1.136946 0
M  V30 8 N -1.817238 -1.849822 0.931045 0
M  V30 9 C -2.081191 -1.288905 -0.361758 0
M  V30 10 O -1.130475 -1.336910 -1.189469 0
M  V30 11 N -3.278468 -0.693811 -0.805991 0
M  V30 12 N -3.302966 -0.205348 -2.139428 0
M  V30 13 C -2.414045 0.659608 -2.531679 0
M  V30 14 C -2.277199 1.271380 -3.847920 0
M  V30 15 C -1.282781 2.181062 -4.134715 0
M  V30 16 C -1.215888 2.716796 -5.399198 0
M  V30 17 C -2.140066 2.344106 -6.373123 0
M  V30 18 O -1.937895 2.974313 -7.599803 0
M  V30 19 C -3.135269 1.431515 -6.080350 0
M  V30 20 O -3.952075 1.187157 -7.164252 0
M  V30 21 C -5.052902 0.304011 -7.171869 0
M  V30 22 C -3.216300 0.881206 -4.807478 0
M  V30 23 S -0.108110 -4.072888 0.807921 0
M  V30 24 C 1.665181 -3.929257 1.321936 0
M  V30 25 C 2.491233 -5.079700 1.241980 0
M  V30 26 C 3.916892 -5.100205 1.620670 0
M  V30 27 O 2.049803 -6.181299 0.833389 0
M  V30 28 C 1.757877 -2.611724 1.691916 0
M  V30 29 C 3.078710 -2.099792 2.179305 0
M  V30 30 H 1.863382 2.017910 2.430795 0
M  V30 31 H 2.242216 1.682097 4.168414 0
M  V30 32 H 1.279443 3.178164 3.741061 0
M  V30 33 H -0.008267 1.370185 4.728621 0
M  V30 34 H -0.629814 1.887174 3.130130 0
M  V30 35 H -2.614081 -1.802194 1.604286 0
M  V30 36 H -4.057322 -0.665105 -0.098413 0
M  V30 37 H -1.683568 0.954337 -1.762326 0
M  V30 38 H -0.608823 2.408840 -3.309001 0
M  V30 39 H -0.400818 3.421343 -5.526488 0
M  V30 40 H -1.022950 3.069651 -8.022265 0
M  V30 41 H -5.193325 -0.151711 -8.191877 0
M  V30 42 H -4.889685 -0.489186 -6.410196 0
M  V30 43 H -6.012325 0.865298 -7.009871 0
M  V30 44 H -4.018087 0.184269 -4.672093 0
M  V30 45 H 4.325611 -6.122869 1.769309 0
M  V30 46 H 4.150949 -4.555420 2.553134 0
M  V30 47 H 4.492008 -4.609215 0.781126 0
M  V30 48 H 3.103773 -0.969768 2.134592 0
M  V30 49 H 3.900729 -2.412538 1.517047 0
M  V30 50 H 3.291069 -2.425472 3.200399 0
M  V30 END ATOM
M  V30 BEGIN BOND
M  V30 1 1 1 2
M  V30 2 1 2 3
M  V30 3 1 3 4
M  V30 4 2 4 5
M  V30 5 1 4 6
M  V30 6 2 6 7
M  V30 7 1 7 8
M  V30 8 1 8 9
M  V30 9 2 9 10
M  V30 10 1 9 11
M  V30 11 1 11 12
M  V30 12 2 12 13
M  V30 13 1 13 14
M  V30 14 2 14 15
M  V30 15 1 15 16
M  V30 16 2 16 17
M  V30 17 1 17 18
M  V30 18 1 17 19
M  V30 19 1 19 20
M  V30 20 1 20 21
M  V30 21 2 19 22
M  V30 22 1 7 23
M  V30 23 1 23 24
M  V30 24 1 24 25
M  V30 25 1 25 26
M  V30 26 2 25 27
M  V30 27 2 24 28
M  V30 28 1 28 29
M  V30 29 1 28 6
M  V30 30 1 22 14
M  V30 31 1 1 30
M  V30 32 1 1 31
M  V30 33 1 1 32
M  V30 34 1 2 33
M  V30 35 1 2 34
M  V30 36 1 8 35
M  V30 37 1 11 36
M  V30 38 1 13 37
M  V30 39 1 15 38
M  V30 40 1 16 39
M  V30 41 1 18 40
M  V30 42 1 21 41
M  V30 43 1 21 42
M  V30 44 1 21 43
M  V30 45 1 22 44
M  V30 46 1 26 45
M  V30 47 1 26 46
M  V30 48 1 26 47
M  V30 49 1 29 48
M  V30 50 1 29 49
M  V30 51 1 29 50
M  V30 END BOND
M  V30 END CTAB
M  END
>  <Dataset>  (710) 
ChEMBL_Kinases

>  <Ligand_Instance>  (710) 
nan

>  <PDB_ID>  (710) 
nan

>  <Standardized_SMILES>  (710) 
CCOC(=O)c1c(NC(=O)N/N=C/c2ccc(O)c(OC)c2)sc(C(C)=O)c1C

>  <Name>  (710) 
nan

>  <Pocket>  (710) 
nan

>  <ATP_Site>  (710) 
nan

>  <Peripheral>  (710) 
nan

>  <Num_H_Atoms_ProtBoundConf>  (710) 
nan

>  <Num_Resolved_Atoms>  (710) 
nan

>  <Num_Not_Resolved_Atoms>  (710) 
nan

$$$$
CHEMBL3214589
     RDKit          3D

  0  0  0  0  0  0  0  0  0  0999 V3000
M  V30 BEGIN CTAB
M  V30 COUNTS 48 52 0 0 0
M  V30 BEGIN ATOM
M  V30 1 C -1.778607 -5.778495 0.675674 0
M  V30 2 O -1.090742 -4.566422 0.825511 0
M  V30 3 C 0.276395 -4.478988 0.899840 0
M  V30 4 O -0.995092 -4.560528 0.830689 0
M  V30 5 C 1.129208 -3.268422 1.058775 0
M  V30 6 C 2.418635 -3.400061 1.113728 0
M  V30 7 C 3.150821 -4.651080 1.034264 0
M  V30 8 N 3.114452 -2.169742 1.261921 0
M  V30 9 C 2.441020 -1.046497 1.328548 0
M  V30 10 S 3.144047 0.667714 1.520220 0
M  V30 11 C 1.522812 1.392721 1.495913 0
M  V30 12 C 1.395657 2.688593 1.603648 0
M  V30 13 C 2.460612 3.656180 1.748590 0
M  V30 14 O 3.690336 3.445614 1.803573 0
M  V30 15 N 1.873469 4.940228 1.822626 0
M  V30 16 C 0.452928 4.733440 1.720945 0
M  V30 17 C -0.523713 5.707309 1.744474 0
M  V30 18 C -1.815324 5.275892 1.630629 0
M  V30 19 C -2.130204 3.914987 1.496892 0
M  V30 20 C -1.100869 3.003531 1.481762 0
M  V30 21 C 0.171829 3.406942 1.592138 0
M  V30 22 C 0.738149 0.355943 1.360909 0
M  V30 23 O -0.492221 0.427668 1.300411 0
M  V30 24 N 1.111788 -0.890624 1.270190 0
M  V30 25 C 0.277105 -2.085317 1.123647 0
M  V30 26 C -0.653616 -1.986380 -0.041798 0
M  V30 27 C -0.097466 -2.240066 -1.284769 0
M  V30 28 C -0.884844 -2.179399 -2.417213 0
M  V30 29 C -2.226530 -1.872413 -2.374334 0
M  V30 30 C -2.764649 -1.622716 -1.129628 0
M  V30 31 C -1.998331 -1.678856 0.001696 0
M  V30 32 H -2.261045 -6.023680 1.650150 0
M  V30 33 H -1.094050 -6.603635 0.377734 0
M  V30 34 H -2.527396 -5.663192 -0.150508 0
M  V30 35 H 3.279167 -5.077180 2.059234 0
M  V30 36 H 2.626165 -5.378521 0.395880 0
M  V30 37 H 4.198508 -4.505835 0.643434 0
M  V30 38 H 2.390590 5.838556 1.928802 0
M  V30 39 H -0.256648 6.752242 1.848472 0
M  V30 40 H -2.539543 6.093780 1.655951 0
M  V30 41 H -3.230284 3.846105 1.424871 0
M  V30 42 H -1.644967 2.123049 1.374917 0
M  V30 43 H -0.365912 -2.156023 2.058039 0
M  V30 44 H 0.928569 -2.493745 -1.504829 0
M  V30 45 H -0.504005 -2.369086 -3.425516 0
M  V30 46 H -2.853885 -1.819234 -3.234021 0
M  V30 47 H -3.809537 -1.380602 -1.066423 0
M  V30 48 H -2.408754 -1.490969 0.959068 0
M  V30 END ATOM
M  V30 BEGIN BOND
M  V30 1 1 1 2
M  V30 2 1 2 3
M  V30 3 2 3 4
M  V30 4 1 3 5
M  V30 5 2 5 6
M  V30 6 1 6 7
M  V30 7 1 6 8
M  V30 8 2 8 9
M  V30 9 1 9 10
M  V30 10 1 10 11
M  V30 11 2 11 12
M  V30 12 1 12 13
M  V30 13 2 13 14
M  V30 14 1 13 15
M  V30 15 1 15 16
M  V30 16 2 16 17
M  V30 17 1 17 18
M  V30 18 2 18 19
M  V30 19 1 19 20
M  V30 20 2 20 21
M  V30 21 1 11 22
M  V30 22 2 22 23
M  V30 23 1 22 24
M  V30 24 1 24 25
M  V30 25 1 25 26
M  V30 26 2 26 27
M  V30 27 1 27 28
M  V30 28 2 28 29
M  V30 29 1 29 30
M  V30 30 2 30 31
M  V30 31 1 25 5
M  V30 32 1 31 26
M  V30 33 1 24 9
M  V30 34 1 21 12
M  V30 35 1 21 16
M  V30 36 1 1 32
M  V30 37 1 1 33
M  V30 38 1 1 34
M  V30 39 1 7 35
M  V30 40 1 7 36
M  V30 41 1 7 37
M  V30 42 1 15 38
M  V30 43 1 17 39
M  V30 44 1 18 40
M  V30 45 1 19 41
M  V30 46 1 20 42
M  V30 47 1 25 43
M  V30 48 1 27 44
M  V30 49 1 28 45
M  V30 50 1 29 46
M  V30 51 1 30 47
M  V30 52 1 31 48
M  V30 END BOND
M  V30 END CTAB
M  END
>  <Dataset>  (711) 
ChEMBL_Kinases

>  <Ligand_Instance>  (711) 
nan

>  <PDB_ID>  (711) 
nan

>  <Standardized_SMILES>  (711) 
COC(=O)C1=C(C)N=c2s/c(=C3\C(=O)Nc4ccccc43)c(=O)n2C1c1ccccc1

>  <Name>  (711) 
nan

>  <Pocket>  (711) 
nan

>  <ATP_Site>  (711) 
nan

>  <Peripheral>  (711) 
nan

>  <Num_H_Atoms_ProtBoundConf>  (711) 
nan

>  <Num_Resolved_Atoms>  (711) 
nan

>  <Num_Not_Resolved_Atoms>  (711) 
nan

$$$$
CHEMBL3214359
     RDKit          3D

  0  0  0  0  0  0  0  0  0  0999 V3000
M  V30 BEGIN CTAB
M  V30 COUNTS 30 31 0 0 0
M  V30 BEGIN ATOM
M  V30 1 Cl 1.442542 -0.620934 7.345100 0
M  V30 2 C 1.407051 -0.738787 5.594586 0
M  V30 3 C 2.510708 -1.241343 4.952001 0
M  V30 4 C 2.511756 -1.346821 3.563514 0
M  V30 5 C 1.376716 -0.930225 2.899382 0
M  V30 6 C 1.338524 -1.026278 1.422250 0
M  V30 7 N 0.337669 -0.666348 0.738970 0
M  V30 8 N 0.197144 -0.713602 -0.649464 0
M  V30 9 C 0.207700 0.584348 -1.340074 0
M  V30 10 C -1.270745 0.783632 -1.704293 0
M  V30 11 C -1.579951 -0.286277 -2.720774 0
M  V30 12 C -1.391403 -1.662563 -2.126152 0
M  V30 13 C 0.035417 -1.832480 -1.593560 0
M  V30 14 C 0.248279 -0.418994 3.521920 0
M  V30 15 C 0.270105 -0.323340 4.904869 0
M  V30 16 H 3.408284 -1.570077 5.486657 0
M  V30 17 H 3.376850 -1.741098 3.055147 0
M  V30 18 H 2.184995 -1.415935 0.873382 0
M  V30 19 H 0.817967 0.506585 -2.256374 0
M  V30 20 H 0.584890 1.393735 -0.701802 0
M  V30 21 H -1.846312 0.536830 -0.767449 0
M  V30 22 H -1.482665 1.772475 -2.104129 0
M  V30 23 H -0.881548 -0.206632 -3.567592 0
M  V30 24 H -2.622102 -0.174346 -3.012854 0
M  V30 25 H -2.072326 -1.744786 -1.258484 0
M  V30 26 H -1.587267 -2.417669 -2.915907 0
M  V30 27 H 0.774923 -1.694175 -2.398874 0
M  V30 28 H 0.109746 -2.787344 -1.072917 0
M  V30 29 H -0.619778 -0.104742 2.956229 0
M  V30 30 H -0.584294 0.070052 5.459597 0
M  V30 END ATOM
M  V30 BEGIN BOND
M  V30 1 1 1 2
M  V30 2 2 2 3
M  V30 3 1 3 4
M  V30 4 2 4 5
M  V30 5 1 5 6
M  V30 6 2 6 7
M  V30 7 1 7 8
M  V30 8 1 8 9
M  V30 9 1 9 10
M  V30 10 1 10 11
M  V30 11 1 11 12
M  V30 12 1 12 13
M  V30 13 1 5 14
M  V30 14 2 14 15
M  V30 15 1 15 2
M  V30 16 1 13 8
M  V30 17 1 3 16
M  V30 18 1 4 17
M  V30 19 1 6 18
M  V30 20 1 9 19
M  V30 21 1 9 20
M  V30 22 1 10 21
M  V30 23 1 10 22
M  V30 24 1 11 23
M  V30 25 1 11 24
M  V30 26 1 12 25
M  V30 27 1 12 26
M  V30 28 1 13 27
M  V30 29 1 13 28
M  V30 30 1 14 29
M  V30 31 1 15 30
M  V30 END BOND
M  V30 END CTAB
M  END
>  <Dataset>  (712) 
ChEMBL_Kinases

>  <Ligand_Instance>  (712) 
nan

>  <PDB_ID>  (712) 
nan

>  <Standardized_SMILES>  (712) 
Clc1ccc(/C=N/N2CCCCC2)cc1

>  <Name>  (712) 
nan

>  <Pocket>  (712) 
nan

>  <ATP_Site>  (712) 
nan

>  <Peripheral>  (712) 
nan

>  <Num_H_Atoms_ProtBoundConf>  (712) 
nan

>  <Num_Resolved_Atoms>  (712) 
nan

>  <Num_Not_Resolved_Atoms>  (712) 
nan

$$$$
CHEMBL3214233
     RDKit          3D

  0  0  0  0  0  0  0  0  0  0999 V3000
M  V30 BEGIN CTAB
M  V30 COUNTS 54 56 0 0 0
M  V30 BEGIN ATOM
M  V30 1 C 4.221244 -3.054855 1.016078 0
M  V30 2 O 4.051939 -1.677062 0.866248 0
M  V30 3 C 4.518603 -0.759070 1.773569 0
M  V30 4 C 5.203659 -0.932661 2.947644 0
M  V30 5 C 5.637536 0.041821 3.802702 0
M  V30 6 C 5.352948 1.347385 3.442725 0
M  V30 7 C 4.668747 1.604352 2.278915 0
M  V30 8 C 4.247329 0.567567 1.438731 0
M  V30 9 N 3.547896 0.969754 0.249827 0
M  V30 10 S 2.863395 2.420008 -0.355734 0
M  V30 11 O 3.322240 2.571481 -1.800083 0
M  V30 12 O 3.296636 3.594606 0.435500 0
M  V30 13 C 1.105030 2.320376 -0.416560 0
M  V30 14 C 0.331588 2.658311 0.700370 0
M  V30 15 C -1.042015 2.574620 0.609495 0
M  V30 16 C -1.705338 2.173260 -0.530777 0
M  V30 17 N -3.116245 2.067104 -0.672526 0
M  V30 18 N -3.293441 0.689188 -0.378852 0
M  V30 19 C -4.262134 0.145776 -1.076957 0
M  V30 20 C -4.568372 -1.284398 -0.884629 0
M  V30 21 C -3.876159 -1.991008 -0.026507 0
M  V30 22 C -4.088211 -3.405587 0.244833 0
M  V30 23 C -5.057925 -4.148879 -0.391579 0
M  V30 24 C -5.245141 -5.507446 -0.120997 0
M  V30 25 C -4.427064 -6.129868 0.820628 0
M  V30 26 C -3.452094 -5.403474 1.467514 0
M  V30 27 C -3.310526 -4.072370 1.164305 0
M  V30 28 N -2.277869 -3.435501 1.892056 0 CHG=1 VAL=4
M  V30 29 O -1.875488 -3.777328 3.015120 0
M  V30 30 O -1.406288 -2.401824 1.801585 0 CHG=-1 VAL=1
M  V30 31 C -0.914548 1.846088 -1.617073 0
M  V30 32 N -1.463941 1.414988 -2.850530 0 CHG=1 VAL=4
M  V30 33 O -0.846876 0.667161 -3.638036 0
M  V30 34 O -2.652840 1.639659 -3.474504 0 CHG=-1 VAL=1
M  V30 35 C 0.461514 1.912607 -1.577566 0
M  V30 36 H 4.792304 -3.355774 1.910886 0
M  V30 37 H 3.225176 -3.563130 1.109632 0
M  V30 38 H 4.794696 -3.474852 0.148261 0
M  V30 39 H 5.413505 -1.958816 3.206368 0
M  V30 40 H 6.170234 -0.231391 4.700123 0
M  V30 41 H 5.709371 2.101290 4.142781 0
M  V30 42 H 4.527116 2.663357 2.141843 0
M  V30 43 H 3.413013 0.168733 -0.436957 0
M  V30 44 H 0.832707 2.973509 1.599304 0
M  V30 45 H -1.647392 2.833159 1.469363 0
M  V30 46 H -3.814664 2.809879 -0.923789 0
M  V30 47 H -4.861107 0.715425 -1.805114 0
M  V30 48 H -5.347692 -1.741011 -1.438685 0
M  V30 49 H -3.096807 -1.469635 0.508845 0
M  V30 50 H -5.707592 -3.710481 -1.123181 0
M  V30 51 H -6.028868 -6.042708 -0.657607 0
M  V30 52 H -4.664944 -7.194621 0.952535 0
M  V30 53 H -2.852569 -5.945242 2.184610 0
M  V30 54 H 1.086679 1.654073 -2.435456 0
M  V30 END ATOM
M  V30 BEGIN BOND
M  V30 1 1 1 2
M  V30 2 1 2 3
M  V30 3 2 3 4
M  V30 4 1 4 5
M  V30 5 2 5 6
M  V30 6 1 6 7
M  V30 7 2 7 8
M  V30 8 1 8 9
M  V30 9 1 9 10
M  V30 10 2 10 11
M  V30 11 2 10 12
M  V30 12 1 10 13
M  V30 13 2 13 14
M  V30 14 1 14 15
M  V30 15 2 15 16
M  V30 16 1 16 17
M  V30 17 1 17 18
M  V30 18 2 18 19
M  V30 19 1 19 20
M  V30 20 2 20 21
M  V30 21 1 21 22
M  V30 22 2 22 23
M  V30 23 1 23 24
M  V30 24 2 24 25
M  V30 25 1 25 26
M  V30 26 2 26 27
M  V30 27 1 27 28
M  V30 28 2 28 29
M  V30 29 1 28 30
M  V30 30 1 16 31
M  V30 31 1 31 32
M  V30 32 2 32 33
M  V30 33 1 32 34
M  V30 34 2 31 35
M  V30 35 1 8 3
M  V30 36 1 35 13
M  V30 37 1 27 22
M  V30 38 1 1 36
M  V30 39 1 1 37
M  V30 40 1 1 38
M  V30 41 1 4 39
M  V30 42 1 5 40
M  V30 43 1 6 41
M  V30 44 1 7 42
M  V30 45 1 9 43
M  V30 46 1 14 44
M  V30 47 1 15 45
M  V30 48 1 17 46
M  V30 49 1 19 47
M  V30 50 1 20 48
M  V30 51 1 21 49
M  V30 52 1 23 50
M  V30 53 1 24 51
M  V30 54 1 25 52
M  V30 55 1 26 53
M  V30 56 1 35 54
M  V30 END BOND
M  V30 END CTAB
M  END
>  <Dataset>  (713) 
ChEMBL_Kinases

>  <Ligand_Instance>  (713) 
nan

>  <PDB_ID>  (713) 
nan

>  <Standardized_SMILES>  (713) 
COc1ccccc1NS(=O)(=O)c1ccc(N/N=C/C=C/c2ccccc2[N+](=O)[O-])c([N+](=O)[O-])c1

>  <Name>  (713) 
nan

>  <Pocket>  (713) 
nan

>  <ATP_Site>  (713) 
nan

>  <Peripheral>  (713) 
nan

>  <Num_H_Atoms_ProtBoundConf>  (713) 
nan

>  <Num_Resolved_Atoms>  (713) 
nan

>  <Num_Not_Resolved_Atoms>  (713) 
nan

$$$$
CHEMBL321415
     RDKit          3D

  0  0  0  0  0  0  0  0  0  0999 V3000
M  V30 BEGIN CTAB
M  V30 COUNTS 50 53 0 0 0
M  V30 BEGIN ATOM
M  V30 1 C 4.147810 -4.072684 4.052109 0
M  V30 2 S 4.505165 -2.335234 4.480370 0
M  V30 3 C 3.752539 -1.275690 3.239878 0
M  V30 4 N 4.228026 -0.798303 2.070952 0
M  V30 5 C 3.262423 -0.032706 1.483253 0
M  V30 6 C 3.600551 0.578664 0.203912 0
M  V30 7 C 2.898340 0.355589 -0.980857 0
M  V30 8 C 3.255747 0.951121 -2.173007 0
M  V30 9 C 4.363152 1.804909 -2.174351 0
M  V30 10 F 4.769279 2.422127 -3.308989 0
M  V30 11 C 5.089171 2.050268 -1.005147 0
M  V30 12 C 4.704926 1.437520 0.175391 0
M  V30 13 C 2.180745 -0.080994 2.370475 0
M  V30 14 C 0.983359 0.670833 1.962759 0
M  V30 15 C 0.802948 2.001138 1.720800 0
M  V30 16 C -0.434111 2.472836 1.342361 0
M  V30 17 N -1.472640 1.602234 1.212416 0
M  V30 18 C -1.317949 0.286619 1.446081 0
M  V30 19 N -2.553077 -0.387170 1.235082 0
M  V30 20 C -2.707031 -0.926520 -0.098135 0 CFG=1
M  V30 21 C -1.642448 -1.979707 -0.393185 0
M  V30 22 C -4.050623 -1.386848 -0.433824 0
M  V30 23 C -4.648554 -1.057013 -1.653219 0
M  V30 24 C -5.907827 -1.416481 -2.102227 0
M  V30 25 C -6.632899 -2.193150 -1.215438 0
M  V30 26 C -6.126613 -2.569642 0.012518 0
M  V30 27 C -4.850541 -2.161889 0.379988 0
M  V30 28 C -0.075825 -0.232041 1.832707 0
M  V30 29 N 2.498894 -0.837058 3.424732 0
M  V30 30 H 3.109711 -4.346992 4.382550 0
M  V30 31 H 4.256980 -4.245786 2.963743 0
M  V30 32 H 4.830447 -4.775274 4.556516 0
M  V30 33 H 2.032427 -0.323627 -0.937506 0
M  V30 34 H 2.694067 0.762798 -3.086671 0
M  V30 35 H 5.956068 2.727114 -1.041126 0
M  V30 36 H 5.330218 1.684683 1.046684 0
M  V30 37 H 1.728530 2.540562 1.871966 0
M  V30 38 H -0.472638 3.539007 1.174986 0
M  V30 39 H -3.107023 -0.351542 2.105818 0
M  V30 40 H -2.458095 -0.082744 -0.791341 0
M  V30 41 H -0.638077 -1.529349 -0.497452 0
M  V30 42 H -1.906395 -2.470664 -1.342840 0
M  V30 43 H -1.671607 -2.751681 0.419835 0
M  V30 44 H -4.033521 -0.438995 -2.323351 0
M  V30 45 H -6.220127 -1.076236 -3.075533 0
M  V30 46 H -7.631083 -2.481686 -1.563811 0
M  V30 47 H -6.736252 -3.183892 0.681006 0
M  V30 48 H -4.443063 -2.455867 1.348136 0
M  V30 49 H -0.139361 -1.290125 1.973912 0
M  V30 50 H 1.797379 -0.981868 4.196337 0
M  V30 END ATOM
M  V30 BEGIN BOND
M  V30 1 1 1 2
M  V30 2 1 2 3
M  V30 3 2 3 4
M  V30 4 1 4 5
M  V30 5 1 5 6
M  V30 6 2 6 7
M  V30 7 1 7 8
M  V30 8 2 8 9
M  V30 9 1 9 10
M  V30 10 1 9 11
M  V30 11 2 11 12
M  V30 12 2 5 13
M  V30 13 1 13 14
M  V30 14 2 14 15
M  V30 15 1 15 16
M  V30 16 2 16 17
M  V30 17 1 17 18
M  V30 18 1 18 19
M  V30 19 1 19 20
M  V30 20 1 20 21
M  V30 21 1 20 22
M  V30 22 2 22 23
M  V30 23 1 23 24
M  V30 24 2 24 25
M  V30 25 1 25 26
M  V30 26 2 26 27
M  V30 27 2 18 28
M  V30 28 1 13 29
M  V30 29 1 29 3
M  V30 30 1 12 6
M  V30 31 1 28 14
M  V30 32 1 27 22
M  V30 33 1 1 30
M  V30 34 1 1 31
M  V30 35 1 1 32
M  V30 36 1 7 33
M  V30 37 1 8 34
M  V30 38 1 11 35
M  V30 39 1 12 36
M  V30 40 1 15 37
M  V30 41 1 16 38
M  V30 42 1 19 39
M  V30 43 1 20 40 CFG=3
M  V30 44 1 21 41
M  V30 45 1 21 42
M  V30 46 1 21 43
M  V30 47 1 23 44
M  V30 48 1 24 45
M  V30 49 1 25 46
M  V30 50 1 26 47
M  V30 51 1 27 48
M  V30 52 1 28 49
M  V30 53 1 29 50
M  V30 END BOND
M  V30 END CTAB
M  END
>  <Dataset>  (714) 
ChEMBL_Kinases

>  <Ligand_Instance>  (714) 
nan

>  <PDB_ID>  (714) 
nan

>  <Standardized_SMILES>  (714) 
CSc1nc(-c2ccc(F)cc2)c(-c2ccnc(N[C@@H](C)c3ccccc3)c2)[nH]1

>  <Name>  (714) 
nan

>  <Pocket>  (714) 
nan

>  <ATP_Site>  (714) 
nan

>  <Peripheral>  (714) 
nan

>  <Num_H_Atoms_ProtBoundConf>  (714) 
nan

>  <Num_Resolved_Atoms>  (714) 
nan

>  <Num_Not_Resolved_Atoms>  (714) 
nan

$$$$
CHEMBL3213753
     RDKit          3D

  0  0  0  0  0  0  0  0  0  0999 V3000
M  V30 BEGIN CTAB
M  V30 COUNTS 52 55 0 0 0
M  V30 BEGIN ATOM
M  V30 1 C 0.376345 -2.027081 1.094970 0
M  V30 2 N 0.189592 -1.172212 2.023635 0
M  V30 3 N 1.228949 -0.672853 2.845386 0
M  V30 4 C 0.611707 0.229521 3.804447 0
M  V30 5 C 1.713230 1.032398 4.447814 0
M  V30 6 N 2.621622 1.432135 3.376827 0
M  V30 7 C 1.922656 2.130545 2.346303 0
M  V30 8 C 2.862000 2.553864 1.288045 0
M  V30 9 C 3.206099 1.927010 0.085976 0
M  V30 10 C 4.122950 2.494773 -0.769530 0
M  V30 11 C 4.734946 3.694273 -0.480010 0
M  V30 12 C 4.425085 4.343686 0.691437 0
M  V30 13 C 3.502925 3.754655 1.533089 0
M  V30 14 C 3.428990 0.350918 2.925826 0
M  V30 15 C 2.650414 -0.951310 2.809026 0
M  V30 16 C -0.755773 -2.487783 0.294932 0
M  V30 17 C -2.010914 -1.972866 0.576350 0
M  V30 18 C -3.138537 -2.357457 -0.135993 0
M  V30 19 C -2.972104 -3.286569 -1.154078 0
M  V30 20 C -4.208254 -3.640281 -1.856853 0
M  V30 21 C -5.187158 -2.700677 -1.989541 0
M  V30 22 C -6.379417 -2.957820 -2.638869 0
M  V30 23 C -6.617130 -4.221375 -3.190324 0
M  V30 24 C -5.601969 -5.141443 -3.033796 0
M  V30 25 C -4.411278 -4.895121 -2.388904 0
M  V30 26 C -1.725130 -3.810691 -1.447721 0
M  V30 27 C -0.604051 -3.411197 -0.720129 0
M  V30 28 H 1.360879 -2.408278 0.898470 0
M  V30 29 H 0.046623 -0.328323 4.583839 0
M  V30 30 H -0.094757 0.942350 3.358942 0
M  V30 31 H 2.321925 0.453444 5.175725 0
M  V30 32 H 1.315506 1.981811 4.872381 0
M  V30 33 H 1.390621 3.028148 2.735124 0
M  V30 34 H 1.163037 1.480855 1.853970 0
M  V30 35 H 2.667425 0.987479 -0.055112 0
M  V30 36 H 4.331647 1.947430 -1.673110 0
M  V30 37 H 5.453202 4.126715 -1.164338 0
M  V30 38 H 4.910890 5.284953 0.909252 0
M  V30 39 H 3.322864 4.346012 2.438051 0
M  V30 40 H 4.270268 0.141476 3.658451 0
M  V30 41 H 3.883664 0.548224 1.941163 0
M  V30 42 H 2.872780 -1.594094 3.708160 0
M  V30 43 H 2.877319 -1.456598 1.864297 0
M  V30 44 H -2.113879 -1.242222 1.383508 0
M  V30 45 H -4.077281 -1.900021 0.156911 0
M  V30 46 H -5.104861 -1.691435 -1.599623 0
M  V30 47 H -7.160496 -2.191157 -2.738711 0
M  V30 48 H -7.546334 -4.428896 -3.699626 0
M  V30 49 H -5.766161 -6.139721 -3.459430 0
M  V30 50 H -3.639777 -5.668542 -2.295769 0
M  V30 51 H -1.672037 -4.531542 -2.255823 0
M  V30 52 H 0.365474 -3.821652 -0.951329 0
M  V30 END ATOM
M  V30 BEGIN BOND
M  V30 1 2 1 2
M  V30 2 1 2 3
M  V30 3 1 3 4
M  V30 4 1 4 5
M  V30 5 1 5 6
M  V30 6 1 6 7
M  V30 7 1 7 8
M  V30 8 2 8 9
M  V30 9 1 9 10
M  V30 10 2 10 11
M  V30 11 1 11 12
M  V30 12 2 12 13
M  V30 13 1 6 14
M  V30 14 1 14 15
M  V30 15 1 1 16
M  V30 16 2 16 17
M  V30 17 1 17 18
M  V30 18 2 18 19
M  V30 19 1 19 20
M  V30 20 2 20 21
M  V30 21 1 21 22
M  V30 22 2 22 23
M  V30 23 1 23 24
M  V30 24 2 24 25
M  V30 25 1 19 26
M  V30 26 2 26 27
M  V30 27 1 15 3
M  V30 28 1 27 16
M  V30 29 1 13 8
M  V30 30 1 25 20
M  V30 31 1 1 28
M  V30 32 1 4 29
M  V30 33 1 4 30
M  V30 34 1 5 31
M  V30 35 1 5 32
M  V30 36 1 7 33
M  V30 37 1 7 34
M  V30 38 1 9 35
M  V30 39 1 10 36
M  V30 40 1 11 37
M  V30 41 1 12 38
M  V30 42 1 13 39
M  V30 43 1 14 40
M  V30 44 1 14 41
M  V30 45 1 15 42
M  V30 46 1 15 43
M  V30 47 1 17 44
M  V30 48 1 18 45
M  V30 49 1 21 46
M  V30 50 1 22 47
M  V30 51 1 23 48
M  V30 52 1 24 49
M  V30 53 1 25 50
M  V30 54 1 26 51
M  V30 55 1 27 52
M  V30 END BOND
M  V30 END CTAB
M  END
>  <Dataset>  (715) 
ChEMBL_Kinases

>  <Ligand_Instance>  (715) 
nan

>  <PDB_ID>  (715) 
nan

>  <Standardized_SMILES>  (715) 
C(=N/N1CCN(Cc2ccccc2)CC1)\c1ccc(-c2ccccc2)cc1

>  <Name>  (715) 
nan

>  <Pocket>  (715) 
nan

>  <ATP_Site>  (715) 
nan

>  <Peripheral>  (715) 
nan

>  <Num_H_Atoms_ProtBoundConf>  (715) 
nan

>  <Num_Resolved_Atoms>  (715) 
nan

>  <Num_Not_Resolved_Atoms>  (715) 
nan

$$$$
CHEMBL3213710
     RDKit          3D

  0  0  0  0  0  0  0  0  0  0999 V3000
M  V30 BEGIN CTAB
M  V30 COUNTS 23 23 0 0 0
M  V30 BEGIN ATOM
M  V30 1 C 0.489321 0.004186 2.995053 0
M  V30 2 C 0.664086 -0.998346 1.896847 0
M  V30 3 C 1.006052 -2.282455 2.248062 0
M  V30 4 C 1.187269 -3.269835 1.303501 0
M  V30 5 Cl 1.618548 -4.872728 1.807524 0
M  V30 6 C 1.010687 -2.910121 0.004433 0
M  V30 7 C 0.668179 -1.617527 -0.323593 0
M  V30 8 C 0.480148 -0.611476 0.588466 0
M  V30 9 N 0.129622 0.729888 0.319702 0
M  V30 10 C -0.108848 1.351364 -0.930966 0
M  V30 11 O -0.015551 0.692821 -1.965466 0
M  V30 12 C -0.465846 2.763741 -1.035150 0
M  V30 13 N -0.575147 3.487876 0.003022 0
M  V30 14 O -0.903316 4.821330 0.036144 0
M  V30 15 H 0.472391 -0.496773 3.983748 0
M  V30 16 H -0.468240 0.558706 2.920472 0
M  V30 17 H 1.364927 0.677537 2.933941 0
M  V30 18 H 1.134994 -2.518925 3.293174 0
M  V30 19 H 1.146339 -3.664397 -0.758498 0
M  V30 20 H 0.548791 -1.417483 -1.360981 0
M  V30 21 H 0.020452 1.390000 1.123812 0
M  V30 22 H -0.645934 3.229762 -1.991880 0
M  V30 23 H -0.244278 5.429697 0.517745 0
M  V30 END ATOM
M  V30 BEGIN BOND
M  V30 1 1 1 2
M  V30 2 2 2 3
M  V30 3 1 3 4
M  V30 4 1 4 5
M  V30 5 2 4 6
M  V30 6 1 6 7
M  V30 7 2 7 8
M  V30 8 1 8 9
M  V30 9 1 9 10
M  V30 10 2 10 11
M  V30 11 1 10 12
M  V30 12 2 12 13
M  V30 13 1 13 14
M  V30 14 1 8 2
M  V30 15 1 1 15
M  V30 16 1 1 16
M  V30 17 1 1 17
M  V30 18 1 3 18
M  V30 19 1 6 19
M  V30 20 1 7 20
M  V30 21 1 9 21
M  V30 22 1 12 22
M  V30 23 1 14 23
M  V30 END BOND
M  V30 END CTAB
M  END
>  <Dataset>  (716) 
ChEMBL_Kinases

>  <Ligand_Instance>  (716) 
nan

>  <PDB_ID>  (716) 
nan

>  <Standardized_SMILES>  (716) 
Cc1cc(Cl)ccc1NC(=O)/C=N/O

>  <Name>  (716) 
nan

>  <Pocket>  (716) 
nan

>  <ATP_Site>  (716) 
nan

>  <Peripheral>  (716) 
nan

>  <Num_H_Atoms_ProtBoundConf>  (716) 
nan

>  <Num_Resolved_Atoms>  (716) 
nan

>  <Num_Not_Resolved_Atoms>  (716) 
nan

$$$$
CHEMBL3213424
     RDKit          3D

  0  0  0  0  0  0  0  0  0  0999 V3000
M  V30 BEGIN CTAB
M  V30 COUNTS 41 41 0 0 0
M  V30 BEGIN ATOM
M  V30 1 C 0.162261 -6.115501 3.968138 0
M  V30 2 C 1.351427 -5.853463 3.082731 0
M  V30 3 O 1.282300 -4.667759 2.350867 0
M  V30 4 C 1.179378 -3.405743 2.889082 0
M  V30 5 O 1.155535 -3.457689 4.127668 0
M  V30 6 C 1.116568 -2.245550 1.955984 0
M  V30 7 S 1.164940 -2.375232 0.199426 0
M  V30 8 C 1.045132 -0.615640 -0.110979 0
M  V30 9 N 1.021159 0.112869 -1.392703 0
M  V30 10 C -0.081838 0.506106 -1.916047 0
M  V30 11 N 0.529180 1.108451 -3.073322 0
M  V30 12 C 0.646430 2.564206 -2.995881 0
M  V30 13 C 0.969036 0.263550 -4.192136 0
M  V30 14 C 0.976355 -0.060286 1.184469 0
M  V30 15 C 0.867658 1.414909 1.295505 0
M  V30 16 O 1.750352 2.306485 1.378466 0
M  V30 17 O -0.484646 1.747060 1.298304 0
M  V30 18 C -0.956307 3.094862 1.393512 0
M  V30 19 C -2.483511 2.975842 1.358917 0
M  V30 20 C 1.017383 -0.944316 2.202979 0
M  V30 21 C 0.952377 -0.485620 3.640896 0
M  V30 22 H 0.008636 -7.213391 4.030679 0
M  V30 23 H 0.317093 -5.703242 4.993971 0
M  V30 24 H -0.788553 -5.695412 3.568174 0
M  V30 25 H 2.249391 -5.958381 3.723817 0
M  V30 26 H 1.402135 -6.689526 2.331370 0
M  V30 27 H -1.029570 0.304243 -1.413373 0
M  V30 28 H 1.109310 2.978464 -3.915584 0
M  V30 29 H -0.394408 2.999798 -2.962650 0
M  V30 30 H 1.245436 2.874250 -2.136708 0
M  V30 31 H 0.132128 -0.319012 -4.616681 0
M  V30 32 H 1.492555 0.921225 -4.893839 0
M  V30 33 H 1.738889 -0.418775 -3.744337 0
M  V30 34 H -0.667118 3.703576 0.519688 0
M  V30 35 H -0.666317 3.578351 2.336308 0
M  V30 36 H -2.805795 2.173170 0.676308 0
M  V30 37 H -2.909091 2.732506 2.348145 0
M  V30 38 H -2.855765 3.977098 1.041906 0
M  V30 39 H -0.046722 -0.777426 4.019967 0
M  V30 40 H 1.090013 0.583430 3.766346 0
M  V30 41 H 1.749420 -1.014540 4.235697 0
M  V30 END ATOM
M  V30 BEGIN BOND
M  V30 1 1 1 2
M  V30 2 1 2 3
M  V30 3 1 3 4
M  V30 4 2 4 5
M  V30 5 1 4 6
M  V30 6 1 6 7
M  V30 7 1 7 8
M  V30 8 1 8 9
M  V30 9 2 9 10
M  V30 10 1 10 11
M  V30 11 1 11 12
M  V30 12 1 11 13
M  V30 13 2 8 14
M  V30 14 1 14 15
M  V30 15 2 15 16
M  V30 16 1 15 17
M  V30 17 1 17 18
M  V30 18 1 18 19
M  V30 19 1 14 20
M  V30 20 1 20 21
M  V30 21 2 20 6
M  V30 22 1 1 22
M  V30 23 1 1 23
M  V30 24 1 1 24
M  V30 25 1 2 25
M  V30 26 1 2 26
M  V30 27 1 10 27
M  V30 28 1 12 28
M  V30 29 1 12 29
M  V30 30 1 12 30
M  V30 31 1 13 31
M  V30 32 1 13 32
M  V30 33 1 13 33
M  V30 34 1 18 34
M  V30 35 1 18 35
M  V30 36 1 19 36
M  V30 37 1 19 37
M  V30 38 1 19 38
M  V30 39 1 21 39
M  V30 40 1 21 40
M  V30 41 1 21 41
M  V30 END BOND
M  V30 END CTAB
M  END
>  <Dataset>  (717) 
ChEMBL_Kinases

>  <Ligand_Instance>  (717) 
nan

>  <PDB_ID>  (717) 
nan

>  <Standardized_SMILES>  (717) 
CCOC(=O)c1sc(/N=C/N(C)C)c(C(=O)OCC)c1C

>  <Name>  (717) 
nan

>  <Pocket>  (717) 
nan

>  <ATP_Site>  (717) 
nan

>  <Peripheral>  (717) 
nan

>  <Num_H_Atoms_ProtBoundConf>  (717) 
nan

>  <Num_Resolved_Atoms>  (717) 
nan

>  <Num_Not_Resolved_Atoms>  (717) 
nan

$$$$
CHEMBL3213043
     RDKit          3D

  0  0  0  0  0  0  0  0  0  0999 V3000
M  V30 BEGIN CTAB
M  V30 COUNTS 34 34 0 0 0
M  V30 BEGIN ATOM
M  V30 1 C -1.773142 -2.023475 1.936049 0
M  V30 2 C -0.402470 -2.427791 1.537796 0
M  V30 3 C 0.608010 -1.760790 2.438668 0
M  V30 4 C 2.003759 -2.148312 2.065254 0
M  V30 5 O 3.038468 -1.894108 2.946624 0
M  V30 6 C 2.241646 -2.729617 0.899516 0
M  V30 7 C 1.206522 -3.042987 -0.108537 0
M  V30 8 O 1.507754 -3.887932 -0.988915 0
M  V30 9 C -0.066460 -2.287043 0.082761 0
M  V30 10 C 0.200940 -0.897086 -0.339623 0
M  V30 11 O 1.297727 -0.517545 -0.837683 0
M  V30 12 O -0.841365 0.003389 -0.158847 0
M  V30 13 C -0.664681 1.344767 -0.536051 0
M  V30 14 C 0.474144 2.001697 0.210939 0
M  V30 15 C -1.940134 2.076195 -0.120228 0
M  V30 16 C -0.545021 1.489853 -2.034276 0
M  V30 17 H -1.761279 -1.653939 3.000196 0
M  V30 18 H -2.275612 -1.266628 1.346346 0
M  V30 19 H -2.475093 -2.902030 1.975891 0
M  V30 20 H -0.305243 -3.514561 1.751272 0
M  V30 21 H 0.459587 -0.668225 2.463939 0
M  V30 22 H 0.444398 -2.151047 3.464547 0
M  V30 23 H 3.341917 -0.964347 3.198909 0
M  V30 24 H 3.279871 -2.985917 0.690111 0
M  V30 25 H -0.842361 -2.805570 -0.499222 0
M  V30 26 H 1.150703 1.285431 0.685038 0
M  V30 27 H 0.105593 2.663446 1.036195 0
M  V30 28 H 1.049127 2.647063 -0.486276 0
M  V30 29 H -1.724450 3.027176 0.411344 0
M  V30 30 H -2.568015 1.463853 0.565255 0
M  V30 31 H -2.570890 2.341666 -0.991452 0
M  V30 32 H -1.596040 1.410453 -2.435451 0
M  V30 33 H 0.090657 0.718552 -2.488721 0
M  V30 34 H -0.150174 2.511926 -2.223126 0
M  V30 END ATOM
M  V30 BEGIN BOND
M  V30 1 1 1 2
M  V30 2 1 2 3
M  V30 3 1 3 4
M  V30 4 1 4 5
M  V30 5 2 4 6
M  V30 6 1 6 7
M  V30 7 2 7 8
M  V30 8 1 7 9
M  V30 9 1 9 10
M  V30 10 2 10 11
M  V30 11 1 10 12
M  V30 12 1 12 13
M  V30 13 1 13 14
M  V30 14 1 13 15
M  V30 15 1 13 16
M  V30 16 1 9 2
M  V30 17 1 1 17
M  V30 18 1 1 18
M  V30 19 1 1 19
M  V30 20 1 2 20
M  V30 21 1 3 21
M  V30 22 1 3 22
M  V30 23 1 5 23
M  V30 24 1 6 24
M  V30 25 1 9 25
M  V30 26 1 14 26
M  V30 27 1 14 27
M  V30 28 1 14 28
M  V30 29 1 15 29
M  V30 30 1 15 30
M  V30 31 1 15 31
M  V30 32 1 16 32
M  V30 33 1 16 33
M  V30 34 1 16 34
M  V30 END BOND
M  V30 END CTAB
M  END
>  <Dataset>  (718) 
ChEMBL_Kinases

>  <Ligand_Instance>  (718) 
nan

>  <PDB_ID>  (718) 
nan

>  <Standardized_SMILES>  (718) 
CC1CC(O)=CC(=O)C1C(=O)OC(C)(C)C

>  <Name>  (718) 
nan

>  <Pocket>  (718) 
nan

>  <ATP_Site>  (718) 
nan

>  <Peripheral>  (718) 
nan

>  <Num_H_Atoms_ProtBoundConf>  (718) 
nan

>  <Num_Resolved_Atoms>  (718) 
nan

>  <Num_Not_Resolved_Atoms>  (718) 
nan

$$$$
CHEMBL3212976
     RDKit          3D

  0  0  0  0  0  0  0  0  0  0999 V3000
M  V30 BEGIN CTAB
M  V30 COUNTS 27 27 0 0 0
M  V30 BEGIN ATOM
M  V30 1 C -1.070252 -0.343364 2.503313 0
M  V30 2 N -0.448891 -1.665486 2.384352 0
M  V30 3 C -1.419829 -2.764044 2.234598 0
M  V30 4 C 0.978335 -1.578200 2.443079 0
M  V30 5 N 1.475265 -1.161018 1.333065 0
M  V30 6 C 2.885674 -0.981367 1.124365 0
M  V30 7 S 4.442717 -1.310239 1.479223 0
M  V30 8 N 2.666318 -0.040850 0.072347 0
M  V30 9 C 1.404101 0.406107 -0.423963 0
M  V30 10 C 0.934196 -0.639861 -1.225883 0
M  V30 11 C -0.302316 -0.547612 -1.892010 0
M  V30 12 C -1.046399 0.581135 -1.749670 0
M  V30 13 C -0.580295 1.607971 -0.959951 0
M  V30 14 C 0.618000 1.540317 -0.301151 0
M  V30 15 Cl 1.412982 2.702733 0.740330 0
M  V30 16 H -0.460667 0.343520 3.105892 0
M  V30 17 H -1.141241 0.039706 1.447812 0
M  V30 18 H -2.118088 -0.390884 2.861428 0
M  V30 19 H -0.981652 -3.718394 2.559618 0
M  V30 20 H -2.298543 -2.516893 2.872924 0
M  V30 21 H -1.778248 -2.773901 1.172425 0
M  V30 22 H 1.738704 -1.771364 3.181123 0
M  V30 23 H 3.395370 0.476345 -0.508350 0
M  V30 24 H 1.370771 -1.622759 -1.459931 0
M  V30 25 H -0.740884 -1.306890 -2.525392 0
M  V30 26 H -2.005821 0.731941 -2.222669 0
M  V30 27 H -1.083646 2.558990 -0.768689 0
M  V30 END ATOM
M  V30 BEGIN BOND
M  V30 1 1 1 2
M  V30 2 1 2 3
M  V30 3 1 2 4
M  V30 4 2 4 5
M  V30 5 1 5 6
M  V30 6 2 6 7
M  V30 7 1 6 8
M  V30 8 1 8 9
M  V30 9 2 9 10
M  V30 10 1 10 11
M  V30 11 2 11 12
M  V30 12 1 12 13
M  V30 13 2 13 14
M  V30 14 1 14 15
M  V30 15 1 14 9
M  V30 16 1 1 16
M  V30 17 1 1 17
M  V30 18 1 1 18
M  V30 19 1 3 19
M  V30 20 1 3 20
M  V30 21 1 3 21
M  V30 22 1 4 22
M  V30 23 1 8 23
M  V30 24 1 10 24
M  V30 25 1 11 25
M  V30 26 1 12 26
M  V30 27 1 13 27
M  V30 END BOND
M  V30 END CTAB
M  END
>  <Dataset>  (719) 
ChEMBL_Kinases

>  <Ligand_Instance>  (719) 
nan

>  <PDB_ID>  (719) 
nan

>  <Standardized_SMILES>  (719) 
CN(C)/C=N/C(=S)Nc1ccccc1Cl

>  <Name>  (719) 
nan

>  <Pocket>  (719) 
nan

>  <ATP_Site>  (719) 
nan

>  <Peripheral>  (719) 
nan

>  <Num_H_Atoms_ProtBoundConf>  (719) 
nan

>  <Num_Resolved_Atoms>  (719) 
nan

>  <Num_Not_Resolved_Atoms>  (719) 
nan

$$$$
CHEMBL3212933
     RDKit          3D

  0  0  0  0  0  0  0  0  0  0999 V3000
M  V30 BEGIN CTAB
M  V30 COUNTS 52 55 0 0 0
M  V30 BEGIN ATOM
M  V30 1 C -2.302938 -3.324041 3.786356 0
M  V30 2 C -1.073816 -3.064479 2.994922 0
M  V30 3 C -0.457996 -1.830321 2.813632 0
M  V30 4 C 0.660170 -1.940644 2.025033 0
M  V30 5 C 1.629191 -0.979870 1.546387 0
M  V30 6 N 1.687043 0.285535 1.752190 0
M  V30 7 N 0.674307 0.877790 2.562684 0
M  V30 8 C 0.194356 1.649339 1.417292 0
M  V30 9 O 0.791743 1.508033 0.292562 0
M  V30 10 C -0.909945 2.665903 1.143660 0
M  V30 11 O -0.834286 3.047784 -0.198004 0
M  V30 12 C 0.252248 3.709011 -0.725854 0
M  V30 13 C 1.419477 4.149170 -0.157419 0
M  V30 14 C 2.423392 4.806254 -0.830025 0
M  V30 15 C 2.245423 5.040374 -2.168301 0
M  V30 16 C 1.089312 4.619063 -2.788342 0
M  V30 17 C 1.038861 4.917851 -4.132780 0
M  V30 18 C -0.096368 4.531319 -4.855810 0
M  V30 19 C -1.052373 3.879916 -4.111042 0
M  V30 20 N -1.024465 3.579326 -2.805262 0
M  V30 21 C 0.080583 3.953504 -2.092875 0
M  V30 22 C 0.729102 -3.276554 1.716742 0
M  V30 23 C 1.713050 -4.058396 0.889637 0
M  V30 24 N -0.300012 -3.915589 2.297781 0
M  V30 25 C -0.642045 -5.298535 2.260976 0
M  V30 26 C -0.070340 -6.367597 2.923697 0
M  V30 27 C -0.576423 -7.634457 2.730879 0
M  V30 28 C -1.644102 -7.852295 1.887331 0
M  V30 29 Br -2.303816 -9.638501 1.660774 0
M  V30 30 C -2.252924 -6.804924 1.197744 0
M  V30 31 C -1.725982 -5.545661 1.409268 0
M  V30 32 H -3.221981 -2.987704 3.260922 0
M  V30 33 H -2.366573 -4.363031 4.136709 0
M  V30 34 H -2.238533 -2.687645 4.700930 0
M  V30 35 H -0.822159 -0.912545 3.243025 0
M  V30 36 H 2.463520 -1.264462 0.922745 0
M  V30 37 H -0.086645 1.321171 3.176796 0
M  V30 38 H -0.656365 3.540633 1.791208 0
M  V30 39 H -1.884936 2.238432 1.399502 0
M  V30 40 H 1.533566 3.974651 0.887677 0
M  V30 41 H 3.292860 5.104253 -0.287398 0
M  V30 42 H 3.053289 5.560922 -2.669846 0
M  V30 43 H 1.826016 5.434568 -4.663076 0
M  V30 44 H -0.205693 4.727356 -5.897739 0
M  V30 45 H -1.958845 3.557963 -4.631593 0
M  V30 46 H 2.552417 -4.451775 1.500425 0
M  V30 47 H 1.211702 -4.801368 0.255631 0
M  V30 48 H 2.189848 -3.309520 0.210490 0
M  V30 49 H 0.756281 -6.072285 3.553687 0
M  V30 50 H -0.091273 -8.429822 3.273730 0
M  V30 51 H -3.089816 -6.994268 0.540798 0
M  V30 52 H -2.252767 -4.770370 0.835233 0
M  V30 END ATOM
M  V30 BEGIN BOND
M  V30 1 1 1 2
M  V30 2 2 2 3
M  V30 3 1 3 4
M  V30 4 1 4 5
M  V30 5 2 5 6
M  V30 6 1 6 7
M  V30 7 1 7 8
M  V30 8 2 8 9
M  V30 9 1 8 10
M  V30 10 1 10 11
M  V30 11 1 11 12
M  V30 12 2 12 13
M  V30 13 1 13 14
M  V30 14 2 14 15
M  V30 15 1 15 16
M  V30 16 2 16 17
M  V30 17 1 17 18
M  V30 18 2 18 19
M  V30 19 1 19 20
M  V30 20 2 20 21
M  V30 21 2 4 22
M  V30 22 1 22 23
M  V30 23 1 22 24
M  V30 24 1 24 25
M  V30 25 2 25 26
M  V30 26 1 26 27
M  V30 27 2 27 28
M  V30 28 1 28 29
M  V30 29 1 28 30
M  V30 30 2 30 31
M  V30 31 1 24 2
M  V30 32 1 31 25
M  V30 33 1 21 12
M  V30 34 1 21 16
M  V30 35 1 1 32
M  V30 36 1 1 33
M  V30 37 1 1 34
M  V30 38 1 3 35
M  V30 39 1 5 36
M  V30 40 1 7 37
M  V30 41 1 10 38
M  V30 42 1 10 39
M  V30 43 1 13 40
M  V30 44 1 14 41
M  V30 45 1 15 42
M  V30 46 1 17 43
M  V30 47 1 18 44
M  V30 48 1 19 45
M  V30 49 1 23 46
M  V30 50 1 23 47
M  V30 51 1 23 48
M  V30 52 1 26 49
M  V30 53 1 27 50
M  V30 54 1 30 51
M  V30 55 1 31 52
M  V30 END BOND
M  V30 END CTAB
M  END
>  <Dataset>  (720) 
ChEMBL_Kinases

>  <Ligand_Instance>  (720) 
nan

>  <PDB_ID>  (720) 
nan

>  <Standardized_SMILES>  (720) 
Cc1cc(/C=N\NC(=O)COc2cccc3cccnc23)c(C)n1-c1ccc(Br)cc1

>  <Name>  (720) 
nan

>  <Pocket>  (720) 
nan

>  <ATP_Site>  (720) 
nan

>  <Peripheral>  (720) 
nan

>  <Num_H_Atoms_ProtBoundConf>  (720) 
nan

>  <Num_Resolved_Atoms>  (720) 
nan

>  <Num_Not_Resolved_Atoms>  (720) 
nan

$$$$
CHEMBL3212816
     RDKit          3D

  0  0  0  0  0  0  0  0  0  0999 V3000
M  V30 BEGIN CTAB
M  V30 COUNTS 34 36 0 0 0
M  V30 BEGIN ATOM
M  V30 1 C -1.371329 -1.673582 -0.648404 0
M  V30 2 N -0.709214 -0.780391 0.279183 0
M  V30 3 C -1.105318 0.263125 1.072211 0
M  V30 4 C -0.007870 0.791169 1.757674 0
M  V30 5 N 1.055360 0.050971 1.368137 0 CHG=1 VAL=4
M  V30 6 O 2.234803 0.438852 1.954405 0 CHG=-1 VAL=1
M  V30 7 C 0.641133 -0.883473 0.489869 0
M  V30 8 C 1.673699 -1.777400 -0.035528 0
M  V30 9 C 1.496795 -3.164172 -0.001015 0
M  V30 10 C 2.514173 -3.955712 -0.515483 0
M  V30 11 C 3.692298 -3.463285 -1.060454 0
M  V30 12 C 3.811083 -2.091205 -1.067739 0
M  V30 13 C 2.835360 -1.258671 -0.571687 0
M  V30 14 C -0.555901 1.913680 2.576701 0
M  V30 15 C -1.373349 2.861354 1.745708 0
M  V30 16 C -2.625999 2.243637 1.187904 0
M  V30 17 C -2.498881 0.751751 1.184214 0
M  V30 18 N -3.413102 -0.106668 1.288108 0
M  V30 19 O -3.244739 -1.453510 1.311391 0
M  V30 20 H -0.676204 -1.793286 -1.547747 0
M  V30 21 H -2.262261 -1.205420 -1.141649 0
M  V30 22 H -1.502850 -2.698215 -0.309667 0
M  V30 23 H 0.610642 -3.607036 0.406292 0
M  V30 24 H 2.347327 -5.021047 -0.474177 0
M  V30 25 H 4.433919 -4.150458 -1.439438 0
M  V30 26 H 4.730451 -1.697610 -1.492687 0
M  V30 27 H 2.951039 -0.178453 -0.588010 0
M  V30 28 H -1.233365 1.538312 3.381053 0
M  V30 29 H 0.259968 2.437456 3.109416 0
M  V30 30 H -1.655709 3.774163 2.300939 0
M  V30 31 H -0.744531 3.178171 0.890201 0
M  V30 32 H -3.472701 2.538393 1.833896 0
M  V30 33 H -2.806183 2.669553 0.186819 0
M  V30 34 H -4.030149 -2.034479 1.027807 0
M  V30 END ATOM
M  V30 BEGIN BOND
M  V30 1 1 1 2
M  V30 2 1 2 3
M  V30 3 2 3 4
M  V30 4 1 4 5
M  V30 5 1 5 6
M  V30 6 2 5 7
M  V30 7 1 7 8
M  V30 8 2 8 9
M  V30 9 1 9 10
M  V30 10 2 10 11
M  V30 11 1 11 12
M  V30 12 2 12 13
M  V30 13 1 4 14
M  V30 14 1 14 15
M  V30 15 1 15 16
M  V30 16 1 16 17
M  V30 17 2 17 18
M  V30 18 1 18 19
M  V30 19 1 7 2
M  V30 20 1 13 8
M  V30 21 1 17 3
M  V30 22 1 1 20
M  V30 23 1 1 21
M  V30 24 1 1 22
M  V30 25 1 9 23
M  V30 26 1 10 24
M  V30 27 1 11 25
M  V30 28 1 12 26
M  V30 29 1 13 27
M  V30 30 1 14 28
M  V30 31 1 14 29
M  V30 32 1 15 30
M  V30 33 1 15 31
M  V30 34 1 16 32
M  V30 35 1 16 33
M  V30 36 1 19 34
M  V30 END BOND
M  V30 END CTAB
M  END
>  <Dataset>  (721) 
ChEMBL_Kinases

>  <Ligand_Instance>  (721) 
nan

>  <PDB_ID>  (721) 
nan

>  <Standardized_SMILES>  (721) 
Cn1c2c([n+]([O-])c1-c1ccccc1)CCC/C2=N/O

>  <Name>  (721) 
nan

>  <Pocket>  (721) 
nan

>  <ATP_Site>  (721) 
nan

>  <Peripheral>  (721) 
nan

>  <Num_H_Atoms_ProtBoundConf>  (721) 
nan

>  <Num_Resolved_Atoms>  (721) 
nan

>  <Num_Not_Resolved_Atoms>  (721) 
nan

$$$$
CHEMBL3212723
     RDKit          3D

  0  0  0  0  0  0  0  0  0  0999 V3000
M  V30 BEGIN CTAB
M  V30 COUNTS 29 30 0 0 0
M  V30 BEGIN ATOM
M  V30 1 C -1.031162 -4.170999 4.961118 0
M  V30 2 O 0.239793 -3.922015 4.383246 0
M  V30 3 C 0.439552 -2.931056 3.423777 0
M  V30 4 C 1.709145 -2.753597 2.911545 0
M  V30 5 C 1.974297 -1.789135 1.958222 0
M  V30 6 C 0.921076 -0.984047 1.514082 0
M  V30 7 N 1.004947 0.059999 0.538104 0
M  V30 8 C 0.321419 0.084616 -0.529324 0
M  V30 9 C 0.410278 1.150037 -1.520297 0
M  V30 10 C 1.191819 2.207847 -1.447834 0
M  V30 11 O 2.059985 2.447326 -0.378265 0
M  V30 12 O 1.021086 3.019069 -2.565577 0
M  V30 13 C -0.038808 2.557588 -3.379087 0
M  V30 14 C -0.373425 1.212752 -2.780604 0
M  V30 15 C -0.337711 -1.197565 2.056240 0
M  V30 16 C -0.625510 -2.155381 3.009746 0
M  V30 17 H -1.548574 -3.206057 5.208550 0
M  V30 18 H -0.903263 -4.691129 5.934061 0
M  V30 19 H -1.700327 -4.756564 4.312970 0
M  V30 20 H 2.533364 -3.357767 3.235480 0
M  V30 21 H 2.930392 -1.580233 1.503770 0
M  V30 22 H -0.349774 -0.751344 -0.668138 0
M  V30 23 H 2.861021 3.045058 -0.458952 0
M  V30 24 H 0.269258 2.528105 -4.426779 0
M  V30 25 H -0.916474 3.242944 -3.251733 0
M  V30 26 H -1.466631 1.140509 -2.595574 0
M  V30 27 H -0.052555 0.365567 -3.434870 0
M  V30 28 H -1.192020 -0.592194 1.739488 0
M  V30 29 H -1.628300 -2.274734 3.395330 0
M  V30 END ATOM
M  V30 BEGIN BOND
M  V30 1 1 1 2
M  V30 2 1 2 3
M  V30 3 2 3 4
M  V30 4 1 4 5
M  V30 5 2 5 6
M  V30 6 1 6 7
M  V30 7 2 7 8
M  V30 8 1 8 9
M  V30 9 2 9 10
M  V30 10 1 10 11
M  V30 11 1 10 12
M  V30 12 1 12 13
M  V30 13 1 13 14
M  V30 14 1 6 15
M  V30 15 2 15 16
M  V30 16 1 16 3
M  V30 17 1 14 9
M  V30 18 1 1 17
M  V30 19 1 1 18
M  V30 20 1 1 19
M  V30 21 1 4 20
M  V30 22 1 5 21
M  V30 23 1 8 22
M  V30 24 1 11 23
M  V30 25 1 13 24
M  V30 26 1 13 25
M  V30 27 1 14 26
M  V30 28 1 14 27
M  V30 29 1 15 28
M  V30 30 1 16 29
M  V30 END BOND
M  V30 END CTAB
M  END
>  <Dataset>  (722) 
ChEMBL_Kinases

>  <Ligand_Instance>  (722) 
nan

>  <PDB_ID>  (722) 
nan

>  <Standardized_SMILES>  (722) 
COc1ccc(/N=C/C2=C(O)OCC2)cc1

>  <Name>  (722) 
nan

>  <Pocket>  (722) 
nan

>  <ATP_Site>  (722) 
nan

>  <Peripheral>  (722) 
nan

>  <Num_H_Atoms_ProtBoundConf>  (722) 
nan

>  <Num_Resolved_Atoms>  (722) 
nan

>  <Num_Not_Resolved_Atoms>  (722) 
nan

$$$$
CHEMBL3209962
     RDKit          3D

  0  0  0  0  0  0  0  0  0  0999 V3000
M  V30 BEGIN CTAB
M  V30 COUNTS 43 45 0 0 0
M  V30 BEGIN ATOM
M  V30 1 C -0.287672 -4.999584 3.314627 0
M  V30 2 C 0.477837 -4.018863 2.526772 0
M  V30 3 C 1.475794 -4.515020 1.711235 0
M  V30 4 C 2.199232 -3.605010 0.968669 0
M  V30 5 C 2.021235 -2.219653 0.959520 0
M  V30 6 N 2.808821 -1.371607 0.168087 0
M  V30 7 N 4.009324 -1.720737 -0.270580 0
M  V30 8 C 4.579093 -0.762807 -1.004196 0
M  V30 9 C 3.629410 0.264274 -1.008307 0
M  V30 10 C 3.827253 1.510380 -1.690220 0
M  V30 11 N 3.996025 2.493791 -2.245094 0
M  V30 12 C 2.533016 -0.142038 -0.268586 0
M  V30 13 N 1.364661 0.587094 -0.023724 0
M  V30 14 C 1.211185 1.846591 0.003603 0
M  V30 15 N -0.142536 2.143361 0.289593 0
M  V30 16 C -1.222645 2.460043 -0.636461 0
M  V30 17 C -2.547796 1.973827 -0.156487 0
M  V30 18 N -2.513201 0.974877 0.860485 0
M  V30 19 C -2.272344 -0.349433 0.349614 0
M  V30 20 C -1.683369 1.244535 1.985544 0
M  V30 21 C -0.498767 2.130505 1.678990 0
M  V30 22 C 1.018415 -1.790172 1.787270 0
M  V30 23 C 0.251172 -2.639716 2.561023 0
M  V30 24 H 0.246309 -5.352615 4.217735 0
M  V30 25 H -1.209263 -4.504547 3.698554 0
M  V30 26 H -0.657156 -5.862849 2.715010 0
M  V30 27 H 1.705173 -5.562670 1.635097 0
M  V30 28 H 2.991591 -4.012380 0.322740 0
M  V30 29 H 5.551761 -0.818126 -1.466024 0
M  V30 30 H 2.097983 2.436546 -0.187012 0
M  V30 31 H -1.209683 3.580448 -0.732512 0
M  V30 32 H -1.007090 2.049889 -1.657836 0
M  V30 33 H -3.140475 1.538715 -1.002865 0
M  V30 34 H -3.110280 2.842424 0.239009 0
M  V30 35 H -1.241494 -0.435901 -0.068221 0
M  V30 36 H -2.954457 -0.615722 -0.475065 0
M  V30 37 H -2.451060 -1.065582 1.183183 0
M  V30 38 H -1.333373 0.266396 2.411119 0
M  V30 39 H -2.300698 1.703437 2.786864 0
M  V30 40 H -0.789799 3.171698 1.959649 0
M  V30 41 H 0.297611 1.844857 2.371807 0
M  V30 42 H 0.791140 -0.746765 1.862055 0
M  V30 43 H -0.535915 -2.331272 3.214128 0
M  V30 END ATOM
M  V30 BEGIN BOND
M  V30 1 1 1 2
M  V30 2 2 2 3
M  V30 3 1 3 4
M  V30 4 2 4 5
M  V30 5 1 5 6
M  V30 6 1 6 7
M  V30 7 2 7 8
M  V30 8 1 8 9
M  V30 9 1 9 10
M  V30 10 3 10 11
M  V30 11 2 9 12
M  V30 12 1 12 13
M  V30 13 2 13 14
M  V30 14 1 14 15
M  V30 15 1 15 16
M  V30 16 1 16 17
M  V30 17 1 17 18
M  V30 18 1 18 19
M  V30 19 1 18 20
M  V30 20 1 20 21
M  V30 21 1 5 22
M  V30 22 2 22 23
M  V30 23 1 23 2
M  V30 24 1 12 6
M  V30 25 1 21 15
M  V30 26 1 1 24
M  V30 27 1 1 25
M  V30 28 1 1 26
M  V30 29 1 3 27
M  V30 30 1 4 28
M  V30 31 1 8 29
M  V30 32 1 14 30
M  V30 33 1 16 31
M  V30 34 1 16 32
M  V30 35 1 17 33
M  V30 36 1 17 34
M  V30 37 1 19 35
M  V30 38 1 19 36
M  V30 39 1 19 37
M  V30 40 1 20 38
M  V30 41 1 20 39
M  V30 42 1 21 40
M  V30 43 1 21 41
M  V30 44 1 22 42
M  V30 45 1 23 43
M  V30 END BOND
M  V30 END CTAB
M  END
>  <Dataset>  (723) 
ChEMBL_Kinases

>  <Ligand_Instance>  (723) 
nan

>  <PDB_ID>  (723) 
nan

>  <Standardized_SMILES>  (723) 
Cc1ccc(-n2ncc(C#N)c2/N=C/N2CCN(C)CC2)cc1

>  <Name>  (723) 
nan

>  <Pocket>  (723) 
nan

>  <ATP_Site>  (723) 
nan

>  <Peripheral>  (723) 
nan

>  <Num_H_Atoms_ProtBoundConf>  (723) 
nan

>  <Num_Resolved_Atoms>  (723) 
nan

>  <Num_Not_Resolved_Atoms>  (723) 
nan

$$$$
CHEMBL3209992
     RDKit          3D

  0  0  0  0  0  0  0  0  0  0999 V3000
M  V30 BEGIN CTAB
M  V30 COUNTS 33 35 0 0 0
M  V30 BEGIN ATOM
M  V30 1 O 0.203355 -2.519466 3.515039 0
M  V30 2 N 0.521707 -2.845104 2.351910 0 CHG=1 VAL=4
M  V30 3 O -0.480093 -3.678715 1.936520 0 CHG=-1 VAL=1
M  V30 4 C 1.721518 -2.343666 1.757358 0
M  V30 5 C 2.740525 -2.020408 2.627826 0
M  V30 6 C 3.897014 -1.530808 2.068317 0
M  V30 7 C 4.072179 -1.353754 0.692538 0
M  V30 8 C 3.043361 -1.679722 -0.175518 0
M  V30 9 C 1.870757 -2.175952 0.380447 0
M  V30 10 N 0.740708 -2.556760 -0.341140 0
M  V30 11 N -0.407089 -1.858397 -0.578468 0
M  V30 12 C -0.480381 -0.619154 -0.309243 0
M  V30 13 C 0.301774 0.510400 0.232032 0
M  V30 14 C -0.727194 1.063288 1.230848 0
M  V30 15 C -1.944817 1.078998 0.345417 0
M  V30 16 C -3.053782 1.911159 0.380763 0
M  V30 17 C -4.035086 1.687062 -0.559848 0
M  V30 18 C -3.944861 0.686718 -1.506744 0
M  V30 19 C -2.826275 -0.112544 -1.502102 0
M  V30 20 C -1.782078 0.041930 -0.586563 0
M  V30 21 H 2.645148 -2.143625 3.696439 0
M  V30 22 H 4.708736 -1.267741 2.699985 0
M  V30 23 H 4.946643 -0.978561 0.211382 0
M  V30 24 H 2.993357 -1.615972 -1.252999 0
M  V30 25 H 0.282488 -3.305011 -0.904430 0
M  V30 26 H 1.196443 0.308891 0.769421 0
M  V30 27 H 0.395228 1.314148 -0.553186 0
M  V30 28 H -0.423738 2.044788 1.578761 0
M  V30 29 H -0.836475 0.285946 2.012822 0
M  V30 30 H -3.073414 2.683853 1.148361 0
M  V30 31 H -4.863888 2.374621 -0.468686 0
M  V30 32 H -4.730776 0.551550 -2.215268 0
M  V30 33 H -2.730016 -0.920064 -2.246884 0
M  V30 END ATOM
M  V30 BEGIN BOND
M  V30 1 2 1 2
M  V30 2 1 2 3
M  V30 3 1 2 4
M  V30 4 2 4 5
M  V30 5 1 5 6
M  V30 6 2 6 7
M  V30 7 1 7 8
M  V30 8 2 8 9
M  V30 9 1 9 10
M  V30 10 1 10 11
M  V30 11 2 11 12
M  V30 12 1 12 13
M  V30 13 1 13 14
M  V30 14 1 14 15
M  V30 15 2 15 16
M  V30 16 1 16 17
M  V30 17 2 17 18
M  V30 18 1 18 19
M  V30 19 2 19 20
M  V30 20 1 9 4
M  V30 21 1 20 12
M  V30 22 1 20 15
M  V30 23 1 5 21
M  V30 24 1 6 22
M  V30 25 1 7 23
M  V30 26 1 8 24
M  V30 27 1 10 25
M  V30 28 1 13 26
M  V30 29 1 13 27
M  V30 30 1 14 28
M  V30 31 1 14 29
M  V30 32 1 16 30
M  V30 33 1 17 31
M  V30 34 1 18 32
M  V30 35 1 19 33
M  V30 END BOND
M  V30 END CTAB
M  END
>  <Dataset>  (724) 
ChEMBL_Kinases

>  <Ligand_Instance>  (724) 
nan

>  <PDB_ID>  (724) 
nan

>  <Standardized_SMILES>  (724) 
O=[N+]([O-])c1ccccc1N/N=C1\CCc2ccccc21

>  <Name>  (724) 
nan

>  <Pocket>  (724) 
nan

>  <ATP_Site>  (724) 
nan

>  <Peripheral>  (724) 
nan

>  <Num_H_Atoms_ProtBoundConf>  (724) 
nan

>  <Num_Resolved_Atoms>  (724) 
nan

>  <Num_Not_Resolved_Atoms>  (724) 
nan

$$$$
CHEMBL3210001
     RDKit          3D

  0  0  0  0  0  0  0  0  0  0999 V3000
M  V30 BEGIN CTAB
M  V30 COUNTS 53 56 0 0 0
M  V30 BEGIN ATOM
M  V30 1 C -2.549942 -0.097357 -3.830138 0
M  V30 2 C -3.056380 0.892321 -2.830928 0
M  V30 3 C -2.734059 0.563104 -1.407512 0
M  V30 4 N -1.333822 0.472017 -1.126982 0
M  V30 5 C -0.636957 -0.664783 -1.213756 0
M  V30 6 N -1.368021 -1.657426 -1.562525 0
M  V30 7 C -0.842591 -2.955426 -1.717168 0
M  V30 8 O -0.291272 -4.046948 -1.962358 0
M  V30 9 C -1.682375 -3.536824 -0.657246 0
M  V30 10 C -1.288486 -3.605208 0.666457 0
M  V30 11 C -2.051201 -4.143099 1.693925 0
M  V30 12 C -3.294439 -4.648119 1.376896 0
M  V30 13 N -3.709666 -4.598391 0.100912 0
M  V30 14 C -2.957162 -4.075595 -0.870557 0
M  V30 15 C 0.702820 -0.703915 -0.942507 0
M  V30 16 C 1.314532 -2.003728 -1.080603 0
M  V30 17 O 2.513588 -1.891967 -0.804588 0
M  V30 18 O 2.336052 -2.860169 -1.040719 0
M  V30 19 C 3.674943 -2.905060 -0.766697 0
M  V30 20 C 4.129409 -4.367737 -0.976265 0
M  V30 21 C 1.290555 0.487636 -0.576568 0
M  V30 22 C 0.640738 1.696540 -0.465034 0
M  V30 23 C 1.303613 2.828434 -0.095585 0
M  V30 24 O 2.537639 2.759379 0.147590 0
M  V30 25 N 0.538419 3.957123 -0.024508 0
M  V30 26 C 1.193392 5.088287 0.343101 0
M  V30 27 C 0.460839 6.278028 0.433519 0
M  V30 28 C -0.883153 6.244612 0.146562 0
M  V30 29 C -1.518147 5.077409 -0.224272 0
M  V30 30 C -0.775804 3.911241 -0.307813 0
M  V30 31 N -1.377564 2.755217 -0.669502 0
M  V30 32 C -0.698906 1.592899 -0.765525 0
M  V30 33 H -2.901500 0.278915 -4.837232 0
M  V30 34 H -1.441452 -0.144726 -3.906386 0
M  V30 35 H -3.031276 -1.096544 -3.732403 0
M  V30 36 H -2.635089 1.893925 -3.116773 0
M  V30 37 H -4.149614 0.954238 -2.942982 0
M  V30 38 H -3.241342 1.338497 -0.781411 0
M  V30 39 H -3.254007 -0.388741 -1.150062 0
M  V30 40 H -0.335316 -3.226991 0.956404 0
M  V30 41 H -1.673126 -4.162082 2.714993 0
M  V30 42 H -3.886812 -5.067026 2.181666 0
M  V30 43 H -3.311648 -4.041905 -1.912690 0
M  V30 44 H 4.353551 -2.345344 -1.483244 0
M  V30 45 H 4.014818 -2.601968 0.252130 0
M  V30 46 H 3.365015 -5.078746 -0.663063 0
M  V30 47 H 4.371772 -4.538605 -2.055117 0
M  V30 48 H 5.090298 -4.464478 -0.429070 0
M  V30 49 H 2.353116 0.431704 -0.366663 0
M  V30 50 H 2.265840 5.073532 0.563598 0
M  V30 51 H 0.921071 7.200992 0.718139 0
M  V30 52 H -1.529166 7.127621 0.192168 0
M  V30 53 H -2.588951 5.010698 -0.461200 0
M  V30 END ATOM
M  V30 BEGIN BOND
M  V30 1 1 1 2
M  V30 2 1 2 3
M  V30 3 1 3 4
M  V30 4 1 4 5
M  V30 5 2 5 6
M  V30 6 1 6 7
M  V30 7 2 7 8
M  V30 8 1 7 9
M  V30 9 2 9 10
M  V30 10 1 10 11
M  V30 11 2 11 12
M  V30 12 1 12 13
M  V30 13 2 13 14
M  V30 14 1 5 15
M  V30 15 1 15 16
M  V30 16 2 16 17
M  V30 17 1 16 18
M  V30 18 1 18 19
M  V30 19 1 19 20
M  V30 20 2 15 21
M  V30 21 1 21 22
M  V30 22 1 22 23
M  V30 23 2 23 24
M  V30 24 1 23 25
M  V30 25 1 25 26
M  V30 26 2 26 27
M  V30 27 1 27 28
M  V30 28 2 28 29
M  V30 29 1 29 30
M  V30 30 2 30 31
M  V30 31 1 31 32
M  V30 32 1 32 4
M  V30 33 1 14 9
M  V30 34 2 32 22
M  V30 35 1 30 25
M  V30 36 1 1 33
M  V30 37 1 1 34
M  V30 38 1 1 35
M  V30 39 1 2 36
M  V30 40 1 2 37
M  V30 41 1 3 38
M  V30 42 1 3 39
M  V30 43 1 10 40
M  V30 44 1 11 41
M  V30 45 1 12 42
M  V30 46 1 14 43
M  V30 47 1 19 44
M  V30 48 1 19 45
M  V30 49 1 20 46
M  V30 50 1 20 47
M  V30 51 1 20 48
M  V30 52 1 21 49
M  V30 53 1 26 50
M  V30 54 1 27 51
M  V30 55 1 28 52
M  V30 56 1 29 53
M  V30 END BOND
M  V30 END CTAB
M  END
>  <Dataset>  (725) 
ChEMBL_Kinases

>  <Ligand_Instance>  (725) 
nan

>  <PDB_ID>  (725) 
nan

>  <Standardized_SMILES>  (725) 
CCCn1/c(=N/C(=O)c2cccnc2)c(C(=O)OCC)cc2c(=O)n3ccccc3nc21

>  <Name>  (725) 
nan

>  <Pocket>  (725) 
nan

>  <ATP_Site>  (725) 
nan

>  <Peripheral>  (725) 
nan

>  <Num_H_Atoms_ProtBoundConf>  (725) 
nan

>  <Num_Resolved_Atoms>  (725) 
nan

>  <Num_Not_Resolved_Atoms>  (725) 
nan

$$$$
CHEMBL3210036
     RDKit          3D

  0  0  0  0  0  0  0  0  0  0999 V3000
M  V30 BEGIN CTAB
M  V30 COUNTS 79 80 0 0 0
M  V30 BEGIN ATOM
M  V30 1 C 2.253839 -5.723739 0.351814 0
M  V30 2 C 0.786818 -5.692963 0.103620 0
M  V30 3 O -0.042939 -6.633512 0.254259 0
M  V30 4 O 0.304169 -4.481556 -0.342969 0
M  V30 5 C -1.107080 -4.396193 -0.598421 0
M  V30 6 C -1.445452 -2.976398 -1.083015 0 CFG=1
M  V30 7 O -1.071337 -2.137418 -0.083297 0
M  V30 8 C -0.748700 -0.853088 -0.411547 0 CFG=1
M  V30 9 O 0.640532 -0.607048 -0.255946 0
M  V30 10 N 1.197045 0.329349 0.545459 0
M  V30 11 C 1.897509 1.298869 0.067913 0
M  V30 12 C 2.360461 2.147591 1.221996 0 CFG=1
M  V30 13 C 3.180074 3.265329 0.680211 0
M  V30 14 C 1.215048 2.497637 2.100400 0 CFG=2
M  V30 15 O 0.620928 1.314100 2.636475 0
M  V30 16 C 0.769026 1.332245 4.021489 0
M  V30 17 C 0.167687 0.129554 4.653562 0
M  V30 18 C 0.895142 -1.041836 4.871431 0
M  V30 19 C 0.269953 -2.132866 5.468101 0
M  V30 20 C -1.072955 -2.052590 5.843985 0
M  V30 21 C -1.789594 -0.894806 5.627804 0
M  V30 22 C -1.157977 0.188442 5.032224 0
M  V30 23 C 0.114553 3.291334 1.495249 0
M  V30 24 C 0.488690 4.643248 0.959786 0
M  V30 25 C -0.972710 3.541848 2.550583 0
M  V30 26 C -1.078123 -0.486881 -1.838169 0 CFG=2
M  V30 27 O -2.467020 -0.679206 -2.043798 0
M  V30 28 C -3.295111 0.353985 -2.449822 0
M  V30 29 C -4.737828 0.137714 -2.658775 0
M  V30 30 O -2.737695 1.464027 -2.622158 0
M  V30 31 C -0.343305 -1.443193 -2.749427 0 CFG=1
M  V30 32 O 1.048445 -1.246558 -2.463101 0
M  V30 33 C 1.892934 -0.841207 -3.483845 0
M  V30 34 C 3.328971 -0.644162 -3.158592 0
M  V30 35 O 1.533508 -0.621440 -4.690333 0
M  V30 36 C -0.789348 -2.823690 -2.405734 0 CFG=2
M  V30 37 O -1.700001 -3.238761 -3.435405 0
M  V30 38 C -1.405599 -4.257749 -4.312022 0
M  V30 39 C -2.312158 -4.724685 -5.393885 0
M  V30 40 O -0.307573 -4.895298 -4.263953 0
M  V30 41 H 2.587121 -6.778555 0.375978 0
M  V30 42 H 2.819880 -5.184716 -0.420287 0
M  V30 43 H 2.437080 -5.307118 1.376496 0
M  V30 44 H -1.333348 -5.164962 -1.341398 0
M  V30 45 H -1.612373 -4.603694 0.367225 0
M  V30 46 H -2.549276 -2.969795 -1.213282 0
M  V30 47 H -1.282741 -0.148407 0.244484 0
M  V30 48 H 2.019292 1.326953 -1.008724 0
M  V30 49 H 3.099249 1.524599 1.836795 0
M  V30 50 H 3.580566 3.942757 1.467465 0
M  V30 51 H 2.781142 3.775228 -0.208628 0
M  V30 52 H 4.130021 2.770547 0.285827 0
M  V30 53 H 1.590183 3.032256 2.997228 0
M  V30 54 H 0.369601 2.276892 4.434249 0
M  V30 55 H 1.877575 1.378017 4.198510 0
M  V30 56 H 1.932355 -1.089176 4.575736 0
M  V30 57 H 0.783397 -3.051812 5.656914 0
M  V30 58 H -1.565710 -2.905567 6.311327 0
M  V30 59 H -2.833593 -0.850855 5.926801 0
M  V30 60 H -1.707635 1.119871 4.850969 0
M  V30 61 H -0.422237 2.760512 0.678969 0
M  V30 62 H 0.594828 4.657940 -0.151707 0
M  V30 63 H 1.457837 4.970160 1.380445 0
M  V30 64 H -0.308243 5.401914 1.165216 0
M  V30 65 H -1.822037 4.107245 2.072435 0
M  V30 66 H -0.590454 4.185887 3.340975 0
M  V30 67 H -1.392274 2.580153 2.842967 0
M  V30 68 H -0.815311 0.549327 -2.047886 0
M  V30 69 H -5.315847 0.058376 -1.711206 0
M  V30 70 H -5.188230 1.006403 -3.213053 0
M  V30 71 H -4.949169 -0.754197 -3.295676 0
M  V30 72 H -0.507743 -1.220625 -3.809620 0
M  V30 73 H 3.929973 -1.031749 -3.999422 0
M  V30 74 H 3.578175 0.446185 -3.072875 0
M  V30 75 H 3.645936 -1.203247 -2.256215 0
M  V30 76 H 0.098789 -3.501862 -2.536922 0
M  V30 77 H -3.351673 -4.338741 -5.178072 0
M  V30 78 H -2.410833 -5.816116 -5.372380 0
M  V30 79 H -2.016646 -4.334737 -6.388003 0
M  V30 END ATOM
M  V30 BEGIN BOND
M  V30 1 1 1 2
M  V30 2 2 2 3
M  V30 3 1 2 4
M  V30 4 1 4 5
M  V30 5 1 5 6
M  V30 6 1 6 7
M  V30 7 1 7 8
M  V30 8 1 8 9
M  V30 9 1 9 10
M  V30 10 2 10 11
M  V30 11 1 11 12
M  V30 12 1 12 13
M  V30 13 1 12 14
M  V30 14 1 14 15
M  V30 15 1 15 16
M  V30 16 1 16 17
M  V30 17 2 17 18
M  V30 18 1 18 19
M  V30 19 2 19 20
M  V30 20 1 20 21
M  V30 21 2 21 22
M  V30 22 1 14 23
M  V30 23 1 23 24
M  V30 24 1 23 25
M  V30 25 1 8 26
M  V30 26 1 26 27
M  V30 27 1 27 28
M  V30 28 1 28 29
M  V30 29 2 28 30
M  V30 30 1 26 31
M  V30 31 1 31 32
M  V30 32 1 32 33
M  V30 33 1 33 34
M  V30 34 2 33 35
M  V30 35 1 31 36
M  V30 36 1 36 37
M  V30 37 1 37 38
M  V30 38 1 38 39
M  V30 39 2 38 40
M  V30 40 1 36 6
M  V30 41 1 22 17
M  V30 42 1 1 41
M  V30 43 1 1 42
M  V30 44 1 1 43
M  V30 45 1 5 44
M  V30 46 1 5 45
M  V30 47 1 6 46 CFG=3
M  V30 48 1 8 47 CFG=1
M  V30 49 1 11 48
M  V30 50 1 12 49 CFG=1
M  V30 51 1 13 50
M  V30 52 1 13 51
M  V30 53 1 13 52
M  V30 54 1 14 53 CFG=1
M  V30 55 1 16 54
M  V30 56 1 16 55
M  V30 57 1 18 56
M  V30 58 1 19 57
M  V30 59 1 20 58
M  V30 60 1 21 59
M  V30 61 1 22 60
M  V30 62 1 23 61
M  V30 63 1 24 62
M  V30 64 1 24 63
M  V30 65 1 24 64
M  V30 66 1 25 65
M  V30 67 1 25 66
M  V30 68 1 25 67
M  V30 69 1 26 68 CFG=3
M  V30 70 1 29 69
M  V30 71 1 29 70
M  V30 72 1 29 71
M  V30 73 1 31 72 CFG=3
M  V30 74 1 34 73
M  V30 75 1 34 74
M  V30 76 1 34 75
M  V30 77 1 36 76 CFG=1
M  V30 78 1 39 77
M  V30 79 1 39 78
M  V30 80 1 39 79
M  V30 END BOND
M  V30 END CTAB
M  END
>  <Dataset>  (726) 
ChEMBL_Kinases

>  <Ligand_Instance>  (726) 
nan

>  <PDB_ID>  (726) 
nan

>  <Standardized_SMILES>  (726) 
CC(=O)OC[C@H]1O[C@@H](O/N=C/[C@@H](C)[C@H](OCc2ccccc2)C(C)C)[C@H](OC(C)=O)[C@@H](OC(C)=O)[C@@H]1OC(C)=O

>  <Name>  (726) 
nan

>  <Pocket>  (726) 
nan

>  <ATP_Site>  (726) 
nan

>  <Peripheral>  (726) 
nan

>  <Num_H_Atoms_ProtBoundConf>  (726) 
nan

>  <Num_Resolved_Atoms>  (726) 
nan

>  <Num_Not_Resolved_Atoms>  (726) 
nan

$$$$
CHEMBL3210823
     RDKit          3D

  0  0  0  0  0  0  0  0  0  0999 V3000
M  V30 BEGIN CTAB
M  V30 COUNTS 37 39 0 0 0
M  V30 BEGIN ATOM
M  V30 1 C -0.356542 -3.585097 1.875105 0
M  V30 2 N -0.064279 -2.309337 1.320767 0
M  V30 3 C 1.043982 -1.849131 0.938794 0
M  V30 4 C 2.301000 -2.538598 0.981582 0
M  V30 5 C 2.601196 -3.804086 1.424508 0
M  V30 6 C 3.911767 -4.233338 1.355320 0
M  V30 7 C 4.909299 -3.424277 0.856221 0
M  V30 8 C 4.614433 -2.167793 0.415868 0
M  V30 9 C 3.308220 -1.744515 0.486613 0
M  V30 10 C 2.706099 -0.453684 0.088525 0
M  V30 11 N 1.281258 -0.580923 0.397267 0
M  V30 12 C 0.393174 0.496280 0.135159 0
M  V30 13 C 0.866947 1.670076 -0.412191 0
M  V30 14 C -0.006028 2.732384 -0.671192 0
M  V30 15 C -1.355552 2.658179 -0.396991 0
M  V30 16 C -1.840751 1.488794 0.150700 0
M  V30 17 C -3.278490 1.343283 0.468941 0
M  V30 18 O -3.784948 0.286595 0.976185 0
M  V30 19 O -4.120082 2.413564 0.201123 0
M  V30 20 C -5.525760 2.345877 0.482954 0
M  V30 21 C -0.959895 0.461713 0.394425 0
M  V30 22 H 0.038787 -3.780914 2.888604 0
M  V30 23 H -0.255500 -4.408919 1.150214 0
M  V30 24 H -1.480326 -3.561616 2.057603 0
M  V30 25 H 1.971328 -4.566536 1.838604 0
M  V30 26 H 4.271205 -5.222786 1.678985 0
M  V30 27 H 5.931574 -3.737456 0.793737 0
M  V30 28 H 5.364222 -1.508375 0.020563 0
M  V30 29 H 3.136847 0.402824 0.612841 0
M  V30 30 H 2.821005 -0.311201 -1.003389 0
M  V30 31 H 1.915591 1.825281 -0.663597 0
M  V30 32 H 0.375529 3.660904 -1.105399 0
M  V30 33 H -1.997231 3.487755 -0.606518 0
M  V30 34 H -5.835456 1.298983 0.720605 0
M  V30 35 H -6.064587 2.598116 -0.461025 0
M  V30 36 H -5.841922 3.086100 1.229083 0
M  V30 37 H -1.398467 -0.424551 0.822376 0
M  V30 END ATOM
M  V30 BEGIN BOND
M  V30 1 1 1 2
M  V30 2 2 2 3
M  V30 3 1 3 4
M  V30 4 2 4 5
M  V30 5 1 5 6
M  V30 6 2 6 7
M  V30 7 1 7 8
M  V30 8 2 8 9
M  V30 9 1 9 10
M  V30 10 1 10 11
M  V30 11 1 11 12
M  V30 12 2 12 13
M  V30 13 1 13 14
M  V30 14 2 14 15
M  V30 15 1 15 16
M  V30 16 1 16 17
M  V30 17 2 17 18
M  V30 18 1 17 19
M  V30 19 1 19 20
M  V30 20 2 16 21
M  V30 21 1 11 3
M  V30 22 1 21 12
M  V30 23 1 9 4
M  V30 24 1 1 22
M  V30 25 1 1 23
M  V30 26 1 1 24
M  V30 27 1 5 25
M  V30 28 1 6 26
M  V30 29 1 7 27
M  V30 30 1 8 28
M  V30 31 1 10 29
M  V30 32 1 10 30
M  V30 33 1 13 31
M  V30 34 1 14 32
M  V30 35 1 15 33
M  V30 36 1 20 34
M  V30 37 1 20 35
M  V30 38 1 20 36
M  V30 39 1 21 37
M  V30 END BOND
M  V30 END CTAB
M  END
>  <Dataset>  (727) 
ChEMBL_Kinases

>  <Ligand_Instance>  (727) 
nan

>  <PDB_ID>  (727) 
nan

>  <Standardized_SMILES>  (727) 
C/N=C1\c2ccccc2CN1c1cccc(C(=O)OC)c1

>  <Name>  (727) 
nan

>  <Pocket>  (727) 
nan

>  <ATP_Site>  (727) 
nan

>  <Peripheral>  (727) 
nan

>  <Num_H_Atoms_ProtBoundConf>  (727) 
nan

>  <Num_Resolved_Atoms>  (727) 
nan

>  <Num_Not_Resolved_Atoms>  (727) 
nan

$$$$
CHEMBL3211027
     RDKit          3D

  0  0  0  0  0  0  0  0  0  0999 V3000
M  V30 BEGIN CTAB
M  V30 COUNTS 27 27 0 0 0
M  V30 BEGIN ATOM
M  V30 1 C -0.859759 -2.933907 1.935878 0
M  V30 2 C -1.665039 -2.555900 0.719149 0
M  V30 3 O -1.589796 -1.166643 0.539948 0
M  V30 4 C -0.393274 -0.498213 0.332626 0
M  V30 5 C 0.894291 -0.971819 0.254911 0
M  V30 6 C 1.919130 -0.074793 0.038067 0
M  V30 7 C 3.263683 -0.639346 -0.034500 0
M  V30 8 N 3.445432 -1.898479 0.099662 0
M  V30 9 O 4.678076 -2.516574 0.045369 0
M  V30 10 C 1.718061 1.282749 -0.106001 0
M  V30 11 C 0.424664 1.756400 -0.027729 0
M  V30 12 Br 0.184554 3.635357 -0.231182 0
M  V30 13 C -0.632745 0.866640 0.191679 0
M  V30 14 O -1.875333 1.508491 0.244140 0
M  V30 15 C -2.427562 1.999033 1.439402 0
M  V30 16 H -0.396849 -2.024460 2.347884 0
M  V30 17 H -0.102868 -3.716498 1.699873 0
M  V30 18 H -1.568914 -3.309379 2.728973 0
M  V30 19 H -1.244879 -3.120068 -0.146097 0
M  V30 20 H -2.686379 -2.925439 0.843831 0
M  V30 21 H 0.959681 -2.023273 0.375032 0
M  V30 22 H 4.112410 -0.000178 -0.201510 0
M  V30 23 H 4.755513 -3.252007 -0.672789 0
M  V30 24 H 2.580684 1.916736 -0.273790 0
M  V30 25 H -3.286457 1.409846 1.816955 0
M  V30 26 H -2.732602 3.067745 1.297660 0
M  V30 27 H -1.628064 2.039616 2.220794 0
M  V30 END ATOM
M  V30 BEGIN BOND
M  V30 1 1 1 2
M  V30 2 1 2 3
M  V30 3 1 3 4
M  V30 4 2 4 5
M  V30 5 1 5 6
M  V30 6 1 6 7
M  V30 7 2 7 8
M  V30 8 1 8 9
M  V30 9 2 6 10
M  V30 10 1 10 11
M  V30 11 1 11 12
M  V30 12 2 11 13
M  V30 13 1 13 14
M  V30 14 1 14 15
M  V30 15 1 13 4
M  V30 16 1 1 16
M  V30 17 1 1 17
M  V30 18 1 1 18
M  V30 19 1 2 19
M  V30 20 1 2 20
M  V30 21 1 5 21
M  V30 22 1 7 22
M  V30 23 1 9 23
M  V30 24 1 10 24
M  V30 25 1 15 25
M  V30 26 1 15 26
M  V30 27 1 15 27
M  V30 END BOND
M  V30 END CTAB
M  END
>  <Dataset>  (728) 
ChEMBL_Kinases

>  <Ligand_Instance>  (728) 
nan

>  <PDB_ID>  (728) 
nan

>  <Standardized_SMILES>  (728) 
CCOc1cc(/C=N/O)cc(Br)c1OC

>  <Name>  (728) 
nan

>  <Pocket>  (728) 
nan

>  <ATP_Site>  (728) 
nan

>  <Peripheral>  (728) 
nan

>  <Num_H_Atoms_ProtBoundConf>  (728) 
nan

>  <Num_Resolved_Atoms>  (728) 
nan

>  <Num_Not_Resolved_Atoms>  (728) 
nan

$$$$
CHEMBL3211062
     RDKit          3D

  0  0  0  0  0  0  0  0  0  0999 V3000
M  V30 BEGIN CTAB
M  V30 COUNTS 32 33 0 0 0
M  V30 BEGIN ATOM
M  V30 1 C -1.290412 -3.646177 3.691826 0
M  V30 2 C -0.044250 -3.492652 2.820265 0
M  V30 3 O -0.356989 -2.924504 1.611967 0
M  V30 4 C 0.714535 -2.744241 0.749012 0
M  V30 5 O 0.498815 -3.346723 -0.511831 0
M  V30 6 C 1.002779 -2.460341 -1.455549 0
M  V30 7 O 1.294516 -2.823265 -2.781078 0
M  V30 8 C 1.195341 -1.215704 -1.010282 0
M  V30 9 Cl 1.788947 0.218545 -1.774841 0
M  V30 10 C 0.767490 -1.303577 0.382178 0
M  V30 11 N 0.480637 -0.317646 1.173666 0
M  V30 12 C 0.562628 1.045574 0.723688 0
M  V30 13 C 1.745814 1.792483 0.749268 0
M  V30 14 C 1.713267 3.089569 0.294731 0
M  V30 15 C 0.522448 3.606671 -0.168041 0
M  V30 16 C -0.661804 2.891148 -0.204687 0
M  V30 17 C -0.622946 1.587153 0.253740 0
M  V30 18 C -1.877661 0.809238 0.221731 0
M  V30 19 H -1.213484 -4.474474 4.400248 0
M  V30 20 H -1.511029 -2.704538 4.223112 0
M  V30 21 H -2.119802 -3.872415 2.966936 0
M  V30 22 H 0.578626 -2.725823 3.366690 0
M  V30 23 H 0.568423 -4.402203 2.781723 0
M  V30 24 H 1.674176 -3.094291 1.179223 0
M  V30 25 H 0.815952 -3.608195 -3.225178 0
M  V30 26 H 2.641986 1.297159 1.134099 0
M  V30 27 H 2.637713 3.660100 0.319203 0
M  V30 28 H 0.490611 4.641632 -0.532106 0
M  V30 29 H -1.591266 3.324141 -0.576039 0
M  V30 30 H -2.762898 1.407936 0.578988 0
M  V30 31 H -2.095769 0.536563 -0.823926 0
M  V30 32 H -1.848509 -0.095438 0.848636 0
M  V30 END ATOM
M  V30 BEGIN BOND
M  V30 1 1 1 2
M  V30 2 1 2 3
M  V30 3 1 3 4
M  V30 4 1 4 5
M  V30 5 1 5 6
M  V30 6 1 6 7
M  V30 7 2 6 8
M  V30 8 1 8 9
M  V30 9 1 8 10
M  V30 10 2 10 11
M  V30 11 1 11 12
M  V30 12 2 12 13
M  V30 13 1 13 14
M  V30 14 2 14 15
M  V30 15 1 15 16
M  V30 16 2 16 17
M  V30 17 1 17 18
M  V30 18 1 10 4
M  V30 19 1 17 12
M  V30 20 1 1 19
M  V30 21 1 1 20
M  V30 22 1 1 21
M  V30 23 1 2 22
M  V30 24 1 2 23
M  V30 25 1 4 24
M  V30 26 1 7 25
M  V30 27 1 13 26
M  V30 28 1 14 27
M  V30 29 1 15 28
M  V30 30 1 16 29
M  V30 31 1 18 30
M  V30 32 1 18 31
M  V30 33 1 18 32
M  V30 END BOND
M  V30 END CTAB
M  END
>  <Dataset>  (729) 
ChEMBL_Kinases

>  <Ligand_Instance>  (729) 
nan

>  <PDB_ID>  (729) 
nan

>  <Standardized_SMILES>  (729) 
CCOC1OC(O)=C(Cl)/C1=N\c1ccccc1C

>  <Name>  (729) 
nan

>  <Pocket>  (729) 
nan

>  <ATP_Site>  (729) 
nan

>  <Peripheral>  (729) 
nan

>  <Num_H_Atoms_ProtBoundConf>  (729) 
nan

>  <Num_Resolved_Atoms>  (729) 
nan

>  <Num_Not_Resolved_Atoms>  (729) 
nan

$$$$
CHEMBL3211086
     RDKit          3D

  0  0  0  0  0  0  0  0  0  0999 V3000
M  V30 BEGIN CTAB
M  V30 COUNTS 36 37 0 0 0
M  V30 BEGIN ATOM
M  V30 1 C -2.626228 -2.824621 3.864294 0
M  V30 2 C -1.585328 -3.681836 3.173535 0
M  V30 3 O -1.019396 -2.860039 2.141129 0
M  V30 4 C -0.379295 -1.667274 2.436294 0
M  V30 5 O -0.375373 -1.437673 3.673644 0
M  V30 6 C 0.184848 -0.859472 1.343445 0
M  V30 7 C 0.142267 -1.178050 -0.005233 0
M  V30 8 C -0.465363 -2.374746 -0.642402 0
M  V30 9 C 0.791053 -0.136186 -0.635365 0
M  V30 10 C 1.217993 0.794178 0.309774 0
M  V30 11 N 0.828334 0.313412 1.493660 0
M  V30 12 C 1.120160 1.049889 2.698213 0
M  V30 13 C 1.937341 1.970256 -0.272789 0
M  V30 14 C 1.257508 2.466272 -1.513156 0
M  V30 15 C 1.294155 1.464920 -2.626073 0
M  V30 16 C 1.075041 0.115251 -2.048214 0
M  V30 17 N 1.141386 -0.890628 -2.850230 0
M  V30 18 O 1.399872 -0.779116 -4.188203 0
M  V30 19 H -2.980388 -2.022296 3.184672 0
M  V30 20 H -3.504037 -3.461433 4.114793 0
M  V30 21 H -2.233977 -2.327896 4.776316 0
M  V30 22 H -0.837158 -3.944147 3.938262 0
M  V30 23 H -2.071313 -4.563234 2.761055 0
M  V30 24 H 0.179436 -3.269014 -0.428945 0
M  V30 25 H -1.498436 -2.575062 -0.239607 0
M  V30 26 H -0.487394 -2.239012 -1.725328 0
M  V30 27 H 1.011744 0.442571 3.607280 0
M  V30 28 H 2.167378 1.400427 2.666047 0
M  V30 29 H 0.436043 1.936149 2.790654 0
M  V30 30 H 2.984836 1.697685 -0.448816 0
M  V30 31 H 1.893477 2.780757 0.484481 0
M  V30 32 H 0.224778 2.749665 -1.227943 0
M  V30 33 H 1.783874 3.411363 -1.799928 0
M  V30 34 H 2.320256 1.470245 -3.054733 0
M  V30 35 H 0.543461 1.699129 -3.403400 0
M  V30 36 H 2.342111 -0.797302 -4.552201 0
M  V30 END ATOM
M  V30 BEGIN BOND
M  V30 1 1 1 2
M  V30 2 1 2 3
M  V30 3 1 3 4
M  V30 4 2 4 5
M  V30 5 1 4 6
M  V30 6 2 6 7
M  V30 7 1 7 8
M  V30 8 1 7 9
M  V30 9 2 9 10
M  V30 10 1 10 11
M  V30 11 1 11 12
M  V30 12 1 10 13
M  V30 13 1 13 14
M  V30 14 1 14 15
M  V30 15 1 15 16
M  V30 16 2 16 17
M  V30 17 1 17 18
M  V30 18 1 11 6
M  V30 19 1 16 9
M  V30 20 1 1 19
M  V30 21 1 1 20
M  V30 22 1 1 21
M  V30 23 1 2 22
M  V30 24 1 2 23
M  V30 25 1 8 24
M  V30 26 1 8 25
M  V30 27 1 8 26
M  V30 28 1 12 27
M  V30 29 1 12 28
M  V30 30 1 12 29
M  V30 31 1 13 30
M  V30 32 1 13 31
M  V30 33 1 14 32
M  V30 34 1 14 33
M  V30 35 1 15 34
M  V30 36 1 15 35
M  V30 37 1 18 36
M  V30 END BOND
M  V30 END CTAB
M  END
>  <Dataset>  (730) 
ChEMBL_Kinases

>  <Ligand_Instance>  (730) 
nan

>  <PDB_ID>  (730) 
nan

>  <Standardized_SMILES>  (730) 
CCOC(=O)c1c(C)c2c(n1C)CCC/C2=N\O

>  <Name>  (730) 
nan

>  <Pocket>  (730) 
nan

>  <ATP_Site>  (730) 
nan

>  <Peripheral>  (730) 
nan

>  <Num_H_Atoms_ProtBoundConf>  (730) 
nan

>  <Num_Resolved_Atoms>  (730) 
nan

>  <Num_Not_Resolved_Atoms>  (730) 
nan

$$$$
CHEMBL3212600
     RDKit          3D

  0  0  0  0  0  0  0  0  0  0999 V3000
M  V30 BEGIN CTAB
M  V30 COUNTS 30 32 0 0 0
M  V30 BEGIN ATOM
M  V30 1 O 0.347578 -1.511428 1.712010 0
M  V30 2 C -0.494894 -1.084891 0.883911 0
M  V30 3 N -0.200945 -1.585542 -0.416793 0
M  V30 4 N 0.926360 -2.405306 -0.437601 0
M  V30 5 C 2.129549 -2.013393 -0.507649 0
M  V30 6 C 3.434706 -2.773556 -0.538801 0
M  V30 7 C 4.134362 -3.171050 0.539042 0
M  V30 8 C 5.299053 -3.850188 0.398147 0
M  V30 9 C 5.690516 -4.090220 -0.962948 0
M  V30 10 S 4.274592 -3.274749 -1.918461 0
M  V30 11 C -1.646503 -0.204899 1.092918 0
M  V30 12 C -2.888537 -0.689176 0.738417 0
M  V30 13 C -4.088042 0.018548 0.871453 0
M  V30 14 C -3.953066 1.285831 1.401229 0
M  V30 15 C -2.735037 1.816470 1.771440 0
M  V30 16 C -2.315576 3.015623 2.310469 0
M  V30 17 C -0.945659 2.967880 2.466435 0
M  V30 18 N -0.503129 1.771683 2.038865 0
M  V30 19 C -1.570068 1.068904 1.617871 0
M  V30 20 H -0.796964 -1.342442 -1.264766 0
M  V30 21 H 2.321401 -0.936251 -0.557532 0
M  V30 22 H 3.776882 -2.953944 1.558589 0
M  V30 23 H 5.957782 -4.226518 1.167062 0
M  V30 24 H 6.646775 -4.649284 -1.266226 0
M  V30 25 H -3.000307 -1.691460 0.318822 0
M  V30 26 H -5.030604 -0.421997 0.572963 0
M  V30 27 H -4.837154 1.892655 1.533659 0
M  V30 28 H -2.949275 3.853411 2.568231 0
M  V30 29 H -0.257261 3.723658 2.860549 0
M  V30 30 H 0.476340 1.444491 2.031601 0
M  V30 END ATOM
M  V30 BEGIN BOND
M  V30 1 2 1 2
M  V30 2 1 2 3
M  V30 3 1 3 4
M  V30 4 2 4 5
M  V30 5 1 5 6
M  V30 6 2 6 7
M  V30 7 1 7 8
M  V30 8 2 8 9
M  V30 9 1 9 10
M  V30 10 1 2 11
M  V30 11 2 11 12
M  V30 12 1 12 13
M  V30 13 2 13 14
M  V30 14 1 14 15
M  V30 15 1 15 16
M  V30 16 2 16 17
M  V30 17 1 17 18
M  V30 18 1 18 19
M  V30 19 1 10 6
M  V30 20 1 19 11
M  V30 21 2 19 15
M  V30 22 1 3 20
M  V30 23 1 5 21
M  V30 24 1 7 22
M  V30 25 1 8 23
M  V30 26 1 9 24
M  V30 27 1 12 25
M  V30 28 1 13 26
M  V30 29 1 14 27
M  V30 30 1 16 28
M  V30 31 1 17 29
M  V30 32 1 18 30
M  V30 END BOND
M  V30 END CTAB
M  END
>  <Dataset>  (731) 
ChEMBL_Kinases

>  <Ligand_Instance>  (731) 
nan

>  <PDB_ID>  (731) 
nan

>  <Standardized_SMILES>  (731) 
O=C(N/N=C/c1cccs1)c1cccc2cc[nH]c12

>  <Name>  (731) 
nan

>  <Pocket>  (731) 
nan

>  <ATP_Site>  (731) 
nan

>  <Peripheral>  (731) 
nan

>  <Num_H_Atoms_ProtBoundConf>  (731) 
nan

>  <Num_Resolved_Atoms>  (731) 
nan

>  <Num_Not_Resolved_Atoms>  (731) 
nan

$$$$
CHEMBL3211455
     RDKit          3D

  0  0  0  0  0  0  0  0  0  0999 V3000
M  V30 BEGIN CTAB
M  V30 COUNTS 50 54 0 0 0
M  V30 BEGIN ATOM
M  V30 1 C 3.050896 -8.252130 2.345222 0
M  V30 2 C 2.551717 -7.245935 1.313066 0
M  V30 3 C 1.581850 -7.478050 0.340210 0
M  V30 4 C 1.320557 -6.397690 -0.459282 0
M  V30 5 C 1.942511 -5.245689 -0.307135 0
M  V30 6 C 1.817343 -3.973436 -1.045499 0
M  V30 7 N 1.064217 -3.148203 -0.438402 0
M  V30 8 N 0.754475 -1.862358 -0.888535 0
M  V30 9 C 1.700500 -0.778184 -0.803447 0
M  V30 10 C 1.133886 0.283080 0.099343 0
M  V30 11 N -0.206661 0.655409 -0.061544 0
M  V30 12 C -0.710903 1.310964 1.101116 0
M  V30 13 C 0.025658 2.489896 1.561515 0
M  V30 14 C 1.320845 2.731807 1.986129 0
M  V30 15 C 1.857402 3.944147 2.367024 0
M  V30 16 C 1.054862 5.058041 2.337802 0
M  V30 17 C -0.248851 4.898805 1.928192 0
M  V30 18 C -0.719629 3.655776 1.561666 0
M  V30 19 C -2.089312 3.274724 1.162650 0
M  V30 20 C -3.226611 4.048148 1.050746 0
M  V30 21 C -4.433891 3.481745 0.715832 0
M  V30 22 C -4.469542 2.116884 0.496266 0
M  V30 23 C -3.306486 1.395040 0.620586 0
M  V30 24 C -2.060542 1.896219 0.951556 0
M  V30 25 C -1.101236 -0.289613 -0.619963 0
M  V30 26 C -0.473958 -1.344086 -1.495103 0
M  V30 27 S 3.057945 -5.493624 1.053799 0
M  V30 28 H 3.706144 -7.689560 3.070807 0
M  V30 29 H 2.180484 -8.631028 2.929470 0
M  V30 30 H 3.623775 -9.015135 1.816374 0
M  V30 31 H 1.118474 -8.453347 0.281849 0
M  V30 32 H 0.566899 -6.477619 -1.262283 0
M  V30 33 H 2.259785 -3.672117 -1.983400 0
M  V30 34 H 1.863547 -0.351986 -1.814082 0
M  V30 35 H 2.646427 -1.129115 -0.376997 0
M  V30 36 H 1.861972 1.140112 -0.060521 0
M  V30 37 H 1.323285 -0.068563 1.128875 0
M  V30 38 H -0.754667 0.581089 1.922955 0
M  V30 39 H 2.063289 1.951726 2.081193 0
M  V30 40 H 2.866347 4.108364 2.692563 0
M  V30 41 H 1.396912 6.035506 2.617356 0
M  V30 42 H -0.875576 5.781706 1.907979 0
M  V30 43 H -3.202567 5.110917 1.220983 0
M  V30 44 H -5.300501 4.115739 0.637227 0
M  V30 45 H -5.432725 1.723944 0.239107 0
M  V30 46 H -3.483945 0.363762 0.435853 0
M  V30 47 H -1.531902 -0.869220 0.221087 0
M  V30 48 H -1.839447 0.231834 -1.247106 0
M  V30 49 H -0.180418 -0.962386 -2.491907 0
M  V30 50 H -1.161115 -2.197748 -1.671930 0
M  V30 END ATOM
M  V30 BEGIN BOND
M  V30 1 1 1 2
M  V30 2 2 2 3
M  V30 3 1 3 4
M  V30 4 2 4 5
M  V30 5 1 5 6
M  V30 6 2 6 7
M  V30 7 1 7 8
M  V30 8 1 8 9
M  V30 9 1 9 10
M  V30 10 1 10 11
M  V30 11 1 11 12
M  V30 12 1 12 13
M  V30 13 2 13 14
M  V30 14 1 14 15
M  V30 15 2 15 16
M  V30 16 1 16 17
M  V30 17 2 17 18
M  V30 18 1 18 19
M  V30 19 2 19 20
M  V30 20 1 20 21
M  V30 21 2 21 22
M  V30 22 1 22 23
M  V30 23 2 23 24
M  V30 24 1 11 25
M  V30 25 1 25 26
M  V30 26 1 5 27
M  V30 27 1 27 2
M  V30 28 1 26 8
M  V30 29 1 24 12
M  V30 30 1 18 13
M  V30 31 1 24 19
M  V30 32 1 1 28
M  V30 33 1 1 29
M  V30 34 1 1 30
M  V30 35 1 3 31
M  V30 36 1 4 32
M  V30 37 1 6 33
M  V30 38 1 9 34
M  V30 39 1 9 35
M  V30 40 1 10 36
M  V30 41 1 10 37
M  V30 42 1 12 38
M  V30 43 1 14 39
M  V30 44 1 15 40
M  V30 45 1 16 41
M  V30 46 1 17 42
M  V30 47 1 20 43
M  V30 48 1 21 44
M  V30 49 1 22 45
M  V30 50 1 23 46
M  V30 51 1 25 47
M  V30 52 1 25 48
M  V30 53 1 26 49
M  V30 54 1 26 50
M  V30 END BOND
M  V30 END CTAB
M  END
>  <Dataset>  (732) 
ChEMBL_Kinases

>  <Ligand_Instance>  (732) 
nan

>  <PDB_ID>  (732) 
nan

>  <Standardized_SMILES>  (732) 
Cc1ccc(/C=N/N2CCN(C3c4ccccc4-c4ccccc43)CC2)s1

>  <Name>  (732) 
nan

>  <Pocket>  (732) 
nan

>  <ATP_Site>  (732) 
nan

>  <Peripheral>  (732) 
nan

>  <Num_H_Atoms_ProtBoundConf>  (732) 
nan

>  <Num_Resolved_Atoms>  (732) 
nan

>  <Num_Not_Resolved_Atoms>  (732) 
nan

$$$$
CHEMBL3211517
     RDKit          3D

  0  0  0  0  0  0  0  0  0  0999 V3000
M  V30 BEGIN CTAB
M  V30 COUNTS 32 34 0 0 0
M  V30 BEGIN ATOM
M  V30 1 O -0.740254 -3.884278 2.348785 0
M  V30 2 N 0.043260 -3.825808 1.358275 0 CHG=1 VAL=4
M  V30 3 O -0.737256 -4.338612 0.350931 0 CHG=-1 VAL=1
M  V30 4 C 1.365616 -3.316970 1.469118 0
M  V30 5 C 2.077756 -3.372528 2.643897 0
M  V30 6 C 3.352689 -2.824711 2.602235 0
M  V30 7 C 3.867796 -2.256396 1.438854 0
M  V30 8 C 3.122140 -2.218927 0.276670 0
M  V30 9 C 1.871127 -2.758385 0.321450 0
M  V30 10 N 1.157807 -2.686878 -0.935923 0
M  V30 11 N 0.259839 -1.665674 -0.600048 0
M  V30 12 C 0.567364 -0.442357 -0.385564 0
M  V30 13 C -0.307591 0.680684 -0.028880 0
M  V30 14 C 0.205562 1.941724 0.158571 0
M  V30 15 C -0.721283 2.906802 0.502834 0
M  V30 16 C -2.052005 2.596305 0.641082 0
M  V30 17 C -2.544894 1.299328 0.442680 0
M  V30 18 C -1.647855 0.311319 0.097257 0
M  V30 19 O -3.924183 1.292698 0.652805 0
M  V30 20 C -4.357874 2.641563 0.495661 0
M  V30 21 O -3.188805 3.328698 0.969591 0
M  V30 22 H 1.629687 -3.829096 3.517763 0
M  V30 23 H 3.943366 -2.850003 3.513281 0
M  V30 24 H 4.856900 -1.835718 1.429343 0
M  V30 25 H 3.553195 -1.765534 -0.613782 0
M  V30 26 H 1.184825 -3.163662 -1.876357 0
M  V30 27 H 1.633381 -0.299281 -0.500697 0
M  V30 28 H 1.270083 2.079653 0.025836 0
M  V30 29 H -0.350050 3.921721 0.662259 0
M  V30 30 H -2.003191 -0.695489 -0.060272 0
M  V30 31 H -5.250481 2.878116 1.079024 0
M  V30 32 H -4.438785 2.807398 -0.589305 0
M  V30 END ATOM
M  V30 BEGIN BOND
M  V30 1 2 1 2
M  V30 2 1 2 3
M  V30 3 1 2 4
M  V30 4 2 4 5
M  V30 5 1 5 6
M  V30 6 2 6 7
M  V30 7 1 7 8
M  V30 8 2 8 9
M  V30 9 1 9 10
M  V30 10 1 10 11
M  V30 11 2 11 12
M  V30 12 1 12 13
M  V30 13 2 13 14
M  V30 14 1 14 15
M  V30 15 2 15 16
M  V30 16 1 16 17
M  V30 17 2 17 18
M  V30 18 1 17 19
M  V30 19 1 19 20
M  V30 20 1 20 21
M  V30 21 1 9 4
M  V30 22 1 18 13
M  V30 23 1 21 16
M  V30 24 1 5 22
M  V30 25 1 6 23
M  V30 26 1 7 24
M  V30 27 1 8 25
M  V30 28 1 10 26
M  V30 29 1 12 27
M  V30 30 1 14 28
M  V30 31 1 15 29
M  V30 32 1 18 30
M  V30 33 1 20 31
M  V30 34 1 20 32
M  V30 END BOND
M  V30 END CTAB
M  END
>  <Dataset>  (733) 
ChEMBL_Kinases

>  <Ligand_Instance>  (733) 
nan

>  <PDB_ID>  (733) 
nan

>  <Standardized_SMILES>  (733) 
O=[N+]([O-])c1ccccc1N/N=C/c1ccc2c(c1)OCO2

>  <Name>  (733) 
nan

>  <Pocket>  (733) 
nan

>  <ATP_Site>  (733) 
nan

>  <Peripheral>  (733) 
nan

>  <Num_H_Atoms_ProtBoundConf>  (733) 
nan

>  <Num_Resolved_Atoms>  (733) 
nan

>  <Num_Not_Resolved_Atoms>  (733) 
nan

$$$$
CHEMBL321189
     RDKit          3D

  0  0  0  0  0  0  0  0  0  0999 V3000
M  V30 BEGIN CTAB
M  V30 COUNTS 56 59 0 0 0
M  V30 BEGIN ATOM
M  V30 1 O 3.164971 1.077051 2.136609 0
M  V30 2 C 2.330444 1.718569 2.833665 0
M  V30 3 C 2.786302 1.871168 4.229440 0
M  V30 4 C 4.119911 1.203085 4.410590 0
M  V30 5 C 4.264344 -0.129601 4.797316 0
M  V30 6 C 5.545718 -0.638919 4.928238 0
M  V30 7 C 6.676225 0.107972 4.694703 0
M  V30 8 C 6.503088 1.434915 4.310015 0
M  V30 9 C 5.243060 1.961970 4.173938 0
M  V30 10 O 1.156708 2.199264 2.326607 0
M  V30 11 C 0.886704 1.956276 0.955620 0
M  V30 12 C -0.443973 2.527472 0.507827 0
M  V30 13 C -0.559890 3.996357 0.730123 0
M  V30 14 O -0.377006 4.312685 2.074040 0
M  V30 15 C -1.574631 1.720659 1.110390 0
M  V30 16 C -1.766886 0.653181 0.115206 0
M  V30 17 C -2.682601 -0.309142 0.234610 0
M  V30 18 C -2.851956 -1.351222 -0.769061 0
M  V30 19 C -2.913725 -1.256657 -2.120636 0
M  V30 20 C -3.053182 -2.380551 -2.907886 0
M  V30 21 C -3.138942 -3.653910 -2.392435 0
M  V30 22 C -3.284127 -4.876911 -3.172869 0
M  V30 23 C -2.724064 -6.052971 -2.668165 0
M  V30 24 C -2.861858 -7.216203 -3.410766 0
M  V30 25 C -3.534303 -7.204547 -4.613165 0
M  V30 26 C -4.093003 -6.045736 -5.122692 0
M  V30 27 C -3.952165 -4.894997 -4.379765 0
M  V30 28 C -3.080197 -3.792851 -1.002403 0
M  V30 29 C -2.940213 -2.648631 -0.247977 0
M  V30 30 C -0.775643 0.828697 -0.970256 0
M  V30 31 O -0.359656 -0.199329 -1.603768 0
M  V30 32 O -0.640465 2.239233 -0.892058 0
M  V30 33 H 2.115153 1.378798 4.957509 0
M  V30 34 H 2.866294 2.948181 4.523313 0
M  V30 35 H 3.357532 -0.695797 4.974488 0
M  V30 36 H 5.580006 -1.675183 5.231612 0
M  V30 37 H 7.654298 -0.319044 4.804897 0
M  V30 38 H 7.376102 2.072294 4.111539 0
M  V30 39 H 5.166833 2.990391 3.876919 0
M  V30 40 H 1.707946 2.358909 0.319187 0
M  V30 41 H 0.831730 0.845134 0.860048 0
M  V30 42 H -1.532267 4.333437 0.364598 0
M  V30 43 H 0.215597 4.485489 0.105658 0
M  V30 44 H 0.588697 4.474787 2.214900 0
M  V30 45 H -2.488294 2.322888 1.278566 0
M  V30 46 H -1.246765 1.349324 2.098445 0
M  V30 47 H -3.360732 -0.367777 1.100805 0
M  V30 48 H -2.862824 -0.268076 -2.528689 0
M  V30 49 H -3.099399 -2.275160 -3.985460 0
M  V30 50 H -2.181650 -6.124627 -1.726952 0
M  V30 51 H -2.459721 -8.163329 -3.092725 0
M  V30 52 H -3.644560 -8.125466 -5.205474 0
M  V30 53 H -4.632413 -5.978369 -6.062312 0
M  V30 54 H -4.351864 -3.924550 -4.682575 0
M  V30 55 H -3.144255 -4.770531 -0.546329 0
M  V30 56 H -2.900931 -2.833962 0.835840 0
M  V30 END ATOM
M  V30 BEGIN BOND
M  V30 1 2 1 2
M  V30 2 1 2 3
M  V30 3 1 3 4
M  V30 4 2 4 5
M  V30 5 1 5 6
M  V30 6 2 6 7
M  V30 7 1 7 8
M  V30 8 2 8 9
M  V30 9 1 2 10
M  V30 10 1 10 11
M  V30 11 1 11 12
M  V30 12 1 12 13
M  V30 13 1 13 14
M  V30 14 1 12 15
M  V30 15 1 15 16
M  V30 16 2 16 17
M  V30 17 1 17 18
M  V30 18 2 18 19
M  V30 19 1 19 20
M  V30 20 2 20 21
M  V30 21 1 21 22
M  V30 22 2 22 23
M  V30 23 1 23 24
M  V30 24 2 24 25
M  V30 25 1 25 26
M  V30 26 2 26 27
M  V30 27 1 21 28
M  V30 28 2 28 29
M  V30 29 1 16 30
M  V30 30 2 30 31
M  V30 31 1 30 32
M  V30 32 1 9 4
M  V30 33 1 32 12
M  V30 34 1 29 18
M  V30 35 1 27 22
M  V30 36 1 3 33
M  V30 37 1 3 34
M  V30 38 1 5 35
M  V30 39 1 6 36
M  V30 40 1 7 37
M  V30 41 1 8 38
M  V30 42 1 9 39
M  V30 43 1 11 40
M  V30 44 1 11 41
M  V30 45 1 13 42
M  V30 46 1 13 43
M  V30 47 1 14 44
M  V30 48 1 15 45
M  V30 49 1 15 46
M  V30 50 1 17 47
M  V30 51 1 19 48
M  V30 52 1 20 49
M  V30 53 1 23 50
M  V30 54 1 24 51
M  V30 55 1 25 52
M  V30 56 1 26 53
M  V30 57 1 27 54
M  V30 58 1 28 55
M  V30 59 1 29 56
M  V30 END BOND
M  V30 END CTAB
M  END
>  <Dataset>  (734) 
ChEMBL_Kinases

>  <Ligand_Instance>  (734) 
nan

>  <PDB_ID>  (734) 
nan

>  <Standardized_SMILES>  (734) 
O=C(Cc1ccccc1)OCC1(CO)C/C(=C/c2ccc(-c3ccccc3)cc2)C(=O)O1

>  <Name>  (734) 
nan

>  <Pocket>  (734) 
nan

>  <ATP_Site>  (734) 
nan

>  <Peripheral>  (734) 
nan

>  <Num_H_Atoms_ProtBoundConf>  (734) 
nan

>  <Num_Resolved_Atoms>  (734) 
nan

>  <Num_Not_Resolved_Atoms>  (734) 
nan

$$$$
CHEMBL321193
     RDKit          3D

  0  0  0  0  0  0  0  0  0  0999 V3000
M  V30 BEGIN CTAB
M  V30 COUNTS 42 45 0 0 0
M  V30 BEGIN ATOM
M  V30 1 C -0.060259 0.243861 3.657982 0
M  V30 2 N 0.728405 0.300971 2.439931 0
M  V30 3 C 1.402872 1.425956 2.219506 0
M  V30 4 O 1.458424 2.451150 2.935112 0
M  V30 5 C 2.170452 1.573228 1.083106 0
M  V30 6 C 2.993242 2.699925 0.629184 0
M  V30 7 C 2.499164 3.715777 -0.157687 0
M  V30 8 Cl 0.808471 3.625787 -0.600626 0
M  V30 9 C 3.279534 4.763926 -0.587782 0
M  V30 10 C 4.616816 4.743093 -0.176565 0
M  V30 11 C 5.179849 3.752491 0.615709 0
M  V30 12 C 4.335237 2.715490 1.018025 0
M  V30 13 Cl 4.949286 1.428439 2.012133 0
M  V30 14 C 2.257934 0.543982 0.135478 0
M  V30 15 C 1.540727 -0.635906 0.382060 0
M  V30 16 C 1.583118 -1.699165 -0.511492 0
M  V30 17 N 0.851428 -2.808237 -0.176310 0
M  V30 18 C 0.122010 -2.851678 0.980790 0
M  V30 19 N -0.489756 -4.132572 0.983599 0
M  V30 20 C -1.863110 -4.146140 0.563803 0
M  V30 21 C -2.552728 -2.944692 0.395026 0
M  V30 22 C -3.879150 -2.912643 -0.017137 0
M  V30 23 C -4.484058 -4.148213 -0.253148 0
M  V30 24 C -3.807116 -5.363896 -0.089418 0
M  V30 25 O -4.476311 -6.580899 -0.345236 0
M  V30 26 C -2.494799 -5.371373 0.319360 0
M  V30 27 N 0.096310 -1.805273 1.832778 0
M  V30 28 C 0.799888 -0.694153 1.545218 0
M  V30 29 H -0.563007 1.220058 3.858466 0
M  V30 30 H 0.647772 0.078055 4.493304 0
M  V30 31 H -0.749271 -0.617668 3.644713 0
M  V30 32 H 2.917324 5.570805 -1.203395 0
M  V30 33 H 5.291164 5.557954 -0.491065 0
M  V30 34 H 6.224030 3.808882 0.891333 0
M  V30 35 H 2.821591 0.531414 -0.794952 0
M  V30 36 H 2.182605 -1.594879 -1.409571 0
M  V30 37 H -0.029329 -5.006910 1.254462 0
M  V30 38 H -2.055699 -1.997470 0.586646 0
M  V30 39 H -4.464668 -2.010948 -0.160688 0
M  V30 40 H -5.525757 -4.132560 -0.574373 0
M  V30 41 H -4.469517 -6.808296 -1.356699 0
M  V30 42 H -1.928230 -6.280216 0.460134 0
M  V30 END ATOM
M  V30 BEGIN BOND
M  V30 1 1 1 2
M  V30 2 1 2 3
M  V30 3 2 3 4
M  V30 4 1 3 5
M  V30 5 1 5 6
M  V30 6 2 6 7
M  V30 7 1 7 8
M  V30 8 1 7 9
M  V30 9 2 9 10
M  V30 10 1 10 11
M  V30 11 2 11 12
M  V30 12 1 12 13
M  V30 13 2 5 14
M  V30 14 1 14 15
M  V30 15 2 15 16
M  V30 16 1 16 17
M  V30 17 2 17 18
M  V30 18 1 18 19
M  V30 19 1 19 20
M  V30 20 2 20 21
M  V30 21 1 21 22
M  V30 22 2 22 23
M  V30 23 1 23 24
M  V30 24 1 24 25
M  V30 25 2 24 26
M  V30 26 1 18 27
M  V30 27 2 27 28
M  V30 28 1 28 2
M  V30 29 1 12 6
M  V30 30 1 28 15
M  V30 31 1 26 20
M  V30 32 1 1 29
M  V30 33 1 1 30
M  V30 34 1 1 31
M  V30 35 1 9 32
M  V30 36 1 10 33
M  V30 37 1 11 34
M  V30 38 1 14 35
M  V30 39 1 16 36
M  V30 40 1 19 37
M  V30 41 1 21 38
M  V30 42 1 22 39
M  V30 43 1 23 40
M  V30 44 1 25 41
M  V30 45 1 26 42
M  V30 END BOND
M  V30 END CTAB
M  END
>  <Dataset>  (735) 
ChEMBL_Kinases

>  <Ligand_Instance>  (735) 
nan

>  <PDB_ID>  (735) 
nan

>  <Standardized_SMILES>  (735) 
Cn1c(=O)c(-c2c(Cl)cccc2Cl)cc2cnc(Nc3cccc(O)c3)nc21

>  <Name>  (735) 
nan

>  <Pocket>  (735) 
nan

>  <ATP_Site>  (735) 
nan

>  <Peripheral>  (735) 
nan

>  <Num_H_Atoms_ProtBoundConf>  (735) 
nan

>  <Num_Resolved_Atoms>  (735) 
nan

>  <Num_Not_Resolved_Atoms>  (735) 
nan

$$$$
CHEMBL3212022
     RDKit          3D

  0  0  0  0  0  0  0  0  0  0999 V3000
M  V30 BEGIN CTAB
M  V30 COUNTS 43 44 0 0 0
M  V30 BEGIN ATOM
M  V30 1 C -2.275266 -4.726243 2.642576 0
M  V30 2 C -1.340246 -3.930191 1.806347 0
M  V30 3 C -0.986180 -4.192456 0.570098 0
M  V30 4 C -0.063425 -3.448088 -0.322616 0
M  V30 5 C 0.567325 -2.242005 0.282155 0
M  V30 6 C 0.062429 -0.918412 -0.252913 0
M  V30 7 C 0.363118 -0.927900 -1.757351 0
M  V30 8 C -1.355363 -0.611198 -0.015963 0
M  V30 9 N 0.972182 0.108774 0.279767 0
M  V30 10 C 0.825646 1.488622 0.018280 0
M  V30 11 O -0.158317 1.817262 -0.719885 0
M  V30 12 C 1.727380 2.507451 0.544438 0
M  V30 13 C 2.815433 2.314765 1.341509 0
M  V30 14 C 3.606620 3.353276 1.786649 0
M  V30 15 C 3.342988 4.650415 1.450870 0
M  V30 16 C 2.254905 4.891510 0.648255 0
M  V30 17 C 1.478198 3.839558 0.214963 0
M  V30 18 C 0.565412 -2.269188 1.804330 0
M  V30 19 C -0.725002 -2.722519 2.372812 0
M  V30 20 N -1.301770 -2.072602 3.347447 0
M  V30 21 O -0.704005 -0.938459 3.864675 0
M  V30 22 H -2.689907 -5.549897 2.049853 0
M  V30 23 H -3.058742 -3.997091 2.974963 0
M  V30 24 H -1.746496 -5.102337 3.532254 0
M  V30 25 H -1.419876 -5.078938 0.114790 0
M  V30 26 H -0.613105 -3.289211 -1.261710 0
M  V30 27 H 0.712667 -4.222948 -0.604469 0
M  V30 28 H 1.647519 -2.264050 0.006666 0
M  V30 29 H 1.301592 -1.500379 -1.879594 0
M  V30 30 H -0.449145 -1.512172 -2.237019 0
M  V30 31 H 0.434945 0.098461 -2.166088 0
M  V30 32 H -1.747041 -0.031763 -0.879094 0
M  V30 33 H -2.026778 -1.447111 0.153433 0
M  V30 34 H -1.513344 0.077328 0.864691 0
M  V30 35 H 1.794153 -0.121589 0.890840 0
M  V30 36 H 3.043725 1.297804 1.620155 0
M  V30 37 H 4.467838 3.147536 2.423623 0
M  V30 38 H 3.921513 5.502280 1.765816 0
M  V30 39 H 2.010096 5.916952 0.356868 0
M  V30 40 H 0.638386 4.096748 -0.412629 0
M  V30 41 H 0.785919 -1.280634 2.217468 0
M  V30 42 H 1.361604 -2.959068 2.185299 0
M  V30 43 H -0.552618 -0.131674 3.266231 0
M  V30 END ATOM
M  V30 BEGIN BOND
M  V30 1 1 1 2
M  V30 2 2 2 3
M  V30 3 1 3 4
M  V30 4 1 4 5
M  V30 5 1 5 6
M  V30 6 1 6 7
M  V30 7 1 6 8
M  V30 8 1 6 9
M  V30 9 1 9 10
M  V30 10 2 10 11
M  V30 11 1 10 12
M  V30 12 2 12 13
M  V30 13 1 13 14
M  V30 14 2 14 15
M  V30 15 1 15 16
M  V30 16 2 16 17
M  V30 17 1 5 18
M  V30 18 1 18 19
M  V30 19 2 19 20
M  V30 20 1 20 21
M  V30 21 1 19 2
M  V30 22 1 17 12
M  V30 23 1 1 22
M  V30 24 1 1 23
M  V30 25 1 1 24
M  V30 26 1 3 25
M  V30 27 1 4 26
M  V30 28 1 4 27
M  V30 29 1 5 28
M  V30 30 1 7 29
M  V30 31 1 7 30
M  V30 32 1 7 31
M  V30 33 1 8 32
M  V30 34 1 8 33
M  V30 35 1 8 34
M  V30 36 1 9 35
M  V30 37 1 13 36
M  V30 38 1 14 37
M  V30 39 1 15 38
M  V30 40 1 16 39
M  V30 41 1 17 40
M  V30 42 1 18 41
M  V30 43 1 18 42
M  V30 44 1 21 43
M  V30 END BOND
M  V30 END CTAB
M  END
>  <Dataset>  (736) 
ChEMBL_Kinases

>  <Ligand_Instance>  (736) 
nan

>  <PDB_ID>  (736) 
nan

>  <Standardized_SMILES>  (736) 
CC1=CCC(C(C)(C)NC(=O)c2ccccc2)C/C1=N\O

>  <Name>  (736) 
nan

>  <Pocket>  (736) 
nan

>  <ATP_Site>  (736) 
nan

>  <Peripheral>  (736) 
nan

>  <Num_H_Atoms_ProtBoundConf>  (736) 
nan

>  <Num_Resolved_Atoms>  (736) 
nan

>  <Num_Not_Resolved_Atoms>  (736) 
nan

$$$$
CHEMBL3212042
     RDKit          3D

  0  0  0  0  0  0  0  0  0  0999 V3000
M  V30 BEGIN CTAB
M  V30 COUNTS 28 29 0 0 0
M  V30 BEGIN ATOM
M  V30 1 N -0.469580 1.033162 3.021882 0
M  V30 2 C -0.339160 0.266760 2.142650 0
M  V30 3 C -0.204440 -0.671272 1.064301 0
M  V30 4 C -1.310579 -1.617343 0.796661 0
M  V30 5 N -1.329190 -2.511377 -0.137263 0
M  V30 6 C -2.584360 -3.253236 -0.087233 0
M  V30 7 C -3.521853 -2.186511 0.494098 0
M  V30 8 C -2.578498 -1.670501 1.584393 0
M  V30 9 C 0.895115 -0.688484 0.318009 0
M  V30 10 O 0.904945 -1.647694 -0.698448 0
M  V30 11 C 2.005652 0.221508 0.536424 0
M  V30 12 C 1.912920 1.589945 0.819135 0
M  V30 13 C 2.974043 2.440838 1.036250 0
M  V30 14 C 4.196696 1.827988 0.953630 0
M  V30 15 C 4.466086 0.527871 0.692306 0
M  V30 16 C 3.326977 -0.241842 0.488767 0
M  V30 17 H -2.895230 -3.489057 -1.106487 0
M  V30 18 H -2.551901 -4.119540 0.599358 0
M  V30 19 H -3.628180 -1.395353 -0.264742 0
M  V30 20 H -4.457672 -2.600884 0.888408 0
M  V30 21 H -2.878375 -0.710706 2.002887 0
M  V30 22 H -2.528410 -2.486478 2.346814 0
M  V30 23 H 1.137805 -2.627662 -0.523325 0
M  V30 24 H 0.914792 2.003368 0.857558 0
M  V30 25 H 2.797697 3.484405 1.248283 0
M  V30 26 H 5.065932 2.476962 1.120135 0
M  V30 27 H 5.453281 0.097828 0.638879 0
M  V30 28 H 3.431090 -1.305682 0.269282 0
M  V30 END ATOM
M  V30 BEGIN BOND
M  V30 1 3 1 2
M  V30 2 1 2 3
M  V30 3 1 3 4
M  V30 4 2 4 5
M  V30 5 1 5 6
M  V30 6 1 6 7
M  V30 7 1 7 8
M  V30 8 2 3 9
M  V30 9 1 9 10
M  V30 10 1 9 11
M  V30 11 2 11 12
M  V30 12 1 12 13
M  V30 13 2 13 14
M  V30 14 1 14 15
M  V30 15 2 15 16
M  V30 16 1 8 4
M  V30 17 1 16 11
M  V30 18 1 6 17
M  V30 19 1 6 18
M  V30 20 1 7 19
M  V30 21 1 7 20
M  V30 22 1 8 21
M  V30 23 1 8 22
M  V30 24 1 10 23
M  V30 25 1 12 24
M  V30 26 1 13 25
M  V30 27 1 14 26
M  V30 28 1 15 27
M  V30 29 1 16 28
M  V30 END BOND
M  V30 END CTAB
M  END
>  <Dataset>  (737) 
ChEMBL_Kinases

>  <Ligand_Instance>  (737) 
nan

>  <PDB_ID>  (737) 
nan

>  <Standardized_SMILES>  (737) 
N#C/C(C1=NCCC1)=C(/O)c1ccccc1

>  <Name>  (737) 
nan

>  <Pocket>  (737) 
nan

>  <ATP_Site>  (737) 
nan

>  <Peripheral>  (737) 
nan

>  <Num_H_Atoms_ProtBoundConf>  (737) 
nan

>  <Num_Resolved_Atoms>  (737) 
nan

>  <Num_Not_Resolved_Atoms>  (737) 
nan

$$$$
CHEMBL3212561
     RDKit          3D

  0  0  0  0  0  0  0  0  0  0999 V3000
M  V30 BEGIN CTAB
M  V30 COUNTS 43 45 0 0 0
M  V30 BEGIN ATOM
M  V30 1 C 3.622187 -5.597220 -0.845263 0
M  V30 2 C 4.518878 -4.585320 -1.478385 0
M  V30 3 S 3.624525 -3.239410 -2.308856 0
M  V30 4 C 2.729911 -2.238305 -1.131443 0
M  V30 5 N 2.703498 -2.433499 0.207523 0
M  V30 6 C 2.003643 -1.633503 1.032743 0
M  V30 7 O 2.118568 -2.013855 2.345508 0
M  V30 8 C 1.271143 -0.567033 0.565655 0
M  V30 9 C 1.316310 -0.391753 -0.801779 0
M  V30 10 N 2.021029 -1.200479 -1.614817 0
M  V30 11 N 0.601690 0.679852 -1.369934 0
M  V30 12 C -0.107594 1.532898 -0.711944 0
M  V30 13 C -0.824233 2.627351 -1.400308 0
M  V30 14 C -0.139161 1.333737 0.729989 0
M  V30 15 C -0.835041 2.190037 1.458511 0
M  V30 16 O -0.931165 2.090644 2.847784 0
M  V30 17 O -1.495684 3.221922 0.854417 0
M  V30 18 C -2.216446 4.184810 1.583459 0
M  V30 19 C 0.520777 0.269582 1.532024 0
M  V30 20 C -0.580306 -0.488927 2.215826 0
M  V30 21 C -0.587400 -1.028874 3.484135 0
M  V30 22 C -1.696825 -1.705185 3.945856 0
M  V30 23 C -2.822551 -1.845844 3.125969 0
M  V30 24 N -2.842045 -1.329671 1.887074 0
M  V30 25 C -1.746138 -0.674543 1.461271 0
M  V30 26 H 3.758161 -5.654942 0.273897 0
M  V30 27 H 2.542880 -5.371957 -0.987023 0
M  V30 28 H 3.788576 -6.640899 -1.202267 0
M  V30 29 H 5.084062 -4.078445 -0.641639 0
M  V30 30 H 5.285893 -5.030686 -2.109183 0
M  V30 31 H 2.867252 -1.584731 2.886026 0
M  V30 32 H -1.929144 2.560123 -1.333991 0
M  V30 33 H -0.420410 3.640820 -1.165690 0
M  V30 34 H -0.619719 2.520240 -2.507190 0
M  V30 35 H -1.731759 1.693194 3.323211 0
M  V30 36 H -2.677751 4.943028 0.923134 0
M  V30 37 H -3.042792 3.735596 2.178095 0
M  V30 38 H -1.559995 4.692530 2.337049 0
M  V30 39 H 1.222126 0.699283 2.279623 0
M  V30 40 H 0.319512 -0.865348 4.037975 0
M  V30 41 H -1.641543 -2.106632 4.950140 0
M  V30 42 H -3.647648 -2.399753 3.589338 0
M  V30 43 H -1.850304 -0.288215 0.442268 0
M  V30 END ATOM
M  V30 BEGIN BOND
M  V30 1 1 1 2
M  V30 2 1 2 3
M  V30 3 1 3 4
M  V30 4 2 4 5
M  V30 5 1 5 6
M  V30 6 1 6 7
M  V30 7 2 6 8
M  V30 8 1 8 9
M  V30 9 2 9 10
M  V30 10 1 9 11
M  V30 11 2 11 12
M  V30 12 1 12 13
M  V30 13 1 12 14
M  V30 14 2 14 15
M  V30 15 1 15 16
M  V30 16 1 15 17
M  V30 17 1 17 18
M  V30 18 1 14 19
M  V30 19 1 19 20
M  V30 20 2 20 21
M  V30 21 1 21 22
M  V30 22 2 22 23
M  V30 23 1 23 24
M  V30 24 2 24 25
M  V30 25 1 10 4
M  V30 26 1 25 20
M  V30 27 1 19 8
M  V30 28 1 1 26
M  V30 29 1 1 27
M  V30 30 1 1 28
M  V30 31 1 2 29
M  V30 32 1 2 30
M  V30 33 1 7 31
M  V30 34 1 13 32
M  V30 35 1 13 33
M  V30 36 1 13 34
M  V30 37 1 16 35
M  V30 38 1 18 36
M  V30 39 1 18 37
M  V30 40 1 18 38
M  V30 41 1 19 39
M  V30 42 1 21 40
M  V30 43 1 22 41
M  V30 44 1 23 42
M  V30 45 1 25 43
M  V30 END BOND
M  V30 END CTAB
M  END
>  <Dataset>  (738) 
ChEMBL_Kinases

>  <Ligand_Instance>  (738) 
nan

>  <PDB_ID>  (738) 
nan

>  <Standardized_SMILES>  (738) 
CCSc1nc(O)c2c(n1)N=C(C)/C(=C(/O)OC)C2c1cccnc1

>  <Name>  (738) 
nan

>  <Pocket>  (738) 
nan

>  <ATP_Site>  (738) 
nan

>  <Peripheral>  (738) 
nan

>  <Num_H_Atoms_ProtBoundConf>  (738) 
nan

>  <Num_Resolved_Atoms>  (738) 
nan

>  <Num_Not_Resolved_Atoms>  (738) 
nan

$$$$
CHEMBL3212575
     RDKit          3D

  0  0  0  0  0  0  0  0  0  0999 V3000
M  V30 BEGIN CTAB
M  V30 COUNTS 40 42 0 0 0
M  V30 BEGIN ATOM
M  V30 1 C -1.680701 -2.199026 1.208190 0
M  V30 2 O -0.671657 -1.260519 1.213269 0
M  V30 3 C -0.270078 -0.645190 0.056537 0
M  V30 4 N 0.510137 -1.625687 -0.201498 0
M  V30 5 C 0.630182 -2.741247 0.643881 0
M  V30 6 C 0.476883 -4.095072 0.048126 0
M  V30 7 C 1.450480 -5.034150 0.756322 0
M  V30 8 C 2.549897 -4.125414 1.236284 0
M  V30 9 C 2.207613 -2.818016 0.570026 0
M  V30 10 C -0.268372 0.455032 -0.947682 0
M  V30 11 O 0.582222 0.169788 -1.975024 0
M  V30 12 C 0.060885 1.745452 -0.291099 0
M  V30 13 C 1.036646 2.606066 -0.804795 0
M  V30 14 N 1.199665 3.706967 -0.055978 0
M  V30 15 C 0.339248 3.609084 0.972569 0
M  V30 16 C 0.033341 4.407537 2.055575 0
M  V30 17 C -0.937919 4.036679 2.978994 0
M  V30 18 C -1.613077 2.834054 2.802769 0
M  V30 19 C -1.314605 2.029254 1.724151 0
M  V30 20 C -0.346824 2.421582 0.825197 0
M  V30 21 H -1.797805 -2.801464 2.126679 0
M  V30 22 H -1.989004 -2.683890 0.290905 0
M  V30 23 H -2.594802 -1.524691 1.367684 0
M  V30 24 H 0.631157 -2.669020 1.723170 0
M  V30 25 H -0.489124 -4.578247 0.106997 0
M  V30 26 H 0.788697 -4.032500 -1.003857 0
M  V30 27 H 1.828878 -5.789290 0.041549 0
M  V30 28 H 0.943456 -5.570458 1.597270 0
M  V30 29 H 2.514658 -4.087491 2.327835 0
M  V30 30 H 3.515512 -4.479959 0.820201 0
M  V30 31 H 2.525700 -2.898251 -0.474574 0
M  V30 32 H 2.650572 -1.934133 1.021655 0
M  V30 33 H -1.309276 0.590687 -1.365080 0
M  V30 34 H 0.287236 0.460605 -2.861983 0
M  V30 35 H 1.625340 2.434069 -1.717494 0
M  V30 36 H 1.869983 4.482057 -0.247972 0
M  V30 37 H 0.578120 5.352332 2.175324 0
M  V30 38 H -1.127737 4.712813 3.807680 0
M  V30 39 H -2.360195 2.581598 3.540931 0
M  V30 40 H -1.861855 1.109617 1.613091 0
M  V30 END ATOM
M  V30 BEGIN BOND
M  V30 1 1 1 2
M  V30 2 1 2 3
M  V30 3 2 3 4
M  V30 4 1 4 5
M  V30 5 1 5 6
M  V30 6 1 6 7
M  V30 7 1 7 8
M  V30 8 1 8 9
M  V30 9 1 3 10
M  V30 10 1 10 11
M  V30 11 1 10 12
M  V30 12 2 12 13
M  V30 13 1 13 14
M  V30 14 1 14 15
M  V30 15 2 15 16
M  V30 16 1 16 17
M  V30 17 2 17 18
M  V30 18 1 18 19
M  V30 19 2 19 20
M  V30 20 1 9 5
M  V30 21 1 20 12
M  V30 22 1 20 15
M  V30 23 1 1 21
M  V30 24 1 1 22
M  V30 25 1 1 23
M  V30 26 1 5 24
M  V30 27 1 6 25
M  V30 28 1 6 26
M  V30 29 1 7 27
M  V30 30 1 7 28
M  V30 31 1 8 29
M  V30 32 1 8 30
M  V30 33 1 9 31
M  V30 34 1 9 32
M  V30 35 1 10 33
M  V30 36 1 11 34
M  V30 37 1 13 35
M  V30 38 1 14 36
M  V30 39 1 16 37
M  V30 40 1 17 38
M  V30 41 1 18 39
M  V30 42 1 19 40
M  V30 END BOND
M  V30 END CTAB
M  END
>  <Dataset>  (739) 
ChEMBL_Kinases

>  <Ligand_Instance>  (739) 
nan

>  <PDB_ID>  (739) 
nan

>  <Standardized_SMILES>  (739) 
CO/C(=N\C1CCCC1)C(O)c1c[nH]c2ccccc12

>  <Name>  (739) 
nan

>  <Pocket>  (739) 
nan

>  <ATP_Site>  (739) 
nan

>  <Peripheral>  (739) 
nan

>  <Num_H_Atoms_ProtBoundConf>  (739) 
nan

>  <Num_Resolved_Atoms>  (739) 
nan

>  <Num_Not_Resolved_Atoms>  (739) 
nan

$$$$
CHEMBL3211443
     RDKit          3D

  0  0  0  0  0  0  0  0  0  0999 V3000
M  V30 BEGIN CTAB
M  V30 COUNTS 39 41 0 0 0
M  V30 BEGIN ATOM
M  V30 1 C -0.885620 -5.949320 4.787746 0
M  V30 2 O -0.173260 -4.763570 5.083386 0
M  V30 3 C 0.403155 -3.983060 4.090883 0
M  V30 4 C 0.359723 -4.249041 2.739711 0
M  V30 5 C 0.960868 -3.420043 1.807953 0
M  V30 6 C 1.606775 -2.310350 2.313914 0
M  V30 7 N 2.214855 -1.482543 1.297004 0
M  V30 8 C 1.519490 -0.567499 0.691069 0
M  V30 9 S -0.153413 -0.546968 1.305395 0
M  V30 10 C -1.026213 0.695567 0.333043 0
M  V30 11 C -0.040743 1.303004 -0.596489 0
M  V30 12 C -0.651491 2.367559 -1.424449 0
M  V30 13 C 0.036403 3.112844 -2.386390 0
M  V30 14 C -0.481128 4.104469 -3.175187 0
M  V30 15 C -1.815955 4.395659 -3.001391 0
M  V30 16 C -2.605575 3.734968 -2.087009 0
M  V30 17 C -1.983272 2.758381 -1.348775 0
M  V30 18 N 1.188430 1.167884 -0.886022 0
M  V30 19 N 2.072209 0.268639 -0.312772 0
M  V30 20 C 3.473936 0.119898 -0.648048 0
M  V30 21 C 1.674039 -2.006930 3.659644 0
M  V30 22 C 1.061248 -2.854975 4.588900 0
M  V30 23 H -1.432716 -5.885416 3.836587 0
M  V30 24 H -1.672572 -6.112440 5.569044 0
M  V30 25 H -0.136951 -6.788049 4.808431 0
M  V30 26 H -0.166246 -5.138926 2.422273 0
M  V30 27 H 0.909438 -3.653772 0.767143 0
M  V30 28 H -1.844416 0.197693 -0.252065 0
M  V30 29 H -1.424929 1.463038 1.025196 0
M  V30 30 H 1.099471 2.883767 -2.527554 0
M  V30 31 H 0.149629 4.615231 -3.889040 0
M  V30 32 H -2.243318 5.174750 -3.614019 0
M  V30 33 H -3.651320 3.950594 -1.938671 0
M  V30 34 H -2.610606 2.235304 -0.624095 0
M  V30 35 H 3.728588 -0.918142 -0.991017 0
M  V30 36 H 3.711464 0.784367 -1.510765 0
M  V30 37 H 4.073265 0.349084 0.252891 0
M  V30 38 H 2.211253 -1.102157 3.955349 0
M  V30 39 H 1.132469 -2.590305 5.624305 0
M  V30 END ATOM
M  V30 BEGIN BOND
M  V30 1 1 1 2
M  V30 2 1 2 3
M  V30 3 2 3 4
M  V30 4 1 4 5
M  V30 5 2 5 6
M  V30 6 1 6 7
M  V30 7 2 7 8
M  V30 8 1 8 9
M  V30 9 1 9 10
M  V30 10 1 10 11
M  V30 11 1 11 12
M  V30 12 2 12 13
M  V30 13 1 13 14
M  V30 14 2 14 15
M  V30 15 1 15 16
M  V30 16 2 16 17
M  V30 17 2 11 18
M  V30 18 1 18 19
M  V30 19 1 19 20
M  V30 20 1 6 21
M  V30 21 2 21 22
M  V30 22 1 22 3
M  V30 23 1 19 8
M  V30 24 1 17 12
M  V30 25 1 1 23
M  V30 26 1 1 24
M  V30 27 1 1 25
M  V30 28 1 4 26
M  V30 29 1 5 27
M  V30 30 1 10 28
M  V30 31 1 10 29
M  V30 32 1 13 30
M  V30 33 1 14 31
M  V30 34 1 15 32
M  V30 35 1 16 33
M  V30 36 1 17 34
M  V30 37 1 20 35
M  V30 38 1 20 36
M  V30 39 1 20 37
M  V30 40 1 21 38
M  V30 41 1 22 39
M  V30 END BOND
M  V30 END CTAB
M  END
>  <Dataset>  (740) 
ChEMBL_Kinases

>  <Ligand_Instance>  (740) 
nan

>  <PDB_ID>  (740) 
nan

>  <Standardized_SMILES>  (740) 
COc1ccc(/N=C2\SCC(c3ccccc3)=NN2C)cc1

>  <Name>  (740) 
nan

>  <Pocket>  (740) 
nan

>  <ATP_Site>  (740) 
nan

>  <Peripheral>  (740) 
nan

>  <Num_H_Atoms_ProtBoundConf>  (740) 
nan

>  <Num_Resolved_Atoms>  (740) 
nan

>  <Num_Not_Resolved_Atoms>  (740) 
nan

$$$$
CHEMBL3195180
     RDKit          3D

  0  0  0  0  0  0  0  0  0  0999 V3000
M  V30 BEGIN CTAB
M  V30 COUNTS 24 25 0 0 0
M  V30 BEGIN ATOM
M  V30 1 N 0.496225 -0.581571 4.941023 0
M  V30 2 C 0.528779 -0.574163 3.773299 0
M  V30 3 C 0.586668 -0.577691 2.335569 0
M  V30 4 C 0.796460 -1.738552 1.730000 0
M  V30 5 O 0.955070 -2.894146 2.484491 0
M  V30 6 C 0.867249 -1.838630 0.282090 0
M  V30 7 C 0.222865 -2.891726 -0.379020 0
M  V30 8 C 0.473301 -2.715155 -1.703683 0
M  V30 9 C 1.251968 -1.579841 -1.850935 0
M  V30 10 O 1.445169 -1.115843 -0.644589 0
M  V30 11 C 0.427582 0.724472 1.721232 0
M  V30 12 C -0.566338 1.628307 2.096611 0
M  V30 13 C -0.593221 2.851787 1.456274 0
M  V30 14 C 0.329513 3.183909 0.473786 0
M  V30 15 C 1.293995 2.260616 0.133818 0
M  V30 16 N 1.324550 1.071714 0.751247 0
M  V30 17 H 1.880049 -3.207889 2.786265 0
M  V30 18 H -0.373917 -3.723805 -0.005422 0
M  V30 19 H 0.201297 -3.248997 -2.607825 0
M  V30 20 H 1.708921 -1.014868 -2.640126 0
M  V30 21 H -1.258191 1.295132 2.873199 0
M  V30 22 H -1.392038 3.535890 1.778392 0
M  V30 23 H 0.270081 4.161833 0.002750 0
M  V30 24 H 1.976102 2.580963 -0.634437 0
M  V30 END ATOM
M  V30 BEGIN BOND
M  V30 1 3 1 2
M  V30 2 1 2 3
M  V30 3 2 3 4
M  V30 4 1 4 5
M  V30 5 1 4 6
M  V30 6 2 6 7
M  V30 7 1 7 8
M  V30 8 2 8 9
M  V30 9 1 9 10
M  V30 10 1 3 11
M  V30 11 2 11 12
M  V30 12 1 12 13
M  V30 13 2 13 14
M  V30 14 1 14 15
M  V30 15 2 15 16
M  V30 16 1 10 6
M  V30 17 1 16 11
M  V30 18 1 5 17
M  V30 19 1 7 18
M  V30 20 1 8 19
M  V30 21 1 9 20
M  V30 22 1 12 21
M  V30 23 1 13 22
M  V30 24 1 14 23
M  V30 25 1 15 24
M  V30 END BOND
M  V30 END CTAB
M  END
>  <Dataset>  (741) 
ChEMBL_Kinases

>  <Ligand_Instance>  (741) 
nan

>  <PDB_ID>  (741) 
nan

>  <Standardized_SMILES>  (741) 
N#C/C(=C(\O)c1ccco1)c1ccccn1

>  <Name>  (741) 
nan

>  <Pocket>  (741) 
nan

>  <ATP_Site>  (741) 
nan

>  <Peripheral>  (741) 
nan

>  <Num_H_Atoms_ProtBoundConf>  (741) 
nan

>  <Num_Resolved_Atoms>  (741) 
nan

>  <Num_Not_Resolved_Atoms>  (741) 
nan

$$$$
CHEMBL3194854
     RDKit          3D

  0  0  0  0  0  0  0  0  0  0999 V3000
M  V30 BEGIN CTAB
M  V30 COUNTS 32 34 0 0 0
M  V30 BEGIN ATOM
M  V30 1 C -2.840650 -3.624973 3.126681 0
M  V30 2 C -1.575817 -3.641589 2.350984 0
M  V30 3 C -0.967970 -4.880301 2.178332 0
M  V30 4 C 0.208603 -4.977042 1.469103 0
M  V30 5 C 0.774135 -3.823211 0.932816 0
M  V30 6 C 0.157924 -2.579102 1.109776 0
M  V30 7 N 0.582730 -1.328003 0.645318 0
M  V30 8 C 0.658286 -0.901579 -0.544753 0
M  V30 9 C 1.168354 0.479455 -0.450666 0
M  V30 10 C 2.540170 0.690786 -0.520358 0
M  V30 11 O 3.593950 -0.177235 -0.670374 0
M  V30 12 N 2.735254 2.036485 -0.407321 0
M  V30 13 C 1.519248 2.641183 -0.271607 0
M  V30 14 C 1.123590 3.977841 -0.120523 0
M  V30 15 C -0.226627 4.236869 -0.007442 0
M  V30 16 C -1.198421 3.259634 -0.035266 0
M  V30 17 C -0.828803 1.938272 -0.183411 0
M  V30 18 C 0.512479 1.683173 -0.295418 0
M  V30 19 N -0.988344 -2.560095 1.812739 0
M  V30 20 H -3.028324 -2.628161 3.560225 0
M  V30 21 H -3.669319 -3.830270 2.410374 0
M  V30 22 H -2.799058 -4.380694 3.930176 0
M  V30 23 H -1.327350 -5.847347 2.557176 0
M  V30 24 H 0.748984 -5.912775 1.289098 0
M  V30 25 H 1.700548 -3.774710 0.353939 0
M  V30 26 H 0.353122 -1.595391 -1.315248 0
M  V30 27 H 3.501756 -1.146157 -0.940189 0
M  V30 28 H 3.629020 2.582742 -0.414717 0
M  V30 29 H 1.921236 4.706760 -0.104761 0
M  V30 30 H -0.493577 5.299438 0.110365 0
M  V30 31 H -2.234744 3.572784 0.061573 0
M  V30 32 H -1.552499 1.158917 -0.209246 0
M  V30 END ATOM
M  V30 BEGIN BOND
M  V30 1 1 1 2
M  V30 2 2 2 3
M  V30 3 1 3 4
M  V30 4 2 4 5
M  V30 5 1 5 6
M  V30 6 1 6 7
M  V30 7 2 7 8
M  V30 8 1 8 9
M  V30 9 2 9 10
M  V30 10 1 10 11
M  V30 11 1 10 12
M  V30 12 1 12 13
M  V30 13 2 13 14
M  V30 14 1 14 15
M  V30 15 2 15 16
M  V30 16 1 16 17
M  V30 17 2 17 18
M  V30 18 2 6 19
M  V30 19 1 19 2
M  V30 20 1 18 9
M  V30 21 1 18 13
M  V30 22 1 1 20
M  V30 23 1 1 21
M  V30 24 1 1 22
M  V30 25 1 3 23
M  V30 26 1 4 24
M  V30 27 1 5 25
M  V30 28 1 8 26
M  V30 29 1 11 27
M  V30 30 1 12 28
M  V30 31 1 14 29
M  V30 32 1 15 30
M  V30 33 1 16 31
M  V30 34 1 17 32
M  V30 END BOND
M  V30 END CTAB
M  END
>  <Dataset>  (742) 
ChEMBL_Kinases

>  <Ligand_Instance>  (742) 
nan

>  <PDB_ID>  (742) 
nan

>  <Standardized_SMILES>  (742) 
Cc1cccc(/N=C/c2c(O)[nH]c3ccccc23)n1

>  <Name>  (742) 
nan

>  <Pocket>  (742) 
nan

>  <ATP_Site>  (742) 
nan

>  <Peripheral>  (742) 
nan

>  <Num_H_Atoms_ProtBoundConf>  (742) 
nan

>  <Num_Resolved_Atoms>  (742) 
nan

>  <Num_Not_Resolved_Atoms>  (742) 
nan

$$$$
CHEMBL3194767
     RDKit          3D

  0  0  0  0  0  0  0  0  0  0999 V3000
M  V30 BEGIN CTAB
M  V30 COUNTS 33 34 0 0 0
M  V30 BEGIN ATOM
M  V30 1 C 2.629332 -1.449314 4.609308 0
M  V30 2 O 2.329463 -1.051150 3.299278 0
M  V30 3 C 1.326288 -1.719103 2.583758 0
M  V30 4 C 0.649833 -2.758657 3.180681 0
M  V30 5 C -0.337153 -3.471199 2.578210 0
M  V30 6 C -0.682406 -3.130731 1.286849 0
M  V30 7 C 0.003357 -2.091785 0.708904 0
M  V30 8 C 0.996030 -1.369093 1.303900 0
M  V30 9 C 1.749820 -0.265215 0.745311 0
M  V30 10 N 1.742713 0.345980 -0.381767 0
M  V30 11 N 0.838566 -0.075994 -1.355411 0
M  V30 12 C -0.335895 0.756610 -1.413359 0
M  V30 13 C -0.509216 1.837145 -0.579344 0
M  V30 14 C -1.642793 2.645990 -0.631201 0
M  V30 15 C -2.636529 2.363260 -1.549422 0
M  V30 16 C -2.494698 1.292221 -2.396219 0
M  V30 17 C -1.355321 0.528221 -2.301048 0
M  V30 18 N -1.297581 -0.555341 -3.217173 0 CHG=1 VAL=4
M  V30 19 O -2.295216 -1.125892 -3.687023 0
M  V30 20 O -0.387301 -1.328099 -3.881379 0 CHG=-1 VAL=1
M  V30 21 H 3.342337 -0.723481 5.066101 0
M  V30 22 H 3.070356 -2.456031 4.629572 0
M  V30 23 H 1.724279 -1.439332 5.239662 0
M  V30 24 H 0.936053 -3.009121 4.193167 0
M  V30 25 H -0.822657 -4.272713 3.108045 0
M  V30 26 H -1.459930 -3.665374 0.763286 0
M  V30 27 H -0.292522 -1.857525 -0.293096 0
M  V30 28 H 2.526166 0.245430 1.311891 0
M  V30 29 H 0.931630 -0.878273 -2.011628 0
M  V30 30 H 0.240419 2.095042 0.152551 0
M  V30 31 H -1.753079 3.484953 0.032619 0
M  V30 32 H -3.499512 3.008849 -1.562707 0
M  V30 33 H -3.293856 1.107651 -3.097209 0
M  V30 END ATOM
M  V30 BEGIN BOND
M  V30 1 1 1 2
M  V30 2 1 2 3
M  V30 3 2 3 4
M  V30 4 1 4 5
M  V30 5 2 5 6
M  V30 6 1 6 7
M  V30 7 2 7 8
M  V30 8 1 8 9
M  V30 9 2 9 10
M  V30 10 1 10 11
M  V30 11 1 11 12
M  V30 12 2 12 13
M  V30 13 1 13 14
M  V30 14 2 14 15
M  V30 15 1 15 16
M  V30 16 2 16 17
M  V30 17 1 17 18
M  V30 18 2 18 19
M  V30 19 1 18 20
M  V30 20 1 8 3
M  V30 21 1 17 12
M  V30 22 1 1 21
M  V30 23 1 1 22
M  V30 24 1 1 23
M  V30 25 1 4 24
M  V30 26 1 5 25
M  V30 27 1 6 26
M  V30 28 1 7 27
M  V30 29 1 9 28
M  V30 30 1 11 29
M  V30 31 1 13 30
M  V30 32 1 14 31
M  V30 33 1 15 32
M  V30 34 1 16 33
M  V30 END BOND
M  V30 END CTAB
M  END
>  <Dataset>  (743) 
ChEMBL_Kinases

>  <Ligand_Instance>  (743) 
nan

>  <PDB_ID>  (743) 
nan

>  <Standardized_SMILES>  (743) 
COc1ccccc1/C=N\Nc1ccccc1[N+](=O)[O-]

>  <Name>  (743) 
nan

>  <Pocket>  (743) 
nan

>  <ATP_Site>  (743) 
nan

>  <Peripheral>  (743) 
nan

>  <Num_H_Atoms_ProtBoundConf>  (743) 
nan

>  <Num_Resolved_Atoms>  (743) 
nan

>  <Num_Not_Resolved_Atoms>  (743) 
nan

$$$$
CHEMBL3194670
     RDKit          3D

  0  0  0  0  0  0  0  0  0  0999 V3000
M  V30 BEGIN CTAB
M  V30 COUNTS 52 54 0 0 0
M  V30 BEGIN ATOM
M  V30 1 C -0.283761 -8.207012 2.080285 0
M  V30 2 S -0.018255 -6.684932 3.028242 0
M  V30 3 C 0.164474 -5.308870 1.917868 0
M  V30 4 C 1.407217 -4.918095 1.419468 0
M  V30 5 C 1.549599 -3.842882 0.551214 0
M  V30 6 C 0.464326 -3.121391 0.150089 0
M  V30 7 C 0.505253 -1.976309 -0.758076 0
M  V30 8 N -0.520232 -1.310892 -1.123238 0
M  V30 9 N -0.417217 -0.204387 -2.009992 0
M  V30 10 C 0.776009 0.523408 -2.480077 0
M  V30 11 C 0.693946 1.856105 -1.795130 0
M  V30 12 N -0.597289 2.242744 -1.395597 0
M  V30 13 C -0.682080 3.107672 -0.293706 0
M  V30 14 C -0.094416 2.568347 0.960348 0
M  V30 15 C 1.165501 2.982892 1.413071 0
M  V30 16 C 1.787739 2.537708 2.546326 0
M  V30 17 C 1.120574 1.604943 3.304700 0
M  V30 18 C 1.735939 1.064360 4.562794 0
M  V30 19 C -0.108347 1.154817 2.927607 0
M  V30 20 C -0.701568 1.642227 1.758983 0
M  V30 21 C -2.015549 1.125499 1.415477 0
M  V30 22 C -1.727304 1.746128 -2.012857 0
M  V30 23 C -1.627689 0.364054 -2.591645 0
M  V30 24 C -0.750779 -3.552124 0.675858 0
M  V30 25 C -0.957764 -4.594016 1.527672 0
M  V30 26 H -0.334766 -9.076197 2.784811 0
M  V30 27 H 0.587739 -8.406541 1.413108 0
M  V30 28 H -1.199407 -8.120949 1.458290 0
M  V30 29 H 2.312076 -5.469788 1.714063 0
M  V30 30 H 2.514608 -3.535396 0.160613 0
M  V30 31 H 1.494467 -1.722253 -1.112601 0
M  V30 32 H 0.698611 0.674450 -3.583368 0
M  V30 33 H 1.671963 -0.045461 -2.248978 0
M  V30 34 H 1.105509 2.624057 -2.496711 0
M  V30 35 H 1.373423 1.825883 -0.916964 0
M  V30 36 H -1.707099 3.518409 -0.167567 0
M  V30 37 H -0.077460 4.005733 -0.548942 0
M  V30 38 H 1.682692 3.729721 0.792541 0
M  V30 39 H 2.754726 2.905417 2.824438 0
M  V30 40 H 2.838292 1.129045 4.550018 0
M  V30 41 H 1.354083 1.619901 5.440853 0
M  V30 42 H 1.484853 -0.021698 4.674822 0
M  V30 43 H -0.640145 0.408964 3.536517 0
M  V30 44 H -2.475768 0.511893 2.241546 0
M  V30 45 H -2.762662 1.873538 1.116586 0
M  V30 46 H -1.916978 0.434611 0.554438 0
M  V30 47 H -2.031697 2.412943 -2.871937 0
M  V30 48 H -2.613701 1.756519 -1.346349 0
M  V30 49 H -2.482445 -0.275098 -2.300030 0
M  V30 50 H -1.539573 0.373346 -3.708413 0
M  V30 51 H -1.641882 -2.987502 0.368748 0
M  V30 52 H -1.953449 -4.840086 1.874474 0
M  V30 END ATOM
M  V30 BEGIN BOND
M  V30 1 1 1 2
M  V30 2 1 2 3
M  V30 3 2 3 4
M  V30 4 1 4 5
M  V30 5 2 5 6
M  V30 6 1 6 7
M  V30 7 2 7 8
M  V30 8 1 8 9
M  V30 9 1 9 10
M  V30 10 1 10 11
M  V30 11 1 11 12
M  V30 12 1 12 13
M  V30 13 1 13 14
M  V30 14 2 14 15
M  V30 15 1 15 16
M  V30 16 2 16 17
M  V30 17 1 17 18
M  V30 18 1 17 19
M  V30 19 2 19 20
M  V30 20 1 20 21
M  V30 21 1 12 22
M  V30 22 1 22 23
M  V30 23 1 6 24
M  V30 24 2 24 25
M  V30 25 1 25 3
M  V30 26 1 23 9
M  V30 27 1 20 14
M  V30 28 1 1 26
M  V30 29 1 1 27
M  V30 30 1 1 28
M  V30 31 1 4 29
M  V30 32 1 5 30
M  V30 33 1 7 31
M  V30 34 1 10 32
M  V30 35 1 10 33
M  V30 36 1 11 34
M  V30 37 1 11 35
M  V30 38 1 13 36
M  V30 39 1 13 37
M  V30 40 1 15 38
M  V30 41 1 16 39
M  V30 42 1 18 40
M  V30 43 1 18 41
M  V30 44 1 18 42
M  V30 45 1 19 43
M  V30 46 1 21 44
M  V30 47 1 21 45
M  V30 48 1 21 46
M  V30 49 1 22 47
M  V30 50 1 22 48
M  V30 51 1 23 49
M  V30 52 1 23 50
M  V30 53 1 24 51
M  V30 54 1 25 52
M  V30 END BOND
M  V30 END CTAB
M  END
>  <Dataset>  (744) 
ChEMBL_Kinases

>  <Ligand_Instance>  (744) 
nan

>  <PDB_ID>  (744) 
nan

>  <Standardized_SMILES>  (744) 
CSc1ccc(/C=N/N2CCN(Cc3ccc(C)cc3C)CC2)cc1

>  <Name>  (744) 
nan

>  <Pocket>  (744) 
nan

>  <ATP_Site>  (744) 
nan

>  <Peripheral>  (744) 
nan

>  <Num_H_Atoms_ProtBoundConf>  (744) 
nan

>  <Num_Resolved_Atoms>  (744) 
nan

>  <Num_Not_Resolved_Atoms>  (744) 
nan

$$$$
CHEMBL3194605
     RDKit          3D

  0  0  0  0  0  0  0  0  0  0999 V3000
M  V30 BEGIN CTAB
M  V30 COUNTS 37 38 0 0 0
M  V30 BEGIN ATOM
M  V30 1 C -2.147697 -4.812290 2.238558 0
M  V30 2 C -0.662650 -4.781162 2.055190 0
M  V30 3 O -0.219329 -3.426565 2.198169 0
M  V30 4 C 1.162317 -3.245072 2.020696 0
M  V30 5 O 1.978119 -4.138083 2.698012 0
M  V30 6 C 1.590456 -2.261237 1.240405 0
M  V30 7 C 3.018806 -2.134992 1.104827 0
M  V30 8 N 4.165718 -2.016667 1.002959 0
M  V30 9 C 0.684340 -1.348138 0.550462 0
M  V30 10 C -0.538305 -1.643838 -0.016824 0
M  V30 11 C -1.270048 -0.640856 -0.636179 0
M  V30 12 C -2.583714 -1.017575 -1.232042 0
M  V30 13 N -0.765599 0.607809 -0.669422 0
M  V30 14 C 0.426454 0.919527 -0.121933 0
M  V30 15 C 0.914278 2.293887 -0.191577 0
M  V30 16 C 0.109203 3.204970 -0.820567 0
M  V30 17 C 0.529726 4.536397 -0.914419 0
M  V30 18 C 1.749263 4.881844 -0.364874 0
M  V30 19 C 2.532952 3.933775 0.261560 0
M  V30 20 C 2.144628 2.604033 0.371734 0
M  V30 21 O 2.905988 1.625485 0.994371 0
M  V30 22 N 1.136747 -0.065106 0.481887 0
M  V30 23 H -2.375925 -5.506070 3.089565 0
M  V30 24 H -2.531309 -3.817143 2.535635 0
M  V30 25 H -2.703920 -5.119308 1.328602 0
M  V30 26 H -0.139386 -5.477446 2.739815 0
M  V30 27 H -0.356923 -5.105945 1.026738 0
M  V30 28 H 2.889361 -3.823703 3.047683 0
M  V30 29 H -0.839836 -2.677947 0.070962 0
M  V30 30 H -3.163903 -1.669472 -0.561377 0
M  V30 31 H -3.129810 -0.073601 -1.469679 0
M  V30 32 H -2.417937 -1.541458 -2.197261 0
M  V30 33 H -0.842438 3.002675 -1.265279 0
M  V30 34 H -0.004860 5.346803 -1.379685 0
M  V30 35 H 2.124179 5.903621 -0.410301 0
M  V30 36 H 3.504114 4.214842 0.696914 0
M  V30 37 H 2.724585 1.311584 1.939645 0
M  V30 END ATOM
M  V30 BEGIN BOND
M  V30 1 1 1 2
M  V30 2 1 2 3
M  V30 3 1 3 4
M  V30 4 1 4 5
M  V30 5 2 4 6
M  V30 6 1 6 7
M  V30 7 3 7 8
M  V30 8 1 6 9
M  V30 9 2 9 10
M  V30 10 1 10 11
M  V30 11 1 11 12
M  V30 12 2 11 13
M  V30 13 1 13 14
M  V30 14 1 14 15
M  V30 15 2 15 16
M  V30 16 1 16 17
M  V30 17 2 17 18
M  V30 18 1 18 19
M  V30 19 2 19 20
M  V30 20 1 20 21
M  V30 21 2 14 22
M  V30 22 1 22 9
M  V30 23 1 20 15
M  V30 24 1 1 23
M  V30 25 1 1 24
M  V30 26 1 1 25
M  V30 27 1 2 26
M  V30 28 1 2 27
M  V30 29 1 5 28
M  V30 30 1 10 29
M  V30 31 1 12 30
M  V30 32 1 12 31
M  V30 33 1 12 32
M  V30 34 1 16 33
M  V30 35 1 17 34
M  V30 36 1 18 35
M  V30 37 1 19 36
M  V30 38 1 21 37
M  V30 END BOND
M  V30 END CTAB
M  END
>  <Dataset>  (745) 
ChEMBL_Kinases

>  <Ligand_Instance>  (745) 
nan

>  <PDB_ID>  (745) 
nan

>  <Standardized_SMILES>  (745) 
CCO/C(O)=C(/C#N)c1cc(C)nc(-c2ccccc2O)n1

>  <Name>  (745) 
nan

>  <Pocket>  (745) 
nan

>  <ATP_Site>  (745) 
nan

>  <Peripheral>  (745) 
nan

>  <Num_H_Atoms_ProtBoundConf>  (745) 
nan

>  <Num_Resolved_Atoms>  (745) 
nan

>  <Num_Not_Resolved_Atoms>  (745) 
nan

$$$$
CHEMBL3194037
     RDKit          3D

  0  0  0  0  0  0  0  0  0  0999 V3000
M  V30 BEGIN CTAB
M  V30 COUNTS 33 33 0 0 0
M  V30 BEGIN ATOM
M  V30 1 C -0.276427 -1.689890 1.919876 0
M  V30 2 C 0.812141 -2.575526 1.335969 0
M  V30 3 C 1.033316 -3.711032 2.289143 0
M  V30 4 C 0.456761 -3.116188 -0.017261 0
M  V30 5 S 2.256143 -1.555578 1.163943 0
M  V30 6 O 2.686477 -0.985816 2.483754 0
M  V30 7 O 3.342624 -2.380327 0.528577 0
M  V30 8 C 1.841744 -0.225393 0.079464 0
M  V30 9 C 2.075019 -0.439383 -1.336262 0
M  V30 10 N 2.247572 -0.620871 -2.477926 0
M  V30 11 N 1.346363 0.905940 0.510557 0
M  V30 12 N 1.040025 1.924532 -0.426094 0
M  V30 13 C -0.375355 1.860313 -0.253170 0
M  V30 14 C -1.065082 2.626817 0.666890 0
M  V30 15 C -2.439785 2.551644 0.822648 0
M  V30 16 C -3.157284 1.672219 0.024406 0
M  V30 17 Cl -4.914512 1.503107 0.147131 0
M  V30 18 C -2.516186 0.870891 -0.923938 0
M  V30 19 C -1.128545 1.000115 -1.025274 0
M  V30 20 H -0.876228 -2.204006 2.703396 0
M  V30 21 H 0.135164 -0.746841 2.328059 0
M  V30 22 H -0.964213 -1.477535 1.078374 0
M  V30 23 H 1.575039 -4.543251 1.832655 0
M  V30 24 H 1.487072 -3.348771 3.255019 0
M  V30 25 H 0.003358 -4.067937 2.580756 0
M  V30 26 H -0.624491 -3.054095 -0.265721 0
M  V30 27 H 0.734615 -4.185357 -0.130042 0
M  V30 28 H 0.981457 -2.594336 -0.853034 0
M  V30 29 H 1.415371 2.618149 -1.109712 0
M  V30 30 H -0.477015 3.314510 1.286895 0
M  V30 31 H -2.963214 3.157490 1.546614 0
M  V30 32 H -3.067228 0.176428 -1.557054 0
M  V30 33 H -0.683717 0.357906 -1.773530 0
M  V30 END ATOM
M  V30 BEGIN BOND
M  V30 1 1 1 2
M  V30 2 1 2 3
M  V30 3 1 2 4
M  V30 4 1 2 5
M  V30 5 2 5 6
M  V30 6 2 5 7
M  V30 7 1 5 8
M  V30 8 1 8 9
M  V30 9 3 9 10
M  V30 10 2 8 11
M  V30 11 1 11 12
M  V30 12 1 12 13
M  V30 13 2 13 14
M  V30 14 1 14 15
M  V30 15 2 15 16
M  V30 16 1 16 17
M  V30 17 1 16 18
M  V30 18 2 18 19
M  V30 19 1 19 13
M  V30 20 1 1 20
M  V30 21 1 1 21
M  V30 22 1 1 22
M  V30 23 1 3 23
M  V30 24 1 3 24
M  V30 25 1 3 25
M  V30 26 1 4 26
M  V30 27 1 4 27
M  V30 28 1 4 28
M  V30 29 1 12 29
M  V30 30 1 14 30
M  V30 31 1 15 31
M  V30 32 1 18 32
M  V30 33 1 19 33
M  V30 END BOND
M  V30 END CTAB
M  END
>  <Dataset>  (746) 
ChEMBL_Kinases

>  <Ligand_Instance>  (746) 
nan

>  <PDB_ID>  (746) 
nan

>  <Standardized_SMILES>  (746) 
CC(C)(C)S(=O)(=O)/C(C#N)=N/Nc1ccc(Cl)cc1

>  <Name>  (746) 
nan

>  <Pocket>  (746) 
nan

>  <ATP_Site>  (746) 
nan

>  <Peripheral>  (746) 
nan

>  <Num_H_Atoms_ProtBoundConf>  (746) 
nan

>  <Num_Resolved_Atoms>  (746) 
nan

>  <Num_Not_Resolved_Atoms>  (746) 
nan

$$$$
CHEMBL3193923
     RDKit          3D

  0  0  0  0  0  0  0  0  0  0999 V3000
M  V30 BEGIN CTAB
M  V30 COUNTS 39 40 0 0 0
M  V30 BEGIN ATOM
M  V30 1 C 2.766751 -6.404264 1.292971 0
M  V30 2 C 3.166763 -5.997149 -0.103530 0
M  V30 3 O 2.716118 -4.676452 -0.324280 0
M  V30 4 C 3.130776 -3.632239 0.455901 0
M  V30 5 O 3.934054 -3.835630 1.400895 0
M  V30 6 C 2.639985 -2.286240 0.189186 0
M  V30 7 C 1.772895 -2.032672 -0.834290 0
M  V30 8 C 1.299530 -0.766121 -1.097794 0
M  V30 9 C 1.724580 0.290318 -0.286996 0
M  V30 10 N 1.136590 1.533461 -0.702737 0
M  V30 11 N -0.092703 1.753875 -0.074274 0
M  V30 12 C -0.365122 2.707327 0.727844 0
M  V30 13 C -1.685733 2.896943 1.368365 0
M  V30 14 C -1.783981 3.988723 2.205340 0
M  V30 15 C -3.035945 4.134929 2.790333 0
M  V30 16 Br -3.319651 5.610389 3.979499 0
M  V30 17 C -4.075920 3.236881 2.529672 0
M  V30 18 C -3.868297 2.170786 1.669762 0
M  V30 19 N -4.916198 1.239861 1.388134 0 CHG=1 VAL=4
M  V30 20 O -6.101703 1.624016 1.470991 0
M  V30 21 O -4.720445 -0.072683 1.025338 0 CHG=-1 VAL=1
M  V30 22 C -2.635478 1.964670 1.048225 0
M  V30 23 O -2.374711 0.916650 0.180967 0
M  V30 24 C 2.609956 0.049867 0.763062 0
M  V30 25 C 3.037324 -1.231585 0.964807 0
M  V30 26 H 3.655637 -6.748898 1.885411 0
M  V30 27 H 2.021652 -7.245393 1.258643 0
M  V30 28 H 2.362123 -5.528082 1.828126 0
M  V30 29 H 2.759806 -6.689722 -0.870779 0
M  V30 30 H 4.279840 -6.026181 -0.154044 0
M  V30 31 H 1.452120 -2.879634 -1.458833 0
M  V30 32 H 0.617972 -0.680578 -1.932204 0
M  V30 33 H 1.792403 1.966312 -1.383982 0
M  V30 34 H 0.489240 3.367131 0.886547 0
M  V30 35 H -0.955616 4.647576 2.371735 0
M  V30 36 H -5.049961 3.374321 3.002207 0
M  V30 37 H -2.382564 1.031922 -0.821800 0
M  V30 38 H 2.855753 0.949650 1.307482 0
M  V30 39 H 3.729123 -1.362890 1.800211 0
M  V30 END ATOM
M  V30 BEGIN BOND
M  V30 1 1 1 2
M  V30 2 1 2 3
M  V30 3 1 3 4
M  V30 4 2 4 5
M  V30 5 1 4 6
M  V30 6 2 6 7
M  V30 7 1 7 8
M  V30 8 2 8 9
M  V30 9 1 9 10
M  V30 10 1 10 11
M  V30 11 2 11 12
M  V30 12 1 12 13
M  V30 13 2 13 14
M  V30 14 1 14 15
M  V30 15 1 15 16
M  V30 16 2 15 17
M  V30 17 1 17 18
M  V30 18 1 18 19
M  V30 19 2 19 20
M  V30 20 1 19 21
M  V30 21 2 18 22
M  V30 22 1 22 23
M  V30 23 1 9 24
M  V30 24 2 24 25
M  V30 25 1 25 6
M  V30 26 1 22 13
M  V30 27 1 1 26
M  V30 28 1 1 27
M  V30 29 1 1 28
M  V30 30 1 2 29
M  V30 31 1 2 30
M  V30 32 1 7 31
M  V30 33 1 8 32
M  V30 34 1 10 33
M  V30 35 1 12 34
M  V30 36 1 14 35
M  V30 37 1 17 36
M  V30 38 1 23 37
M  V30 39 1 24 38
M  V30 40 1 25 39
M  V30 END BOND
M  V30 END CTAB
M  END
>  <Dataset>  (747) 
ChEMBL_Kinases

>  <Ligand_Instance>  (747) 
nan

>  <PDB_ID>  (747) 
nan

>  <Standardized_SMILES>  (747) 
CCOC(=O)c1ccc(N/N=C/c2cc(Br)cc([N+](=O)[O-])c2O)cc1

>  <Name>  (747) 
nan

>  <Pocket>  (747) 
nan

>  <ATP_Site>  (747) 
nan

>  <Peripheral>  (747) 
nan

>  <Num_H_Atoms_ProtBoundConf>  (747) 
nan

>  <Num_Resolved_Atoms>  (747) 
nan

>  <Num_Not_Resolved_Atoms>  (747) 
nan

$$$$
CHEMBL3193799
     RDKit          3D

  0  0  0  0  0  0  0  0  0  0999 V3000
M  V30 BEGIN CTAB
M  V30 COUNTS 32 34 0 0 0
M  V30 BEGIN ATOM
M  V30 1 O -1.505446 -1.540856 0.784904 0
M  V30 2 C -1.410295 -0.353301 1.159491 0
M  V30 3 C -0.199851 0.372851 1.532457 0
M  V30 4 C 1.135120 -0.223589 1.517040 0
M  V30 5 N 1.311869 -1.456248 1.162657 0
M  V30 6 C 2.616097 -2.103491 1.127883 0
M  V30 7 C 2.844879 -2.805769 -0.183553 0
M  V30 8 C 2.481582 -4.141214 -0.392379 0
M  V30 9 C 2.688488 -4.780568 -1.582402 0
M  V30 10 C 3.280141 -4.013875 -2.558992 0
M  V30 11 N 3.632937 -2.739601 -2.377306 0
M  V30 12 C 3.435955 -2.081775 -1.198411 0
M  V30 13 C -0.436687 1.627205 1.885979 0
M  V30 14 O 0.404228 2.637668 2.299625 0
M  V30 15 C -1.893977 1.853473 1.773070 0
M  V30 16 C -2.714204 2.941075 2.002800 0
M  V30 17 C -4.093638 2.865469 1.807419 0
M  V30 18 C -4.679614 1.672628 1.369914 0
M  V30 19 C -3.837219 0.577595 1.140684 0
M  V30 20 C -2.471629 0.655534 1.335048 0
M  V30 21 H 2.021664 0.318815 1.793424 0
M  V30 22 H 3.449513 -1.439862 1.395627 0
M  V30 23 H 2.552623 -2.940807 1.879477 0
M  V30 24 H 2.016443 -4.670290 0.444268 0
M  V30 25 H 2.400893 -5.809882 -1.721668 0
M  V30 26 H 3.476114 -4.455388 -3.532742 0
M  V30 27 H 3.739621 -1.052714 -1.105388 0
M  V30 28 H 0.517319 2.837684 3.285963 0
M  V30 29 H -2.292728 3.883163 2.343174 0
M  V30 30 H -4.732060 3.739708 1.994691 0
M  V30 31 H -5.750681 1.640233 1.226231 0
M  V30 32 H -4.289572 -0.358168 0.798390 0
M  V30 END ATOM
M  V30 BEGIN BOND
M  V30 1 2 1 2
M  V30 2 1 2 3
M  V30 3 1 3 4
M  V30 4 2 4 5
M  V30 5 1 5 6
M  V30 6 1 6 7
M  V30 7 2 7 8
M  V30 8 1 8 9
M  V30 9 2 9 10
M  V30 10 1 10 11
M  V30 11 2 11 12
M  V30 12 2 3 13
M  V30 13 1 13 14
M  V30 14 1 13 15
M  V30 15 2 15 16
M  V30 16 1 16 17
M  V30 17 2 17 18
M  V30 18 1 18 19
M  V30 19 2 19 20
M  V30 20 1 20 2
M  V30 21 1 12 7
M  V30 22 1 20 15
M  V30 23 1 4 21
M  V30 24 1 6 22
M  V30 25 1 6 23
M  V30 26 1 8 24
M  V30 27 1 9 25
M  V30 28 1 10 26
M  V30 29 1 12 27
M  V30 30 1 14 28
M  V30 31 1 16 29
M  V30 32 1 17 30
M  V30 33 1 18 31
M  V30 34 1 19 32
M  V30 END BOND
M  V30 END CTAB
M  END
>  <Dataset>  (748) 
ChEMBL_Kinases

>  <Ligand_Instance>  (748) 
nan

>  <PDB_ID>  (748) 
nan

>  <Standardized_SMILES>  (748) 
O=C1C(/C=N/Cc2cccnc2)=C(O)c2ccccc21

>  <Name>  (748) 
nan

>  <Pocket>  (748) 
nan

>  <ATP_Site>  (748) 
nan

>  <Peripheral>  (748) 
nan

>  <Num_H_Atoms_ProtBoundConf>  (748) 
nan

>  <Num_Resolved_Atoms>  (748) 
nan

>  <Num_Not_Resolved_Atoms>  (748) 
nan

$$$$
CHEMBL3193782
     RDKit          3D

  0  0  0  0  0  0  0  0  0  0999 V3000
M  V30 BEGIN CTAB
M  V30 COUNTS 27 28 0 0 0
M  V30 BEGIN ATOM
M  V30 1 C -1.642685 -1.928379 -0.006951 0
M  V30 2 C -0.310048 -2.331479 0.473011 0
M  V30 3 C -0.084282 -3.648527 0.752711 0
M  V30 4 C 1.174386 -3.997461 1.200960 0
M  V30 5 C 2.229901 -3.131315 1.392770 0
M  V30 6 N 3.479243 -3.625844 1.861207 0 CHG=1 VAL=4
M  V30 7 O 4.435868 -2.852676 2.036821 0
M  V30 8 O 3.627184 -4.981447 2.122800 0 CHG=-1 VAL=1
M  V30 9 C 1.952871 -1.801004 1.094967 0
M  V30 10 C 0.707111 -1.413102 0.644552 0
M  V30 11 N 0.510034 -0.032604 0.363763 0
M  V30 12 C -0.487475 0.647722 0.751777 0
M  V30 13 C -0.576921 2.071999 0.395500 0
M  V30 14 C -0.799753 3.201343 1.071986 0
M  V30 15 C -0.824567 4.414127 0.444305 0
M  V30 16 C -0.589688 4.345843 -0.994407 0
M  V30 17 Br -0.598105 6.059080 -2.049380 0
M  V30 18 S -0.357293 2.481815 -1.256111 0
M  V30 19 H -1.631695 -1.059017 -0.688324 0
M  V30 20 H -2.026316 -2.774365 -0.650257 0
M  V30 21 H -2.407759 -1.850902 0.804982 0
M  V30 22 H -0.871305 -4.370935 0.621861 0
M  V30 23 H 1.345885 -5.052860 1.422134 0
M  V30 24 H 2.796136 -1.112620 1.248774 0
M  V30 25 H -1.250123 0.186954 1.329828 0
M  V30 26 H -0.953771 3.066618 2.131495 0
M  V30 27 H -1.001176 5.344673 0.957460 0
M  V30 END ATOM
M  V30 BEGIN BOND
M  V30 1 1 1 2
M  V30 2 2 2 3
M  V30 3 1 3 4
M  V30 4 2 4 5
M  V30 5 1 5 6
M  V30 6 2 6 7
M  V30 7 1 6 8
M  V30 8 1 5 9
M  V30 9 2 9 10
M  V30 10 1 10 11
M  V30 11 2 11 12
M  V30 12 1 12 13
M  V30 13 2 13 14
M  V30 14 1 14 15
M  V30 15 2 15 16
M  V30 16 1 16 17
M  V30 17 1 16 18
M  V30 18 1 10 2
M  V30 19 1 18 13
M  V30 20 1 1 19
M  V30 21 1 1 20
M  V30 22 1 1 21
M  V30 23 1 3 22
M  V30 24 1 4 23
M  V30 25 1 9 24
M  V30 26 1 12 25
M  V30 27 1 14 26
M  V30 28 1 15 27
M  V30 END BOND
M  V30 END CTAB
M  END
>  <Dataset>  (749) 
ChEMBL_Kinases

>  <Ligand_Instance>  (749) 
nan

>  <PDB_ID>  (749) 
nan

>  <Standardized_SMILES>  (749) 
Cc1ccc([N+](=O)[O-])cc1/N=C/c1ccc(Br)s1

>  <Name>  (749) 
nan

>  <Pocket>  (749) 
nan

>  <ATP_Site>  (749) 
nan

>  <Peripheral>  (749) 
nan

>  <Num_H_Atoms_ProtBoundConf>  (749) 
nan

>  <Num_Resolved_Atoms>  (749) 
nan

>  <Num_Not_Resolved_Atoms>  (749) 
nan

$$$$
CHEMBL3193484
     RDKit          3D

  0  0  0  0  0  0  0  0  0  0999 V3000
M  V30 BEGIN CTAB
M  V30 COUNTS 33 34 0 0 0
M  V30 BEGIN ATOM
M  V30 1 C -0.789598 -2.131055 0.207408 0
M  V30 2 N 0.614762 -1.814649 0.265300 0
M  V30 3 C 1.542258 -2.484254 1.157745 0
M  V30 4 O 1.051051 -3.265700 2.049884 0
M  V30 5 C 2.995461 -2.458594 1.264463 0
M  V30 6 C 3.756304 -1.657593 0.283511 0
M  V30 7 C 4.270393 -0.440966 1.008165 0
M  V30 8 O 5.464753 -0.051809 1.189984 0
M  V30 9 O 3.235839 0.349421 1.545344 0
M  V30 10 S 2.833751 -1.142108 -1.183990 0
M  V30 11 C 1.160699 -0.813250 -0.585320 0
M  V30 12 N 0.487997 0.212598 -0.853045 0
M  V30 13 C -0.816007 0.433927 -0.339192 0
M  V30 14 C -0.630124 0.897478 0.984828 0
M  V30 15 C -1.708715 1.252815 1.780257 0
M  V30 16 C -2.994665 1.152335 1.269319 0
M  V30 17 C -3.184490 0.701915 -0.018862 0
M  V30 18 C -4.486433 0.540692 -0.701793 0
M  V30 19 F -5.447538 1.369420 -0.127670 0
M  V30 20 F -4.418891 0.739462 -2.045739 0
M  V30 21 F -4.912487 -0.754906 -0.450730 0
M  V30 22 C -2.124953 0.354081 -0.796813 0
M  V30 23 H -1.203319 -2.243100 -0.816544 0
M  V30 24 H -1.435262 -1.749031 0.982185 0
M  V30 25 H -0.780531 -3.246559 0.497299 0
M  V30 26 H 3.348765 -3.527405 1.152026 0
M  V30 27 H 3.267203 -2.198851 2.327305 0
M  V30 28 H 4.688984 -2.185400 -0.073572 0
M  V30 29 H 3.505266 1.132913 2.121965 0
M  V30 30 H 0.287539 1.048244 1.569734 0
M  V30 31 H -1.697082 1.613424 2.786411 0
M  V30 32 H -3.893675 1.406243 1.814625 0
M  V30 33 H -2.046275 -0.021809 -1.829381 0
M  V30 END ATOM
M  V30 BEGIN BOND
M  V30 1 1 1 2
M  V30 2 1 2 3
M  V30 3 2 3 4
M  V30 4 1 3 5
M  V30 5 1 5 6
M  V30 6 1 6 7
M  V30 7 2 7 8
M  V30 8 1 7 9
M  V30 9 1 6 10
M  V30 10 1 10 11
M  V30 11 2 11 12
M  V30 12 1 12 13
M  V30 13 2 13 14
M  V30 14 1 14 15
M  V30 15 2 15 16
M  V30 16 1 16 17
M  V30 17 1 17 18
M  V30 18 1 18 19
M  V30 19 1 18 20
M  V30 20 1 18 21
M  V30 21 2 17 22
M  V30 22 1 11 2
M  V30 23 1 22 13
M  V30 24 1 1 23
M  V30 25 1 1 24
M  V30 26 1 1 25
M  V30 27 1 5 26
M  V30 28 1 5 27
M  V30 29 1 6 28
M  V30 30 1 9 29
M  V30 31 1 14 30
M  V30 32 1 15 31
M  V30 33 1 16 32
M  V30 34 1 22 33
M  V30 END BOND
M  V30 END CTAB
M  END
>  <Dataset>  (750) 
ChEMBL_Kinases

>  <Ligand_Instance>  (750) 
nan

>  <PDB_ID>  (750) 
nan

>  <Standardized_SMILES>  (750) 
CN1C(=O)CC(C(=O)O)S/C1=N/c1cccc(C(F)(F)F)c1

>  <Name>  (750) 
nan

>  <Pocket>  (750) 
nan

>  <ATP_Site>  (750) 
nan

>  <Peripheral>  (750) 
nan

>  <Num_H_Atoms_ProtBoundConf>  (750) 
nan

>  <Num_Resolved_Atoms>  (750) 
nan

>  <Num_Not_Resolved_Atoms>  (750) 
nan

$$$$
CHEMBL3193376
     RDKit          3D

  0  0  0  0  0  0  0  0  0  0999 V3000
M  V30 BEGIN CTAB
M  V30 COUNTS 46 48 0 0 0
M  V30 BEGIN ATOM
M  V30 1 C -0.827827 -7.521776 2.374251 0
M  V30 2 S 0.911399 -7.036588 2.187693 0
M  V30 3 C 0.983809 -5.314008 1.715113 0
M  V30 4 C 1.050563 -4.288844 2.636306 0
M  V30 5 C 1.108948 -2.947884 2.316489 0
M  V30 6 C 1.099801 -2.614531 0.977437 0
M  V30 7 C 1.159953 -1.237494 0.499224 0
M  V30 8 N 1.160754 -0.739747 -0.675430 0
M  V30 9 N 1.224385 0.629066 -0.954679 0
M  V30 10 C 0.130062 1.054537 -1.800087 0
M  V30 11 C 0.069813 2.546794 -1.933907 0
M  V30 12 N 0.548362 3.235495 -0.809815 0
M  V30 13 C -0.273943 3.617190 0.250825 0
M  V30 14 C -0.939564 2.616776 1.065792 0
M  V30 15 C -0.239055 2.252282 2.228802 0
M  V30 16 C -0.633379 1.302326 3.142165 0
M  V30 17 C -1.813522 0.631449 2.927336 0
M  V30 18 C -2.547155 0.935326 1.816564 0
M  V30 19 C -2.101418 1.895407 0.939359 0
M  V30 20 Cl -3.088215 2.299496 -0.444932 0
M  V30 21 C 1.915576 2.933123 -0.457118 0
M  V30 22 C 2.262528 1.487924 -0.450381 0
M  V30 23 C 1.033887 -3.603742 0.014211 0
M  V30 24 C 0.975993 -4.947873 0.370031 0
M  V30 25 H -1.077625 -7.539230 3.459042 0
M  V30 26 H -1.022475 -8.505454 1.916336 0
M  V30 27 H -1.528850 -6.812848 1.887042 0
M  V30 28 H 1.056537 -4.565144 3.676606 0
M  V30 29 H 1.160224 -2.165942 3.060572 0
M  V30 30 H 1.216277 -0.461666 1.277769 0
M  V30 31 H -0.827188 0.672975 -1.444400 0
M  V30 32 H 0.265969 0.621643 -2.823343 0
M  V30 33 H 0.805501 2.780276 -2.786747 0
M  V30 34 H -0.903941 2.914150 -2.255466 0
M  V30 35 H 0.321578 4.301267 0.929367 0
M  V30 36 H -1.049531 4.330950 -0.181995 0
M  V30 37 H 0.712429 2.721531 2.500195 0
M  V30 38 H -0.073639 1.048708 4.020161 0
M  V30 39 H -2.147516 -0.113607 3.620454 0
M  V30 40 H -3.480237 0.441759 1.597426 0
M  V30 41 H 2.568213 3.460629 -1.181936 0
M  V30 42 H 2.085307 3.410500 0.528750 0
M  V30 43 H 2.519565 1.122006 0.585233 0
M  V30 44 H 3.169281 1.283199 -1.063251 0
M  V30 45 H 1.022263 -3.429347 -1.037887 0
M  V30 46 H 0.924398 -5.747527 -0.331280 0
M  V30 END ATOM
M  V30 BEGIN BOND
M  V30 1 1 1 2
M  V30 2 1 2 3
M  V30 3 2 3 4
M  V30 4 1 4 5
M  V30 5 2 5 6
M  V30 6 1 6 7
M  V30 7 2 7 8
M  V30 8 1 8 9
M  V30 9 1 9 10
M  V30 10 1 10 11
M  V30 11 1 11 12
M  V30 12 1 12 13
M  V30 13 1 13 14
M  V30 14 2 14 15
M  V30 15 1 15 16
M  V30 16 2 16 17
M  V30 17 1 17 18
M  V30 18 2 18 19
M  V30 19 1 19 20
M  V30 20 1 12 21
M  V30 21 1 21 22
M  V30 22 1 6 23
M  V30 23 2 23 24
M  V30 24 1 24 3
M  V30 25 1 22 9
M  V30 26 1 19 14
M  V30 27 1 1 25
M  V30 28 1 1 26
M  V30 29 1 1 27
M  V30 30 1 4 28
M  V30 31 1 5 29
M  V30 32 1 7 30
M  V30 33 1 10 31
M  V30 34 1 10 32
M  V30 35 1 11 33
M  V30 36 1 11 34
M  V30 37 1 13 35
M  V30 38 1 13 36
M  V30 39 1 15 37
M  V30 40 1 16 38
M  V30 41 1 17 39
M  V30 42 1 18 40
M  V30 43 1 21 41
M  V30 44 1 21 42
M  V30 45 1 22 43
M  V30 46 1 22 44
M  V30 47 1 23 45
M  V30 48 1 24 46
M  V30 END BOND
M  V30 END CTAB
M  END
>  <Dataset>  (751) 
ChEMBL_Kinases

>  <Ligand_Instance>  (751) 
nan

>  <PDB_ID>  (751) 
nan

>  <Standardized_SMILES>  (751) 
CSc1ccc(/C=N/N2CCN(Cc3ccccc3Cl)CC2)cc1

>  <Name>  (751) 
nan

>  <Pocket>  (751) 
nan

>  <ATP_Site>  (751) 
nan

>  <Peripheral>  (751) 
nan

>  <Num_H_Atoms_ProtBoundConf>  (751) 
nan

>  <Num_Resolved_Atoms>  (751) 
nan

>  <Num_Not_Resolved_Atoms>  (751) 
nan

$$$$
CHEMBL3193362
     RDKit          3D

  0  0  0  0  0  0  0  0  0  0999 V3000
M  V30 BEGIN CTAB
M  V30 COUNTS 32 34 0 0 0
M  V30 BEGIN ATOM
M  V30 1 N 1.845300 -2.451458 2.312492 0
M  V30 2 C 0.896839 -1.876389 1.907732 0
M  V30 3 C -0.270137 -1.154126 1.413131 0
M  V30 4 C -0.117363 -0.008140 0.757208 0
M  V30 5 N 1.058219 0.710636 0.415206 0
M  V30 6 C 2.101904 0.202768 -0.103809 0
M  V30 7 C 3.240787 1.070622 -0.402898 0
M  V30 8 C 3.122732 2.413778 -0.102595 0
M  V30 9 C 4.150421 3.301603 -0.352785 0
M  V30 10 C 5.319967 2.784107 -0.924620 0
M  V30 11 N 5.400440 1.470181 -1.204181 0
M  V30 12 C 4.408289 0.592546 -0.966496 0
M  V30 13 S -1.812869 0.562673 0.316600 0
M  V30 14 C -2.587961 -0.900979 1.116998 0
M  V30 15 C -1.520610 -1.668852 1.631761 0
M  V30 16 C -2.056307 -2.883236 2.303019 0
M  V30 17 C -2.923019 -3.687013 1.360236 0
M  V30 18 C -4.075424 -2.857761 0.838815 0
M  V30 19 C -3.993078 -1.425986 1.329230 0
M  V30 20 H 2.117868 -0.859841 -0.310001 0
M  V30 21 H 2.216553 2.813383 0.340209 0
M  V30 22 H 4.115157 4.360476 -0.139498 0
M  V30 23 H 6.161825 3.422223 -1.146328 0
M  V30 24 H 4.467768 -0.463332 -1.189046 0
M  V30 25 H -1.234897 -3.495109 2.674728 0
M  V30 26 H -2.708088 -2.527788 3.128256 0
M  V30 27 H -2.285652 -4.038911 0.520699 0
M  V30 28 H -3.355209 -4.529283 1.938558 0
M  V30 29 H -4.060249 -2.835751 -0.260148 0
M  V30 30 H -5.035775 -3.240104 1.175645 0
M  V30 31 H -4.681188 -0.853525 0.642362 0
M  V30 32 H -4.208355 -1.291709 2.386895 0
M  V30 END ATOM
M  V30 BEGIN BOND
M  V30 1 3 1 2
M  V30 2 1 2 3
M  V30 3 2 3 4
M  V30 4 1 4 5
M  V30 5 2 5 6
M  V30 6 1 6 7
M  V30 7 2 7 8
M  V30 8 1 8 9
M  V30 9 2 9 10
M  V30 10 1 10 11
M  V30 11 2 11 12
M  V30 12 1 4 13
M  V30 13 1 13 14
M  V30 14 2 14 15
M  V30 15 1 15 16
M  V30 16 1 16 17
M  V30 17 1 17 18
M  V30 18 1 18 19
M  V30 19 1 15 3
M  V30 20 1 12 7
M  V30 21 1 19 14
M  V30 22 1 6 20
M  V30 23 1 8 21
M  V30 24 1 9 22
M  V30 25 1 10 23
M  V30 26 1 12 24
M  V30 27 1 16 25
M  V30 28 1 16 26
M  V30 29 1 17 27
M  V30 30 1 17 28
M  V30 31 1 18 29
M  V30 32 1 18 30
M  V30 33 1 19 31
M  V30 34 1 19 32
M  V30 END BOND
M  V30 END CTAB
M  END
>  <Dataset>  (752) 
ChEMBL_Kinases

>  <Ligand_Instance>  (752) 
nan

>  <PDB_ID>  (752) 
nan

>  <Standardized_SMILES>  (752) 
N#Cc1c(/N=C/c2cccnc2)sc2c1CCCC2

>  <Name>  (752) 
nan

>  <Pocket>  (752) 
nan

>  <ATP_Site>  (752) 
nan

>  <Peripheral>  (752) 
nan

>  <Num_H_Atoms_ProtBoundConf>  (752) 
nan

>  <Num_Resolved_Atoms>  (752) 
nan

>  <Num_Not_Resolved_Atoms>  (752) 
nan

$$$$
CHEMBL3193311
     RDKit          3D

  0  0  0  0  0  0  0  0  0  0999 V3000
M  V30 BEGIN CTAB
M  V30 COUNTS 36 37 0 0 0
M  V30 BEGIN ATOM
M  V30 1 C -2.035802 -1.357012 2.891030 0
M  V30 2 C -1.122319 -1.186460 1.730615 0
M  V30 3 C 0.080166 -2.026491 1.629535 0
M  V30 4 C 0.924162 -1.919532 0.620286 0
M  V30 5 C 2.136355 -2.712716 0.445678 0
M  V30 6 C 2.500134 -3.666151 1.353764 0
M  V30 7 C 3.667447 -4.398234 1.142060 0
M  V30 8 C 4.401407 -4.114869 0.010095 0
M  V30 9 C 4.082391 -3.165760 -0.938102 0
M  V30 10 C 2.905308 -2.466543 -0.671996 0
M  V30 11 N -1.348273 -0.330391 0.809553 0
M  V30 12 N -2.440319 0.538483 0.753677 0
M  V30 13 C -1.731489 1.711963 0.377597 0
M  V30 14 C -1.231691 2.603105 1.333127 0
M  V30 15 C -0.535886 3.755872 1.026496 0
M  V30 16 C -0.325032 4.038569 -0.310045 0
M  V30 17 C -0.789943 3.203970 -1.306001 0
M  V30 18 C -1.484758 2.055654 -0.946624 0
M  V30 19 N -2.004086 1.129932 -1.906649 0 CHG=1 VAL=4
M  V30 20 O -1.615844 0.859739 -3.069250 0
M  V30 21 O -3.090732 0.283336 -1.782102 0 CHG=-1 VAL=1
M  V30 22 H -2.356830 -2.429446 2.949637 0
M  V30 23 H -1.470752 -1.125936 3.811731 0
M  V30 24 H -2.946077 -0.758693 2.761748 0
M  V30 25 H 0.288250 -2.752184 2.393877 0
M  V30 26 H 0.637882 -1.163204 -0.104810 0
M  V30 27 H 1.947005 -3.895764 2.227785 0
M  V30 28 H 3.999441 -5.170477 1.839593 0
M  V30 29 H 5.308980 -4.693963 -0.141651 0
M  V30 30 H 4.682727 -2.971695 -1.812904 0
M  V30 31 H 2.646083 -1.707083 -1.426519 0
M  V30 32 H -3.481615 0.565718 0.891081 0
M  V30 33 H -1.381598 2.409168 2.398692 0
M  V30 34 H -0.176856 4.401536 1.809169 0
M  V30 35 H 0.212052 4.923861 -0.621168 0
M  V30 36 H -0.636224 3.404828 -2.374024 0
M  V30 END ATOM
M  V30 BEGIN BOND
M  V30 1 1 1 2
M  V30 2 1 2 3
M  V30 3 2 3 4
M  V30 4 1 4 5
M  V30 5 2 5 6
M  V30 6 1 6 7
M  V30 7 2 7 8
M  V30 8 1 8 9
M  V30 9 2 9 10
M  V30 10 2 2 11
M  V30 11 1 11 12
M  V30 12 1 12 13
M  V30 13 2 13 14
M  V30 14 1 14 15
M  V30 15 2 15 16
M  V30 16 1 16 17
M  V30 17 2 17 18
M  V30 18 1 18 19
M  V30 19 2 19 20
M  V30 20 1 19 21
M  V30 21 1 10 5
M  V30 22 1 18 13
M  V30 23 1 1 22
M  V30 24 1 1 23
M  V30 25 1 1 24
M  V30 26 1 3 25
M  V30 27 1 4 26
M  V30 28 1 6 27
M  V30 29 1 7 28
M  V30 30 1 8 29
M  V30 31 1 9 30
M  V30 32 1 10 31
M  V30 33 1 12 32
M  V30 34 1 14 33
M  V30 35 1 15 34
M  V30 36 1 16 35
M  V30 37 1 17 36
M  V30 END BOND
M  V30 END CTAB
M  END
>  <Dataset>  (753) 
ChEMBL_Kinases

>  <Ligand_Instance>  (753) 
nan

>  <PDB_ID>  (753) 
nan

>  <Standardized_SMILES>  (753) 
CC(/C=C/c1ccccc1)=N\Nc1ccccc1[N+](=O)[O-]

>  <Name>  (753) 
nan

>  <Pocket>  (753) 
nan

>  <ATP_Site>  (753) 
nan

>  <Peripheral>  (753) 
nan

>  <Num_H_Atoms_ProtBoundConf>  (753) 
nan

>  <Num_Resolved_Atoms>  (753) 
nan

>  <Num_Not_Resolved_Atoms>  (753) 
nan

$$$$
CHEMBL3193298
     RDKit          3D

  0  0  0  0  0  0  0  0  0  0999 V3000
M  V30 BEGIN CTAB
M  V30 COUNTS 33 35 0 0 0
M  V30 BEGIN ATOM
M  V30 1 N -0.370115 0.216277 4.206760 0
M  V30 2 C 0.724385 -0.585810 3.828278 0
M  V30 3 O 1.548021 -1.034405 4.664674 0
M  V30 4 C 0.897698 -0.897195 2.434569 0
M  V30 5 C 1.965646 -1.686139 2.020279 0
M  V30 6 C 2.149614 -1.996642 0.685828 0
M  V30 7 C 3.230466 -2.784575 0.342790 0
M  V30 8 C 3.371640 -3.068328 -1.010300 0
M  V30 9 C 2.464704 -2.575997 -1.943769 0
M  V30 10 O 2.567186 -2.835359 -3.312187 0
M  V30 11 C 1.398908 -1.792335 -1.557000 0
M  V30 12 C 1.234058 -1.494676 -0.220667 0
M  V30 13 O 0.224404 -0.746113 0.190430 0
M  V30 14 C 0.038685 -0.444035 1.455257 0
M  V30 15 N -0.971967 0.292517 1.774467 0
M  V30 16 C -1.910065 0.804971 0.832095 0
M  V30 17 C -2.960567 -0.007886 0.457638 0
M  V30 18 C -3.851946 0.537738 -0.466655 0
M  V30 19 C -3.741107 1.814942 -1.012136 0
M  V30 20 C -2.648163 2.566931 -0.576539 0
M  V30 21 C -1.734024 2.081335 0.335039 0
M  V30 22 H -1.338599 0.265899 4.548778 0
M  V30 23 H -1.200946 -0.317545 4.506376 0
M  V30 24 H 2.625426 -2.033300 2.778884 0
M  V30 25 H 3.930396 -3.164284 1.065016 0
M  V30 26 H 4.193058 -3.680902 -1.370656 0
M  V30 27 H 3.235204 -2.383589 -3.916185 0
M  V30 28 H 0.669199 -1.385491 -2.230568 0
M  V30 29 H -3.143244 -1.005238 0.812810 0
M  V30 30 H -4.693448 -0.060767 -0.792434 0
M  V30 31 H -4.476177 2.156176 -1.720974 0
M  V30 32 H -2.584668 3.564537 -1.019606 0
M  V30 33 H -0.902681 2.697216 0.644818 0
M  V30 END ATOM
M  V30 BEGIN BOND
M  V30 1 1 1 2
M  V30 2 2 2 3
M  V30 3 1 2 4
M  V30 4 2 4 5
M  V30 5 1 5 6
M  V30 6 2 6 7
M  V30 7 1 7 8
M  V30 8 2 8 9
M  V30 9 1 9 10
M  V30 10 1 9 11
M  V30 11 2 11 12
M  V30 12 1 12 13
M  V30 13 1 13 14
M  V30 14 2 14 15
M  V30 15 1 15 16
M  V30 16 2 16 17
M  V30 17 1 17 18
M  V30 18 2 18 19
M  V30 19 1 19 20
M  V30 20 2 20 21
M  V30 21 1 14 4
M  V30 22 1 21 16
M  V30 23 1 12 6
M  V30 24 1 1 22
M  V30 25 1 1 23
M  V30 26 1 5 24
M  V30 27 1 7 25
M  V30 28 1 8 26
M  V30 29 1 10 27
M  V30 30 1 11 28
M  V30 31 1 17 29
M  V30 32 1 18 30
M  V30 33 1 19 31
M  V30 34 1 20 32
M  V30 35 1 21 33
M  V30 END BOND
M  V30 END CTAB
M  END
>  <Dataset>  (754) 
ChEMBL_Kinases

>  <Ligand_Instance>  (754) 
nan

>  <PDB_ID>  (754) 
nan

>  <Standardized_SMILES>  (754) 
NC(=O)c1cc2ccc(O)cc2o/c1=N\c1ccccc1

>  <Name>  (754) 
nan

>  <Pocket>  (754) 
nan

>  <ATP_Site>  (754) 
nan

>  <Peripheral>  (754) 
nan

>  <Num_H_Atoms_ProtBoundConf>  (754) 
nan

>  <Num_Resolved_Atoms>  (754) 
nan

>  <Num_Not_Resolved_Atoms>  (754) 
nan

$$$$
CHEMBL3193143
     RDKit          3D

  0  0  0  0  0  0  0  0  0  0999 V3000
M  V30 BEGIN CTAB
M  V30 COUNTS 44 46 0 0 0
M  V30 BEGIN ATOM
M  V30 1 C -1.240221 -9.155778 -0.801188 0
M  V30 2 C -0.091719 -8.265084 -0.402155 0
M  V30 3 O -0.483174 -6.929315 -0.212079 0
M  V30 4 C 0.469005 -5.991408 0.158926 0
M  V30 5 O 1.490177 -6.696805 0.216029 0
M  V30 6 C 0.066217 -4.613246 0.355422 0
M  V30 7 S -1.597751 -4.017126 0.152734 0
M  V30 8 C -1.249067 -2.326860 0.556367 0
M  V30 9 N -2.029745 -1.239041 0.623069 0
M  V30 10 C -1.523136 -0.025082 0.963711 0
M  V30 11 N -0.205296 -0.030212 1.217373 0
M  V30 12 N 0.286395 1.255858 1.570056 0
M  V30 13 C 0.057393 2.320535 0.918055 0
M  V30 14 C 0.599946 3.607270 1.346051 0
M  V30 15 C 1.373489 3.625435 2.489217 0
M  V30 16 C 1.882400 4.870597 2.879424 0
M  V30 17 C 1.622333 6.017712 2.156702 0
M  V30 18 O 2.182205 7.212588 2.637287 0
M  V30 19 C 0.843082 5.949633 1.019781 0
M  V30 20 O 0.651874 7.168039 0.378532 0
M  V30 21 C -0.137187 7.182530 -0.797072 0
M  V30 22 C 0.322181 4.741405 0.600882 0
M  V30 23 C 0.638100 -1.072026 1.171991 0
M  V30 24 O 1.836900 -0.823002 1.453817 0
M  V30 25 C 0.133497 -2.307602 0.827225 0
M  V30 26 C 0.782755 -3.506261 0.713938 0
M  V30 27 C 2.254495 -3.698360 0.956909 0
M  V30 28 H -2.119758 -8.856178 -0.174024 0
M  V30 29 H -1.467427 -9.152378 -1.871243 0
M  V30 30 H -0.978551 -10.191827 -0.481419 0
M  V30 31 H 0.251236 -8.642745 0.601960 0
M  V30 32 H 0.720518 -8.309279 -1.136677 0
M  V30 33 H -2.152169 0.843329 1.015751 0
M  V30 34 H -0.559414 2.208377 0.035693 0
M  V30 35 H 1.588728 2.736359 3.069990 0
M  V30 36 H 2.488323 4.879438 3.776337 0
M  V30 37 H 2.065346 7.436058 3.622305 0
M  V30 38 H 0.071568 8.123678 -1.365247 0
M  V30 39 H -1.220083 7.183039 -0.559100 0
M  V30 40 H 0.111282 6.342962 -1.491720 0
M  V30 41 H -0.280841 4.739281 -0.294006 0
M  V30 42 H 2.423335 -4.055881 1.981828 0
M  V30 43 H 2.673662 -4.421884 0.195972 0
M  V30 44 H 2.846981 -2.787563 0.800183 0
M  V30 END ATOM
M  V30 BEGIN BOND
M  V30 1 1 1 2
M  V30 2 1 2 3
M  V30 3 1 3 4
M  V30 4 2 4 5
M  V30 5 1 4 6
M  V30 6 1 6 7
M  V30 7 1 7 8
M  V30 8 1 8 9
M  V30 9 2 9 10
M  V30 10 1 10 11
M  V30 11 1 11 12
M  V30 12 2 12 13
M  V30 13 1 13 14
M  V30 14 2 14 15
M  V30 15 1 15 16
M  V30 16 2 16 17
M  V30 17 1 17 18
M  V30 18 1 17 19
M  V30 19 1 19 20
M  V30 20 1 20 21
M  V30 21 2 19 22
M  V30 22 1 11 23
M  V30 23 2 23 24
M  V30 24 1 23 25
M  V30 25 1 25 26
M  V30 26 1 26 27
M  V30 27 2 26 6
M  V30 28 2 25 8
M  V30 29 1 22 14
M  V30 30 1 1 28
M  V30 31 1 1 29
M  V30 32 1 1 30
M  V30 33 1 2 31
M  V30 34 1 2 32
M  V30 35 1 10 33
M  V30 36 1 13 34
M  V30 37 1 15 35
M  V30 38 1 16 36
M  V30 39 1 18 37
M  V30 40 1 21 38
M  V30 41 1 21 39
M  V30 42 1 21 40
M  V30 43 1 22 41
M  V30 44 1 27 42
M  V30 45 1 27 43
M  V30 46 1 27 44
M  V30 END BOND
M  V30 END CTAB
M  END
>  <Dataset>  (755) 
ChEMBL_Kinases

>  <Ligand_Instance>  (755) 
nan

>  <PDB_ID>  (755) 
nan

>  <Standardized_SMILES>  (755) 
CCOC(=O)c1sc2ncn(/N=C/c3ccc(O)c(OC)c3)c(=O)c2c1C

>  <Name>  (755) 
nan

>  <Pocket>  (755) 
nan

>  <ATP_Site>  (755) 
nan

>  <Peripheral>  (755) 
nan

>  <Num_H_Atoms_ProtBoundConf>  (755) 
nan

>  <Num_Resolved_Atoms>  (755) 
nan

>  <Num_Not_Resolved_Atoms>  (755) 
nan

$$$$
CHEMBL3198860
     RDKit          3D

  0  0  0  0  0  0  0  0  0  0999 V3000
M  V30 BEGIN CTAB
M  V30 COUNTS 48 52 0 0 0
M  V30 BEGIN ATOM
M  V30 1 O 0.289953 -4.844312 0.635408 0
M  V30 2 C -0.368487 -4.682625 1.694009 0
M  V30 3 N -0.263365 -3.385711 2.226112 0
M  V30 4 N 0.392336 -2.212769 1.878983 0
M  V30 5 C -0.106252 -1.286828 1.140770 0
M  V30 6 C 0.717209 -0.118612 0.872877 0
M  V30 7 C 1.992665 0.025967 1.375768 0
M  V30 8 N 2.426951 1.211952 0.920308 0
M  V30 9 C 3.670491 1.875488 1.122517 0
M  V30 10 C 4.611197 1.950177 0.115813 0
M  V30 11 C 5.818630 2.592570 0.307076 0
M  V30 12 C 6.132020 3.184096 1.509709 0
M  V30 13 C 5.186235 3.108461 2.520376 0
M  V30 14 C 3.973235 2.470465 2.348204 0
M  V30 15 N 1.475747 1.747810 0.190404 0
M  V30 16 C 0.378657 0.974664 0.115515 0
M  V30 17 C -0.818214 1.325729 -0.624717 0
M  V30 18 C -2.024738 0.719364 -0.841483 0
M  V30 19 C -2.859181 1.467707 -1.635212 0
M  V30 20 C -4.132259 1.339677 -2.146103 0
M  V30 21 C -4.622542 2.373350 -2.939952 0
M  V30 22 C -3.828469 3.474315 -3.184269 0
M  V30 23 C -2.553019 3.620592 -2.682355 0
M  V30 24 C -2.083347 2.575941 -1.891867 0
M  V30 25 O -0.934353 2.437863 -1.290935 0
M  V30 26 C -1.191245 -5.665468 2.388743 0
M  V30 27 C -1.917691 -5.503679 3.547920 0
M  V30 28 C -2.640094 -6.548160 4.061686 0
M  V30 29 C -2.646484 -7.788035 3.413879 0
M  V30 30 N -1.923243 -7.934681 2.267465 0
M  V30 31 C -1.212869 -6.892563 1.770219 0
M  V30 32 H -0.730243 -3.046759 3.095624 0
M  V30 33 H -1.083438 -1.603057 0.868746 0
M  V30 34 H 2.594735 -0.615510 2.004427 0
M  V30 35 H 4.453431 1.520598 -0.847330 0
M  V30 36 H 6.599029 2.685829 -0.443116 0
M  V30 37 H 7.075841 3.698630 1.692855 0
M  V30 38 H 5.435803 3.577879 3.473633 0
M  V30 39 H 3.237684 2.414228 3.141224 0
M  V30 40 H -2.327152 -0.234584 -0.453654 0
M  V30 41 H -4.655073 0.448403 -1.893500 0
M  V30 42 H -5.624859 2.261824 -3.336274 0
M  V30 43 H -4.251334 4.267645 -3.814814 0
M  V30 44 H -1.926009 4.487073 -2.873698 0
M  V30 45 H -1.850249 -4.506354 3.976935 0
M  V30 46 H -3.194968 -6.374617 4.973571 0
M  V30 47 H -3.240360 -8.566325 3.878837 0
M  V30 48 H -0.708284 -7.194857 0.864389 0
M  V30 END ATOM
M  V30 BEGIN BOND
M  V30 1 2 1 2
M  V30 2 1 2 3
M  V30 3 1 3 4
M  V30 4 2 4 5
M  V30 5 1 5 6
M  V30 6 2 6 7
M  V30 7 1 7 8
M  V30 8 1 8 9
M  V30 9 2 9 10
M  V30 10 1 10 11
M  V30 11 2 11 12
M  V30 12 1 12 13
M  V30 13 2 13 14
M  V30 14 1 8 15
M  V30 15 2 15 16
M  V30 16 1 16 17
M  V30 17 2 17 18
M  V30 18 1 18 19
M  V30 19 2 19 20
M  V30 20 1 20 21
M  V30 21 2 21 22
M  V30 22 1 22 23
M  V30 23 2 23 24
M  V30 24 1 24 25
M  V30 25 1 2 26
M  V30 26 2 26 27
M  V30 27 1 27 28
M  V30 28 2 28 29
M  V30 29 1 29 30
M  V30 30 2 30 31
M  V30 31 1 16 6
M  V30 32 1 25 17
M  V30 33 1 31 26
M  V30 34 1 14 9
M  V30 35 1 24 19
M  V30 36 1 3 32
M  V30 37 1 5 33
M  V30 38 1 7 34
M  V30 39 1 10 35
M  V30 40 1 11 36
M  V30 41 1 12 37
M  V30 42 1 13 38
M  V30 43 1 14 39
M  V30 44 1 18 40
M  V30 45 1 20 41
M  V30 46 1 21 42
M  V30 47 1 22 43
M  V30 48 1 23 44
M  V30 49 1 27 45
M  V30 50 1 28 46
M  V30 51 1 29 47
M  V30 52 1 31 48
M  V30 END BOND
M  V30 END CTAB
M  END
>  <Dataset>  (756) 
ChEMBL_Kinases

>  <Ligand_Instance>  (756) 
nan

>  <PDB_ID>  (756) 
nan

>  <Standardized_SMILES>  (756) 
O=C(N/N=C/c1cn(-c2ccccc2)nc1-c1cc2ccccc2o1)c1cccnc1

>  <Name>  (756) 
nan

>  <Pocket>  (756) 
nan

>  <ATP_Site>  (756) 
nan

>  <Peripheral>  (756) 
nan

>  <Num_H_Atoms_ProtBoundConf>  (756) 
nan

>  <Num_Resolved_Atoms>  (756) 
nan

>  <Num_Not_Resolved_Atoms>  (756) 
nan

$$$$
CHEMBL3191127
     RDKit          3D

  0  0  0  0  0  0  0  0  0  0999 V3000
M  V30 BEGIN CTAB
M  V30 COUNTS 38 39 0 0 0
M  V30 BEGIN ATOM
M  V30 1 C -0.715704 -1.816300 3.339044 0
M  V30 2 C -0.047223 -2.233086 2.087526 0
M  V30 3 C -0.650760 -3.094035 1.206389 0
M  V30 4 C -0.069141 -3.508232 0.031753 0
M  V30 5 C 1.195147 -2.987297 -0.209068 0
M  V30 6 C 1.873825 -2.106627 0.639647 0
M  V30 7 N 3.161819 -1.677038 0.227126 0
M  V30 8 C 3.741638 -0.614296 -0.494487 0
M  V30 9 S 5.361440 -0.660142 -0.656852 0
M  V30 10 N 2.943750 0.424777 -1.039197 0
M  V30 11 N 1.545669 0.376114 -0.840690 0
M  V30 12 C 0.890301 1.447170 -0.500522 0
M  V30 13 C -0.537273 1.668396 -0.236467 0
M  V30 14 C -1.072502 2.907295 0.121776 0
M  V30 15 C -2.430596 2.919476 0.330500 0
M  V30 16 C -3.268153 1.835481 0.215164 0
M  V30 17 C -2.696723 0.641416 -0.138518 0
M  V30 18 O -3.529690 -0.460180 -0.258520 0
M  V30 19 C -1.325139 0.544351 -0.368296 0
M  V30 20 C 1.206688 -1.750188 1.793792 0
M  V30 21 C 1.930647 -0.811307 2.694575 0
M  V30 22 H -0.213084 -2.208516 4.246143 0
M  V30 23 H -0.836159 -0.718861 3.441279 0
M  V30 24 H -1.759779 -2.226003 3.331694 0
M  V30 25 H -1.634113 -3.471164 1.440168 0
M  V30 26 H -0.516120 -4.184287 -0.682519 0
M  V30 27 H 1.677058 -3.300375 -1.132727 0
M  V30 28 H 3.680976 -2.469026 0.656437 0
M  V30 29 H 3.416485 1.190568 -1.568005 0
M  V30 30 H 1.507627 2.335987 -0.391956 0
M  V30 31 H -0.402246 3.726607 0.203924 0
M  V30 32 H -2.824376 3.898837 0.609747 0
M  V30 33 H -4.332026 1.996132 0.412336 0
M  V30 34 H -3.137165 -1.354097 -0.520313 0
M  V30 35 H -0.944203 -0.429475 -0.643933 0
M  V30 36 H 2.622585 -0.156203 2.126298 0
M  V30 37 H 2.467883 -1.401878 3.458695 0
M  V30 38 H 1.193356 -0.095124 3.150235 0
M  V30 END ATOM
M  V30 BEGIN BOND
M  V30 1 1 1 2
M  V30 2 2 2 3
M  V30 3 1 3 4
M  V30 4 2 4 5
M  V30 5 1 5 6
M  V30 6 1 6 7
M  V30 7 1 7 8
M  V30 8 2 8 9
M  V30 9 1 8 10
M  V30 10 1 10 11
M  V30 11 2 11 12
M  V30 12 1 12 13
M  V30 13 2 13 14
M  V30 14 1 14 15
M  V30 15 2 15 16
M  V30 16 1 16 17
M  V30 17 1 17 18
M  V30 18 2 17 19
M  V30 19 2 6 20
M  V30 20 1 20 21
M  V30 21 1 20 2
M  V30 22 1 19 13
M  V30 23 1 1 22
M  V30 24 1 1 23
M  V30 25 1 1 24
M  V30 26 1 3 25
M  V30 27 1 4 26
M  V30 28 1 5 27
M  V30 29 1 7 28
M  V30 30 1 10 29
M  V30 31 1 12 30
M  V30 32 1 14 31
M  V30 33 1 15 32
M  V30 34 1 16 33
M  V30 35 1 18 34
M  V30 36 1 19 35
M  V30 37 1 21 36
M  V30 38 1 21 37
M  V30 39 1 21 38
M  V30 END BOND
M  V30 END CTAB
M  END
>  <Dataset>  (757) 
ChEMBL_Kinases

>  <Ligand_Instance>  (757) 
nan

>  <PDB_ID>  (757) 
nan

>  <Standardized_SMILES>  (757) 
Cc1cccc(NC(=S)N/N=C/c2cccc(O)c2)c1C

>  <Name>  (757) 
nan

>  <Pocket>  (757) 
nan

>  <ATP_Site>  (757) 
nan

>  <Peripheral>  (757) 
nan

>  <Num_H_Atoms_ProtBoundConf>  (757) 
nan

>  <Num_Resolved_Atoms>  (757) 
nan

>  <Num_Not_Resolved_Atoms>  (757) 
nan

$$$$
CHEMBL3191270
     RDKit          3D

  0  0  0  0  0  0  0  0  0  0999 V3000
M  V30 BEGIN CTAB
M  V30 COUNTS 32 34 0 0 0
M  V30 BEGIN ATOM
M  V30 1 S 1.407523 1.108366 3.685405 0
M  V30 2 C 1.260661 -0.059751 2.370290 0
M  V30 3 N 1.766588 -1.289707 2.562608 0
M  V30 4 C 1.568147 -2.043548 1.466387 0
M  V30 5 C 1.923546 -3.440405 1.161530 0
M  V30 6 C 1.601117 -4.004432 -0.074029 0
M  V30 7 C 1.951800 -5.316952 -0.320490 0
M  V30 8 C 2.616606 -6.040314 0.669528 0
M  V30 9 C 2.920191 -5.448245 1.883252 0
M  V30 10 C 2.580532 -4.133338 2.158006 0
M  V30 11 C 0.907743 -1.203477 0.583328 0
M  V30 12 N 0.727070 0.004656 1.149527 0
M  V30 13 N 0.127683 1.189954 0.697193 0
M  V30 14 C -1.099828 1.319827 0.407423 0
M  V30 15 C -1.863697 2.467417 -0.068473 0
M  V30 16 C -3.218873 2.426822 -0.337422 0
M  V30 17 C -3.819150 3.588168 -0.783288 0
M  V30 18 C -3.183380 4.796924 -0.986723 0
M  V30 19 N -1.845365 4.809128 -0.713455 0
M  V30 20 C -1.234669 3.684193 -0.275523 0
M  V30 21 H 0.356094 0.873412 4.591969 0
M  V30 22 H 1.091413 -3.436815 -0.822324 0
M  V30 23 H 1.708682 -5.768041 -1.273429 0
M  V30 24 H 2.873038 -7.070250 0.431361 0
M  V30 25 H 3.433344 -6.075057 2.590924 0
M  V30 26 H 2.829645 -3.697417 3.112743 0
M  V30 27 H 0.557992 -1.397587 -0.411994 0
M  V30 28 H -1.664766 0.387419 0.548979 0
M  V30 29 H -3.753439 1.509773 -0.193882 0
M  V30 30 H -4.886704 3.523044 -0.985970 0
M  V30 31 H -3.767964 5.636297 -1.340136 0
M  V30 32 H -0.173695 3.755637 -0.075944 0
M  V30 END ATOM
M  V30 BEGIN BOND
M  V30 1 1 1 2
M  V30 2 2 2 3
M  V30 3 1 3 4
M  V30 4 1 4 5
M  V30 5 2 5 6
M  V30 6 1 6 7
M  V30 7 2 7 8
M  V30 8 1 8 9
M  V30 9 2 9 10
M  V30 10 2 4 11
M  V30 11 1 11 12
M  V30 12 1 12 13
M  V30 13 2 13 14
M  V30 14 1 14 15
M  V30 15 2 15 16
M  V30 16 1 16 17
M  V30 17 2 17 18
M  V30 18 1 18 19
M  V30 19 2 19 20
M  V30 20 1 12 2
M  V30 21 1 20 15
M  V30 22 1 10 5
M  V30 23 1 1 21
M  V30 24 1 6 22
M  V30 25 1 7 23
M  V30 26 1 8 24
M  V30 27 1 9 25
M  V30 28 1 10 26
M  V30 29 1 11 27
M  V30 30 1 14 28
M  V30 31 1 16 29
M  V30 32 1 17 30
M  V30 33 1 18 31
M  V30 34 1 20 32
M  V30 END BOND
M  V30 END CTAB
M  END
>  <Dataset>  (758) 
ChEMBL_Kinases

>  <Ligand_Instance>  (758) 
nan

>  <PDB_ID>  (758) 
nan

>  <Standardized_SMILES>  (758) 
Sc1nc(-c2ccccc2)cn1/N=C/c1cccnc1

>  <Name>  (758) 
nan

>  <Pocket>  (758) 
nan

>  <ATP_Site>  (758) 
nan

>  <Peripheral>  (758) 
nan

>  <Num_H_Atoms_ProtBoundConf>  (758) 
nan

>  <Num_Resolved_Atoms>  (758) 
nan

>  <Num_Not_Resolved_Atoms>  (758) 
nan

$$$$
CHEMBL3191622
     RDKit          3D

  0  0  0  0  0  0  0  0  0  0999 V3000
M  V30 BEGIN CTAB
M  V30 COUNTS 35 37 0 0 0
M  V30 BEGIN ATOM
M  V30 1 C -0.977679 -1.493743 2.114174 0
M  V30 2 N 0.271246 -1.228796 1.429072 0
M  V30 3 C 1.295767 -2.184055 1.198816 0
M  V30 4 O 1.214594 -3.405231 1.588307 0
M  V30 5 C 2.483218 -1.735189 0.486503 0
M  V30 6 C 3.336232 -2.453104 -0.181553 0
M  V30 7 C 4.454623 -1.767219 -0.812204 0
M  V30 8 C 5.317703 -0.733854 -0.464140 0
M  V30 9 C 6.209965 -0.504253 -1.494304 0
M  V30 10 C 5.842222 -1.430058 -2.447667 0
M  V30 11 O 4.842962 -2.135247 -2.036022 0
M  V30 12 S 2.427276 0.056827 0.772638 0
M  V30 13 C 0.609564 0.063473 0.893048 0
M  V30 14 N -0.217288 0.989560 0.569465 0
M  V30 15 C -1.630040 0.918340 0.676263 0
M  V30 16 C -2.158970 0.430453 -0.532016 0
M  V30 17 C -3.513881 0.270254 -0.725513 0
M  V30 18 C -4.397521 0.592582 0.284527 0
M  V30 19 C -3.865677 1.068622 1.460793 0
M  V30 20 C -4.737970 1.423259 2.557601 0
M  V30 21 O -5.977739 1.284224 2.409867 0
M  V30 22 O -4.309425 1.909381 3.770538 0
M  V30 23 C -2.517316 1.240143 1.685281 0
M  V30 24 H -0.930344 -2.527418 2.586034 0
M  V30 25 H -1.065341 -0.831622 3.004522 0
M  V30 26 H -1.856908 -1.549848 1.474957 0
M  V30 27 H 3.230774 -3.526020 -0.273379 0
M  V30 28 H 5.103255 -0.340323 0.526505 0
M  V30 29 H 6.945276 0.276577 -1.361302 0
M  V30 30 H 6.407628 -1.456143 -3.386120 0
M  V30 31 H -1.598798 0.128984 -1.430904 0
M  V30 32 H -3.972729 -0.099534 -1.631176 0
M  V30 33 H -5.464643 0.484377 0.178653 0
M  V30 34 H -4.905430 1.796547 4.591564 0
M  V30 35 H -2.000444 1.596598 2.546459 0
M  V30 END ATOM
M  V30 BEGIN BOND
M  V30 1 1 1 2
M  V30 2 1 2 3
M  V30 3 2 3 4
M  V30 4 1 3 5
M  V30 5 2 5 6
M  V30 6 1 6 7
M  V30 7 2 7 8
M  V30 8 1 8 9
M  V30 9 2 9 10
M  V30 10 1 10 11
M  V30 11 1 5 12
M  V30 12 1 12 13
M  V30 13 2 13 14
M  V30 14 1 14 15
M  V30 15 2 15 16
M  V30 16 1 16 17
M  V30 17 2 17 18
M  V30 18 1 18 19
M  V30 19 1 19 20
M  V30 20 2 20 21
M  V30 21 1 20 22
M  V30 22 2 19 23
M  V30 23 1 13 2
M  V30 24 1 23 15
M  V30 25 1 11 7
M  V30 26 1 1 24
M  V30 27 1 1 25
M  V30 28 1 1 26
M  V30 29 1 6 27
M  V30 30 1 8 28
M  V30 31 1 9 29
M  V30 32 1 10 30
M  V30 33 1 16 31
M  V30 34 1 17 32
M  V30 35 1 18 33
M  V30 36 1 22 34
M  V30 37 1 23 35
M  V30 END BOND
M  V30 END CTAB
M  END
>  <Dataset>  (759) 
ChEMBL_Kinases

>  <Ligand_Instance>  (759) 
nan

>  <PDB_ID>  (759) 
nan

>  <Standardized_SMILES>  (759) 
CN1C(=O)/C(=C/c2ccco2)S/C1=N/c1cccc(C(=O)O)c1

>  <Name>  (759) 
nan

>  <Pocket>  (759) 
nan

>  <ATP_Site>  (759) 
nan

>  <Peripheral>  (759) 
nan

>  <Num_H_Atoms_ProtBoundConf>  (759) 
nan

>  <Num_Resolved_Atoms>  (759) 
nan

>  <Num_Not_Resolved_Atoms>  (759) 
nan

$$$$
CHEMBL319171
     RDKit          3D

  0  0  0  0  0  0  0  0  0  0999 V3000
M  V30 BEGIN CTAB
M  V30 COUNTS 29 31 0 0 0
M  V30 BEGIN ATOM
M  V30 1 C 1.016009 -4.350473 -1.191017 0
M  V30 2 O 2.256100 -3.788737 -0.899312 0
M  V30 3 C 2.300965 -2.552128 -0.239549 0
M  V30 4 C 3.551952 -2.091072 -0.001649 0
M  V30 5 C 3.652857 -0.885404 0.641266 0
M  V30 6 C 2.449169 -0.232593 0.997631 0
M  V30 7 S 2.213619 1.384876 1.863592 0
M  V30 8 C 0.433366 1.271671 1.814945 0
M  V30 9 C 0.109040 0.044590 1.161323 0
M  V30 10 C 1.168472 -0.707330 0.752569 0
M  V30 11 C 1.149056 -1.918454 0.106234 0
M  V30 12 N -1.249637 -0.328869 0.968152 0
M  V30 13 C -2.421531 0.557111 0.882771 0
M  V30 14 C -2.717041 1.162101 2.215944 0
M  V30 15 N -1.876605 2.360196 2.359206 0
M  V30 16 C -0.455533 2.320443 2.380891 0
M  V30 17 O 0.251003 3.229094 2.917142 0
M  V30 18 H 1.152765 -5.380949 -1.604991 0
M  V30 19 H 0.333295 -4.440510 -0.331917 0
M  V30 20 H 0.505276 -3.767468 -1.985038 0
M  V30 21 H 4.516171 -2.509759 -0.231485 0
M  V30 22 H 4.549665 -0.386534 0.901675 0
M  V30 23 H 0.223994 -2.411674 -0.150973 0
M  V30 24 H -1.376886 -1.383139 0.880400 0
M  V30 25 H -2.204517 1.404764 0.179289 0
M  V30 26 H -3.271486 -0.025184 0.545054 0
M  V30 27 H -2.580489 0.462244 3.041202 0
M  V30 28 H -3.776601 1.537305 2.213465 0
M  V30 29 H -2.179549 3.373486 2.461874 0
M  V30 END ATOM
M  V30 BEGIN BOND
M  V30 1 1 1 2
M  V30 2 1 2 3
M  V30 3 2 3 4
M  V30 4 1 4 5
M  V30 5 2 5 6
M  V30 6 1 6 7
M  V30 7 1 7 8
M  V30 8 2 8 9
M  V30 9 1 9 10
M  V30 10 2 10 11
M  V30 11 1 9 12
M  V30 12 1 12 13
M  V30 13 1 13 14
M  V30 14 1 14 15
M  V30 15 1 15 16
M  V30 16 2 16 17
M  V30 17 1 11 3
M  V30 18 1 10 6
M  V30 19 1 16 8
M  V30 20 1 1 18
M  V30 21 1 1 19
M  V30 22 1 1 20
M  V30 23 1 4 21
M  V30 24 1 5 22
M  V30 25 1 11 23
M  V30 26 1 12 24
M  V30 27 1 13 25
M  V30 28 1 13 26
M  V30 29 1 14 27
M  V30 30 1 14 28
M  V30 31 1 15 29
M  V30 END BOND
M  V30 END CTAB
M  END
>  <Dataset>  (760) 
ChEMBL_Kinases

>  <Ligand_Instance>  (760) 
nan

>  <PDB_ID>  (760) 
nan

>  <Standardized_SMILES>  (760) 
COc1ccc2sc3c(c2c1)NCCNC3=O

>  <Name>  (760) 
nan

>  <Pocket>  (760) 
nan

>  <ATP_Site>  (760) 
nan

>  <Peripheral>  (760) 
nan

>  <Num_H_Atoms_ProtBoundConf>  (760) 
nan

>  <Num_Resolved_Atoms>  (760) 
nan

>  <Num_Not_Resolved_Atoms>  (760) 
nan

$$$$
CHEMBL3192140
     RDKit          3D

  0  0  0  0  0  0  0  0  0  0999 V3000
M  V30 BEGIN CTAB
M  V30 COUNTS 72 76 0 0 0
M  V30 BEGIN ATOM
M  V30 1 C 3.006274 3.431395 4.195337 0
M  V30 2 O 3.151935 2.072183 3.889261 0
M  V30 3 C 2.615905 1.433244 2.783859 0
M  V30 4 C 2.822554 0.085093 2.580056 0
M  V30 5 C 2.276207 -0.551904 1.458973 0
M  V30 6 C 1.512171 0.167462 0.527362 0
M  V30 7 N 1.110890 -0.709623 -0.501230 0
M  V30 8 C 0.016725 -1.352921 -0.447173 0
M  V30 9 C -0.472496 -2.273615 -1.455547 0
M  V30 10 N 0.109678 -2.590004 -2.564607 0
M  V30 11 C 1.373969 -1.959434 -2.818326 0
M  V30 12 C 2.629136 -2.510860 -2.620024 0
M  V30 13 C 3.743210 -1.751844 -2.921276 0
M  V30 14 C 3.645302 -0.465276 -3.412141 0
M  V30 15 O 4.837997 0.207112 -3.681071 0
M  V30 16 C 4.709846 1.534519 -4.187271 0
M  V30 17 C 2.378790 0.070691 -3.604423 0
M  V30 18 C 1.265185 -0.672152 -3.309356 0
M  V30 19 N -1.737528 -2.743532 -0.938556 0
M  V30 20 C -2.499443 -3.682047 -1.698306 0
M  V30 21 C -3.422319 -3.213227 -2.611723 0
M  V30 22 C -4.186597 -4.077596 -3.372992 0
M  V30 23 C -4.043493 -5.443829 -3.236340 0
M  V30 24 O -4.732281 -6.435742 -3.923198 0
M  V30 25 C -5.712112 -6.117387 -4.893494 0
M  V30 26 C -3.106488 -5.895973 -2.308868 0
M  V30 27 C -2.326095 -5.043547 -1.531665 0
M  V30 28 C -1.986514 -2.117758 0.337134 0
M  V30 29 S -3.377621 -2.515141 1.101127 0
M  V30 30 N -0.878718 -1.243568 0.640100 0
M  V30 31 C -1.012713 -0.564392 1.854097 0
M  V30 32 C -1.708995 0.652426 1.785275 0
M  V30 33 C -1.973471 1.475543 2.832358 0
M  V30 34 C -1.529703 1.106404 4.084881 0
M  V30 35 N -1.789668 1.945519 5.202513 0
M  V30 36 C -2.519420 3.177260 4.999634 0
M  V30 37 C -1.339995 1.590754 6.528636 0
M  V30 38 C -0.838450 -0.079348 4.219704 0
M  V30 39 C -0.592306 -0.884586 3.128500 0
M  V30 40 C 1.319765 1.513809 0.753075 0
M  V30 41 C 1.863530 2.125532 1.860054 0
M  V30 42 H 1.988200 3.751633 3.871338 0
M  V30 43 H 3.109313 3.614470 5.305028 0
M  V30 44 H 3.723472 4.072170 3.642877 0
M  V30 45 H 3.417569 -0.418082 3.328149 0
M  V30 46 H 2.536078 -1.619164 1.450873 0
M  V30 47 H 2.625141 -3.507642 -2.238957 0
M  V30 48 H 4.712968 -2.220501 -2.751757 0
M  V30 49 H 4.192967 2.165854 -3.425198 0
M  V30 50 H 4.024345 1.573741 -5.076430 0
M  V30 51 H 5.666125 1.953853 -4.536179 0
M  V30 52 H 2.351912 1.089313 -3.993586 0
M  V30 53 H 0.342276 -0.137735 -3.504489 0
M  V30 54 H -3.602262 -2.154493 -2.786112 0
M  V30 55 H -4.912748 -3.759786 -4.091920 0
M  V30 56 H -6.666599 -5.943309 -4.343147 0
M  V30 57 H -5.867748 -6.919985 -5.622999 0
M  V30 58 H -5.496904 -5.175765 -5.439518 0
M  V30 59 H -2.935657 -6.956602 -2.143549 0
M  V30 60 H -1.618977 -5.434764 -0.831887 0
M  V30 61 H -2.099421 1.025998 0.828446 0
M  V30 62 H -2.503550 2.393868 2.756261 0
M  V30 63 H -3.582634 3.031932 4.769271 0
M  V30 64 H -2.472836 3.845447 5.881206 0
M  V30 65 H -1.966522 3.738802 4.192863 0
M  V30 66 H -1.227595 2.490068 7.182520 0
M  V30 67 H -1.983045 0.855589 7.038643 0
M  V30 68 H -0.327791 1.164416 6.443914 0
M  V30 69 H -0.468697 -0.419259 5.167635 0
M  V30 70 H -0.053390 -1.833840 3.159920 0
M  V30 71 H 0.720172 1.939538 -0.032909 0
M  V30 72 H 1.655469 3.182459 1.945975 0
M  V30 END ATOM
M  V30 BEGIN BOND
M  V30 1 1 1 2
M  V30 2 1 2 3
M  V30 3 2 3 4
M  V30 4 1 4 5
M  V30 5 2 5 6
M  V30 6 1 6 7
M  V30 7 2 7 8
M  V30 8 1 8 9
M  V30 9 2 9 10
M  V30 10 1 10 11
M  V30 11 2 11 12
M  V30 12 1 12 13
M  V30 13 2 13 14
M  V30 14 1 14 15
M  V30 15 1 15 16
M  V30 16 1 14 17
M  V30 17 2 17 18
M  V30 18 1 9 19
M  V30 19 1 19 20
M  V30 20 2 20 21
M  V30 21 1 21 22
M  V30 22 2 22 23
M  V30 23 1 23 24
M  V30 24 1 24 25
M  V30 25 1 23 26
M  V30 26 2 26 27
M  V30 27 1 19 28
M  V30 28 2 28 29
M  V30 29 1 28 30
M  V30 30 1 30 31
M  V30 31 2 31 32
M  V30 32 1 32 33
M  V30 33 2 33 34
M  V30 34 1 34 35
M  V30 35 1 35 36
M  V30 36 1 35 37
M  V30 37 1 34 38
M  V30 38 2 38 39
M  V30 39 1 6 40
M  V30 40 2 40 41
M  V30 41 1 41 3
M  V30 42 1 30 8
M  V30 43 1 39 31
M  V30 44 1 18 11
M  V30 45 1 27 20
M  V30 46 1 1 42
M  V30 47 1 1 43
M  V30 48 1 1 44
M  V30 49 1 4 45
M  V30 50 1 5 46
M  V30 51 1 12 47
M  V30 52 1 13 48
M  V30 53 1 16 49
M  V30 54 1 16 50
M  V30 55 1 16 51
M  V30 56 1 17 52
M  V30 57 1 18 53
M  V30 58 1 21 54
M  V30 59 1 22 55
M  V30 60 1 25 56
M  V30 61 1 25 57
M  V30 62 1 25 58
M  V30 63 1 26 59
M  V30 64 1 27 60
M  V30 65 1 32 61
M  V30 66 1 33 62
M  V30 67 1 36 63
M  V30 68 1 36 64
M  V30 69 1 36 65
M  V30 70 1 37 66
M  V30 71 1 37 67
M  V30 72 1 37 68
M  V30 73 1 38 69
M  V30 74 1 39 70
M  V30 75 1 40 71
M  V30 76 1 41 72
M  V30 END BOND
M  V30 END CTAB
M  END
>  <Dataset>  (761) 
ChEMBL_Kinases

>  <Ligand_Instance>  (761) 
nan

>  <PDB_ID>  (761) 
nan

>  <Standardized_SMILES>  (761) 
COc1ccc(/N=C2C(=N\c3ccc(OC)cc3)/N(c3ccc(OC)cc3)C(=S)N/2c2ccc(N(C)C)cc2)cc1

>  <Name>  (761) 
nan

>  <Pocket>  (761) 
nan

>  <ATP_Site>  (761) 
nan

>  <Peripheral>  (761) 
nan

>  <Num_H_Atoms_ProtBoundConf>  (761) 
nan

>  <Num_Resolved_Atoms>  (761) 
nan

>  <Num_Not_Resolved_Atoms>  (761) 
nan

$$$$
CHEMBL3192336
     RDKit          3D

  0  0  0  0  0  0  0  0  0  0999 V3000
M  V30 BEGIN CTAB
M  V30 COUNTS 54 56 0 0 0
M  V30 BEGIN ATOM
M  V30 1 C 3.918149 -3.444450 3.577380 0
M  V30 2 C 3.106780 -3.444392 2.529319 0
M  V30 3 C 1.946829 -2.483205 2.314057 0
M  V30 4 N 2.117080 -1.722132 1.108920 0
M  V30 5 C 2.808337 -0.472648 1.129815 0
M  V30 6 O 2.844223 0.398472 2.072995 0
M  V30 7 C 3.597044 -0.091100 -0.064182 0
M  V30 8 C 3.355321 1.351853 -0.448340 0
M  V30 9 C 1.924395 1.598929 -0.763593 0
M  V30 10 O 1.010627 0.736413 -0.726326 0
M  V30 11 N 1.540967 2.915240 -1.140355 0
M  V30 12 C 0.130170 3.024298 -1.419752 0
M  V30 13 C -0.690395 3.347180 -0.358769 0
M  V30 14 C -2.069350 3.482486 -0.495531 0
M  V30 15 C -2.618587 3.278810 -1.764045 0
M  V30 16 O -3.996402 3.425814 -1.844815 0
M  V30 17 C -4.712622 3.257834 -3.038734 0
M  V30 18 C -1.806180 2.957751 -2.821048 0
M  V30 19 C -0.434986 2.826395 -2.670005 0
M  V30 20 S 2.917009 -1.230422 -1.300953 0
M  V30 21 C 1.701101 -1.997509 -0.200595 0
M  V30 22 N 0.692704 -2.631664 -0.639459 0
M  V30 23 C -0.223292 -3.189874 0.247965 0
M  V30 24 C -0.202572 -4.584938 0.390406 0
M  V30 25 C -1.174306 -5.102482 1.255949 0
M  V30 26 C -2.069831 -4.279011 1.904714 0
M  V30 27 S -3.274557 -4.947332 2.980004 0
M  V30 28 N -2.641500 -5.028363 4.581164 0
M  V30 29 O -3.766323 -6.296377 2.529013 0
M  V30 30 O -4.489957 -4.030757 2.960021 0
M  V30 31 C -2.047520 -2.894855 1.727808 0
M  V30 32 C -1.108503 -2.302243 0.880898 0
M  V30 33 H 3.729708 -2.688890 4.342587 0
M  V30 34 H 4.240184 -3.036461 4.538057 0
M  V30 35 H 3.853424 -4.226267 2.450012 0
M  V30 36 H 1.079479 -3.115098 2.310825 0
M  V30 37 H 2.012973 -1.836029 3.228830 0
M  V30 38 H 4.682381 -0.246855 0.077933 0
M  V30 39 H 4.024014 1.614278 -1.281026 0
M  V30 40 H 3.620209 1.971356 0.433426 0
M  V30 41 H 2.288545 3.667784 -1.181674 0
M  V30 42 H -0.275251 3.510081 0.641791 0
M  V30 43 H -2.660308 3.740905 0.390289 0
M  V30 44 H -4.734253 4.166898 -3.647942 0
M  V30 45 H -5.730239 2.904737 -2.749471 0
M  V30 46 H -4.241078 2.430213 -3.640070 0
M  V30 47 H -2.242355 2.804965 -3.786069 0
M  V30 48 H 0.231316 2.576857 -3.471770 0
M  V30 49 H 0.529461 -5.158081 -0.151383 0
M  V30 50 H -1.185580 -6.174577 1.387987 0
M  V30 51 H -2.431568 -4.038355 4.880094 0
M  V30 52 H -3.425264 -5.332259 5.229370 0
M  V30 53 H -2.732579 -2.239735 2.221213 0
M  V30 54 H -1.026113 -1.246641 0.691768 0
M  V30 END ATOM
M  V30 BEGIN BOND
M  V30 1 2 1 2
M  V30 2 1 2 3
M  V30 3 1 3 4
M  V30 4 1 4 5
M  V30 5 2 5 6
M  V30 6 1 5 7
M  V30 7 1 7 8
M  V30 8 1 8 9
M  V30 9 2 9 10
M  V30 10 1 9 11
M  V30 11 1 11 12
M  V30 12 2 12 13
M  V30 13 1 13 14
M  V30 14 2 14 15
M  V30 15 1 15 16
M  V30 16 1 16 17
M  V30 17 1 15 18
M  V30 18 2 18 19
M  V30 19 1 7 20
M  V30 20 1 20 21
M  V30 21 2 21 22
M  V30 22 1 22 23
M  V30 23 2 23 24
M  V30 24 1 24 25
M  V30 25 2 25 26
M  V30 26 1 26 27
M  V30 27 1 27 28
M  V30 28 2 27 29
M  V30 29 2 27 30
M  V30 30 1 26 31
M  V30 31 2 31 32
M  V30 32 1 21 4
M  V30 33 1 32 23
M  V30 34 1 19 12
M  V30 35 1 1 33
M  V30 36 1 1 34
M  V30 37 1 2 35
M  V30 38 1 3 36
M  V30 39 1 3 37
M  V30 40 1 7 38
M  V30 41 1 8 39
M  V30 42 1 8 40
M  V30 43 1 11 41
M  V30 44 1 13 42
M  V30 45 1 14 43
M  V30 46 1 17 44
M  V30 47 1 17 45
M  V30 48 1 17 46
M  V30 49 1 18 47
M  V30 50 1 19 48
M  V30 51 1 24 49
M  V30 52 1 25 50
M  V30 53 1 28 51
M  V30 54 1 28 52
M  V30 55 1 31 53
M  V30 56 1 32 54
M  V30 END BOND
M  V30 END CTAB
M  END
>  <Dataset>  (762) 
ChEMBL_Kinases

>  <Ligand_Instance>  (762) 
nan

>  <PDB_ID>  (762) 
nan

>  <Standardized_SMILES>  (762) 
C=CCN1C(=O)C(CC(=O)Nc2ccc(OC)cc2)S/C1=N/c1ccc(S(N)(=O)=O)cc1

>  <Name>  (762) 
nan

>  <Pocket>  (762) 
nan

>  <ATP_Site>  (762) 
nan

>  <Peripheral>  (762) 
nan

>  <Num_H_Atoms_ProtBoundConf>  (762) 
nan

>  <Num_Resolved_Atoms>  (762) 
nan

>  <Num_Not_Resolved_Atoms>  (762) 
nan

$$$$
CHEMBL3192376
     RDKit          3D

  0  0  0  0  0  0  0  0  0  0999 V3000
M  V30 BEGIN CTAB
M  V30 COUNTS 39 41 0 0 0
M  V30 BEGIN ATOM
M  V30 1 C 0.661720 1.297760 5.128058 0
M  V30 2 C 0.150235 0.371411 4.312403 0
M  V30 3 C 0.586869 -0.030502 2.971511 0
M  V30 4 O -0.394855 0.144953 1.957901 0
M  V30 5 C 0.007542 -0.217547 0.659433 0
M  V30 6 O 1.211802 0.372490 0.293423 0
M  V30 7 C -0.767628 -1.046770 -0.049569 0
M  V30 8 C -1.999038 -1.587424 0.454864 0
M  V30 9 C -2.462953 -1.193055 1.790238 0
M  V30 10 N -2.683208 -2.388666 -0.227382 0
M  V30 11 C -2.114362 -2.757886 -1.654636 0
M  V30 12 S -2.744782 -3.814998 -2.857784 0
M  V30 13 C -1.378273 -3.538743 -4.034644 0
M  V30 14 C -1.300085 -4.185842 -5.348010 0
M  V30 15 N -1.239540 -4.672443 -6.380841 0
M  V30 16 C -0.585326 -2.668227 -3.384387 0
M  V30 17 N 0.583873 -2.281153 -4.107038 0
M  V30 18 C -0.909990 -2.236945 -2.171963 0
M  V30 19 C -0.153450 -1.275142 -1.329985 0
M  V30 20 C 0.172725 -0.008741 -2.069209 0
M  V30 21 C 1.242028 0.468922 -2.829840 0
M  V30 22 C 0.860214 1.747070 -3.214598 0
M  V30 23 C -0.380693 1.988977 -2.692617 0
M  V30 24 O -0.743408 0.926316 -2.026583 0
M  V30 25 H 1.399258 1.483178 4.338964 0
M  V30 26 H 0.130434 1.383567 6.071242 0
M  V30 27 H -0.724086 -0.267399 4.532079 0
M  V30 28 H 0.906253 -1.082952 2.963420 0
M  V30 29 H 1.489618 0.548928 2.639709 0
M  V30 30 H 1.292431 1.385107 0.411092 0
M  V30 31 H -3.465556 -1.661168 1.981827 0
M  V30 32 H -2.704725 -0.091928 1.879001 0
M  V30 33 H -1.838998 -1.561587 2.631091 0
M  V30 34 H 1.471641 -2.767123 -3.860444 0
M  V30 35 H 0.707091 -1.558990 -4.877834 0
M  V30 36 H 0.853372 -1.761211 -1.158894 0
M  V30 37 H 2.064434 -0.218514 -2.936114 0
M  V30 38 H 1.569598 2.295009 -3.824003 0
M  V30 39 H -0.822294 2.951607 -2.904079 0
M  V30 END ATOM
M  V30 BEGIN BOND
M  V30 1 2 1 2
M  V30 2 1 2 3
M  V30 3 1 3 4
M  V30 4 1 4 5
M  V30 5 1 5 6
M  V30 6 2 5 7
M  V30 7 1 7 8
M  V30 8 1 8 9
M  V30 9 2 8 10
M  V30 10 1 10 11
M  V30 11 1 11 12
M  V30 12 1 12 13
M  V30 13 1 13 14
M  V30 14 3 14 15
M  V30 15 2 13 16
M  V30 16 1 16 17
M  V30 17 1 16 18
M  V30 18 1 18 19
M  V30 19 1 19 20
M  V30 20 2 20 21
M  V30 21 1 21 22
M  V30 22 2 22 23
M  V30 23 1 23 24
M  V30 24 1 19 7
M  V30 25 1 24 20
M  V30 26 2 18 11
M  V30 27 1 1 25
M  V30 28 1 1 26
M  V30 29 1 2 27
M  V30 30 1 3 28
M  V30 31 1 3 29
M  V30 32 1 6 30
M  V30 33 1 9 31
M  V30 34 1 9 32
M  V30 35 1 9 33
M  V30 36 1 17 34
M  V30 37 1 17 35
M  V30 38 1 19 36
M  V30 39 1 21 37
M  V30 40 1 22 38
M  V30 41 1 23 39
M  V30 END BOND
M  V30 END CTAB
M  END
>  <Dataset>  (763) 
ChEMBL_Kinases

>  <Ligand_Instance>  (763) 
nan

>  <PDB_ID>  (763) 
nan

>  <Standardized_SMILES>  (763) 
C=CCO/C(O)=C1\C(C)=Nc2sc(C#N)c(N)c2C1c1ccco1

>  <Name>  (763) 
nan

>  <Pocket>  (763) 
nan

>  <ATP_Site>  (763) 
nan

>  <Peripheral>  (763) 
nan

>  <Num_H_Atoms_ProtBoundConf>  (763) 
nan

>  <Num_Resolved_Atoms>  (763) 
nan

>  <Num_Not_Resolved_Atoms>  (763) 
nan

$$$$
CHEMBL3192942
     RDKit          3D

  0  0  0  0  0  0  0  0  0  0999 V3000
M  V30 BEGIN CTAB
M  V30 COUNTS 44 47 0 0 0
M  V30 BEGIN ATOM
M  V30 1 C 2.477591 -5.265435 2.791128 0
M  V30 2 C 1.702143 -4.748638 1.597538 0
M  V30 3 O 1.668734 -3.359444 1.532977 0
M  V30 4 C 1.044241 -2.608039 0.569389 0
M  V30 5 O 0.441791 -3.257851 -0.499596 0
M  V30 6 C 1.036920 -1.289422 0.690914 0
M  V30 7 C 1.674693 -0.584880 1.824265 0
M  V30 8 C 2.358462 -1.390883 2.881185 0
M  V30 9 N 1.619123 0.704223 1.862245 0
M  V30 10 C 0.981328 1.513320 0.882123 0
M  V30 11 C 0.404704 0.901020 -0.140024 0
M  V30 12 C -0.188231 1.924683 -1.023751 0
M  V30 13 O -0.837410 1.832213 -2.114094 0
M  V30 14 C 0.099950 3.213662 -0.413423 0
M  V30 15 C -0.150066 4.539910 -0.695493 0
M  V30 16 C 0.260139 5.592385 0.094102 0
M  V30 17 C 0.967947 5.330486 1.246200 0
M  V30 18 C 1.230814 4.005022 1.549752 0
M  V30 19 C 0.813413 2.956710 0.748600 0
M  V30 20 C 0.334445 -0.559949 -0.404797 0
M  V30 21 C -1.065450 -1.014674 -0.568133 0
M  V30 22 C -1.834034 -0.792190 0.578593 0
M  V30 23 C -3.172652 -1.170849 0.569445 0
M  V30 24 C -3.719453 -1.753817 -0.555877 0
M  V30 25 N -2.950441 -1.953061 -1.642043 0
M  V30 26 C -1.650519 -1.601712 -1.676018 0
M  V30 27 H 2.368736 -6.371896 2.793318 0
M  V30 28 H 3.562178 -5.052856 2.698220 0
M  V30 29 H 2.063278 -4.804114 3.711450 0
M  V30 30 H 2.254571 -5.115634 0.683909 0
M  V30 31 H 0.739787 -5.264335 1.571689 0
M  V30 32 H 0.952852 -3.925709 -1.085067 0
M  V30 33 H 1.618302 -2.019084 3.447306 0
M  V30 34 H 3.234640 -1.936198 2.526047 0
M  V30 35 H 2.708588 -0.654062 3.659295 0
M  V30 36 H -0.708180 4.742982 -1.604296 0
M  V30 37 H 0.045845 6.624363 -0.158309 0
M  V30 38 H 1.331492 6.077632 1.927195 0
M  V30 39 H 1.793522 3.745443 2.460467 0
M  V30 40 H 0.881536 -0.760409 -1.331307 0
M  V30 41 H -1.469707 -0.340923 1.492951 0
M  V30 42 H -3.787608 -1.007140 1.449492 0
M  V30 43 H -4.767343 -2.044056 -0.546858 0
M  V30 44 H -0.972785 -1.727612 -2.503124 0
M  V30 END ATOM
M  V30 BEGIN BOND
M  V30 1 1 1 2
M  V30 2 1 2 3
M  V30 3 1 3 4
M  V30 4 1 4 5
M  V30 5 2 4 6
M  V30 6 1 6 7
M  V30 7 1 7 8
M  V30 8 2 7 9
M  V30 9 1 9 10
M  V30 10 2 10 11
M  V30 11 1 11 12
M  V30 12 2 12 13
M  V30 13 1 12 14
M  V30 14 2 14 15
M  V30 15 1 15 16
M  V30 16 2 16 17
M  V30 17 1 17 18
M  V30 18 2 18 19
M  V30 19 1 11 20
M  V30 20 1 20 21
M  V30 21 2 21 22
M  V30 22 1 22 23
M  V30 23 2 23 24
M  V30 24 1 24 25
M  V30 25 2 25 26
M  V30 26 1 20 6
M  V30 27 1 26 21
M  V30 28 1 19 10
M  V30 29 1 19 14
M  V30 30 1 1 27
M  V30 31 1 1 28
M  V30 32 1 1 29
M  V30 33 1 2 30
M  V30 34 1 2 31
M  V30 35 1 5 32
M  V30 36 1 8 33
M  V30 37 1 8 34
M  V30 38 1 8 35
M  V30 39 1 15 36
M  V30 40 1 16 37
M  V30 41 1 17 38
M  V30 42 1 18 39
M  V30 43 1 20 40
M  V30 44 1 22 41
M  V30 45 1 23 42
M  V30 46 1 24 43
M  V30 47 1 26 44
M  V30 END BOND
M  V30 END CTAB
M  END
>  <Dataset>  (764) 
ChEMBL_Kinases

>  <Ligand_Instance>  (764) 
nan

>  <PDB_ID>  (764) 
nan

>  <Standardized_SMILES>  (764) 
CCO/C(O)=C1\C(C)=NC2=C(C(=O)c3ccccc32)C1c1cccnc1

>  <Name>  (764) 
nan

>  <Pocket>  (764) 
nan

>  <ATP_Site>  (764) 
nan

>  <Peripheral>  (764) 
nan

>  <Num_H_Atoms_ProtBoundConf>  (764) 
nan

>  <Num_Resolved_Atoms>  (764) 
nan

>  <Num_Not_Resolved_Atoms>  (764) 
nan

$$$$
CHEMBL3192608
     RDKit          3D

  0  0  0  0  0  0  0  0  0  0999 V3000
M  V30 BEGIN CTAB
M  V30 COUNTS 45 48 0 0 0
M  V30 BEGIN ATOM
M  V30 1 C 1.345796 -2.016365 2.010694 0
M  V30 2 C 1.135406 -0.564370 1.855557 0
M  V30 3 C 1.871744 0.187843 0.961509 0
M  V30 4 C 2.925239 -0.276919 0.061943 0
M  V30 5 N 3.598600 0.431675 -0.760790 0
M  V30 6 N 4.603847 -0.117602 -1.593085 0
M  V30 7 C 4.111153 -0.635097 -2.752169 0
M  V30 8 N 5.156145 -1.132454 -3.470697 0
M  V30 9 N 6.254211 -0.922120 -2.765790 0
M  V30 10 C 5.936665 -0.302541 -1.614371 0
M  V30 11 C 1.441144 1.498147 1.053243 0
M  V30 12 C 1.811117 2.664748 0.409767 0
M  V30 13 C 1.196270 3.877362 0.702902 0
M  V30 14 C 0.206703 3.841465 1.664260 0
M  V30 15 C -0.177641 2.682371 2.319719 0
M  V30 16 C 0.451399 1.506247 2.003934 0
M  V30 17 N 0.274612 0.257905 2.481583 0
M  V30 18 C -0.650769 -0.229406 3.492342 0
M  V30 19 C -1.964030 -0.655466 2.836860 0
M  V30 20 O -1.763971 -1.676238 1.901033 0
M  V30 21 C -2.756521 -2.277396 1.139304 0
M  V30 22 C -2.243708 -3.264250 0.295153 0
M  V30 23 C -3.047564 -4.002605 -0.561672 0
M  V30 24 C -4.399606 -3.718900 -0.547470 0
M  V30 25 C -4.927566 -2.753851 0.273008 0
M  V30 26 C -4.123840 -2.024214 1.121491 0
M  V30 27 H 1.211239 -2.569825 1.053912 0
M  V30 28 H 2.408468 -2.191772 2.331312 0
M  V30 29 H 0.740049 -2.453220 2.834848 0
M  V30 30 H 3.192384 -1.327257 0.063564 0
M  V30 31 H 3.158206 -0.778607 -3.286182 0
M  V30 32 H 6.439968 0.073809 -0.733668 0
M  V30 33 H 2.603633 2.628439 -0.344128 0
M  V30 34 H 1.533980 4.729706 0.167890 0
M  V30 35 H -0.254157 4.801376 1.871424 0
M  V30 36 H -0.966102 2.723349 3.068559 0
M  V30 37 H -0.197440 -1.074817 4.049897 0
M  V30 38 H -0.889412 0.624002 4.161026 0
M  V30 39 H -2.669997 -0.937705 3.629289 0
M  V30 40 H -2.369511 0.275555 2.360762 0
M  V30 41 H -1.180922 -3.542169 0.231618 0
M  V30 42 H -2.693798 -4.763534 -1.220464 0
M  V30 43 H -5.126066 -4.242144 -1.184413 0
M  V30 44 H -5.988712 -2.485789 0.327461 0
M  V30 45 H -4.387810 -1.240369 1.819181 0
M  V30 END ATOM
M  V30 BEGIN BOND
M  V30 1 1 1 2
M  V30 2 2 2 3
M  V30 3 1 3 4
M  V30 4 2 4 5
M  V30 5 1 5 6
M  V30 6 1 6 7
M  V30 7 2 7 8
M  V30 8 1 8 9
M  V30 9 2 9 10
M  V30 10 1 3 11
M  V30 11 2 11 12
M  V30 12 1 12 13
M  V30 13 2 13 14
M  V30 14 1 14 15
M  V30 15 2 15 16
M  V30 16 1 16 17
M  V30 17 1 17 18
M  V30 18 1 18 19
M  V30 19 1 19 20
M  V30 20 1 20 21
M  V30 21 2 21 22
M  V30 22 1 22 23
M  V30 23 2 23 24
M  V30 24 1 24 25
M  V30 25 2 25 26
M  V30 26 1 17 2
M  V30 27 1 26 21
M  V30 28 1 10 6
M  V30 29 1 16 11
M  V30 30 1 1 27
M  V30 31 1 1 28
M  V30 32 1 1 29
M  V30 33 1 4 30
M  V30 34 1 7 31
M  V30 35 1 10 32
M  V30 36 1 12 33
M  V30 37 1 13 34
M  V30 38 1 14 35
M  V30 39 1 15 36
M  V30 40 1 18 37
M  V30 41 1 18 38
M  V30 42 1 19 39
M  V30 43 1 19 40
M  V30 44 1 22 41
M  V30 45 1 23 42
M  V30 46 1 24 43
M  V30 47 1 25 44
M  V30 48 1 26 45
M  V30 END BOND
M  V30 END CTAB
M  END
>  <Dataset>  (765) 
ChEMBL_Kinases

>  <Ligand_Instance>  (765) 
nan

>  <PDB_ID>  (765) 
nan

>  <Standardized_SMILES>  (765) 
Cc1c(/C=N/n2cnnc2)c2ccccc2n1CCOc1ccccc1

>  <Name>  (765) 
nan

>  <Pocket>  (765) 
nan

>  <ATP_Site>  (765) 
nan

>  <Peripheral>  (765) 
nan

>  <Num_H_Atoms_ProtBoundConf>  (765) 
nan

>  <Num_Resolved_Atoms>  (765) 
nan

>  <Num_Not_Resolved_Atoms>  (765) 
nan

$$$$
CHEMBL3192633
     RDKit          3D

  0  0  0  0  0  0  0  0  0  0999 V3000
M  V30 BEGIN CTAB
M  V30 COUNTS 39 41 0 0 0
M  V30 BEGIN ATOM
M  V30 1 C 0.962103 0.064521 0.404475 0
M  V30 2 N 0.221013 -0.537015 -0.444099 0
M  V30 3 N -0.776789 0.068699 -1.214085 0
M  V30 4 C -1.918928 0.425126 -0.432409 0
M  V30 5 C -2.459688 -0.841646 0.177579 0
M  V30 6 C -2.070905 -1.337732 1.398924 0
M  V30 7 C -2.603433 -2.507033 1.906735 0
M  V30 8 C -3.555580 -3.222422 1.192323 0
M  V30 9 C -3.974414 -2.758935 -0.039666 0
M  V30 10 C -3.419474 -1.587521 -0.513142 0
M  V30 11 C -0.581534 0.262661 -2.609621 0
M  V30 12 C -1.523815 0.850743 -3.423082 0
M  V30 13 C -1.352347 1.046831 -4.778045 0
M  V30 14 C -0.166737 0.632791 -5.369293 0
M  V30 15 C 0.791450 0.039396 -4.563750 0
M  V30 16 C 0.594683 -0.148486 -3.193156 0
M  V30 17 C 2.009872 -0.586324 1.209078 0
M  V30 18 C 2.762896 0.146578 2.104252 0
M  V30 19 C 3.723422 -0.572640 2.810733 0
M  V30 20 C 3.916075 -1.945913 2.628920 0
M  V30 21 N 3.123579 -2.573168 1.724673 0
M  V30 22 C 2.173645 -1.942382 1.004820 0
M  V30 23 H 0.763898 1.133250 0.501262 0
M  V30 24 H -2.736512 0.813961 -1.036624 0
M  V30 25 H -1.703635 1.156853 0.372488 0
M  V30 26 H -1.337460 -0.790824 1.954920 0
M  V30 27 H -2.267339 -2.872233 2.887819 0
M  V30 28 H -3.963596 -4.142818 1.610099 0
M  V30 29 H -4.713621 -3.295502 -0.616251 0
M  V30 30 H -3.744715 -1.212179 -1.488794 0
M  V30 31 H -2.465011 1.192298 -3.018078 0
M  V30 32 H -2.115359 1.513976 -5.393097 0
M  V30 33 H 0.051275 0.748694 -6.430422 0
M  V30 34 H 1.757558 -0.318308 -4.943495 0
M  V30 35 H 1.340498 -0.607987 -2.576801 0
M  V30 36 H 2.605487 1.198017 2.234229 0
M  V30 37 H 4.321796 -0.006192 3.517672 0
M  V30 38 H 4.675918 -2.461096 3.201975 0
M  V30 39 H 1.603612 -2.535698 0.316735 0
M  V30 END ATOM
M  V30 BEGIN BOND
M  V30 1 2 1 2
M  V30 2 1 2 3
M  V30 3 1 3 4
M  V30 4 1 4 5
M  V30 5 2 5 6
M  V30 6 1 6 7
M  V30 7 2 7 8
M  V30 8 1 8 9
M  V30 9 2 9 10
M  V30 10 1 3 11
M  V30 11 2 11 12
M  V30 12 1 12 13
M  V30 13 2 13 14
M  V30 14 1 14 15
M  V30 15 2 15 16
M  V30 16 1 1 17
M  V30 17 2 17 18
M  V30 18 1 18 19
M  V30 19 2 19 20
M  V30 20 1 20 21
M  V30 21 2 21 22
M  V30 22 1 10 5
M  V30 23 1 16 11
M  V30 24 1 22 17
M  V30 25 1 1 23
M  V30 26 1 4 24
M  V30 27 1 4 25
M  V30 28 1 6 26
M  V30 29 1 7 27
M  V30 30 1 8 28
M  V30 31 1 9 29
M  V30 32 1 10 30
M  V30 33 1 12 31
M  V30 34 1 13 32
M  V30 35 1 14 33
M  V30 36 1 15 34
M  V30 37 1 16 35
M  V30 38 1 18 36
M  V30 39 1 19 37
M  V30 40 1 20 38
M  V30 41 1 22 39
M  V30 END BOND
M  V30 END CTAB
M  END
>  <Dataset>  (766) 
ChEMBL_Kinases

>  <Ligand_Instance>  (766) 
nan

>  <PDB_ID>  (766) 
nan

>  <Standardized_SMILES>  (766) 
C(=N/N(Cc1ccccc1)c1ccccc1)\c1cccnc1

>  <Name>  (766) 
nan

>  <Pocket>  (766) 
nan

>  <ATP_Site>  (766) 
nan

>  <Peripheral>  (766) 
nan

>  <Num_H_Atoms_ProtBoundConf>  (766) 
nan

>  <Num_Resolved_Atoms>  (766) 
nan

>  <Num_Not_Resolved_Atoms>  (766) 
nan

$$$$
CHEMBL319265
     RDKit          3D

  0  0  0  0  0  0  0  0  0  0999 V3000
M  V30 BEGIN CTAB
M  V30 COUNTS 64 69 0 0 0
M  V30 BEGIN ATOM
M  V30 1 C 1.216048 0.520451 2.779753 0
M  V30 2 N 1.117031 -0.914410 2.608680 0
M  V30 3 C 2.435330 -1.459116 2.561340 0
M  V30 4 C 3.228902 -1.092100 1.324157 0
M  V30 5 N 2.521713 -1.579968 0.188541 0
M  V30 6 C 2.556196 -3.052195 0.196045 0
M  V30 7 C 2.951531 -1.171296 -1.095676 0
M  V30 8 C 2.750990 0.264934 -1.428989 0
M  V30 9 N 1.405337 0.738505 -1.405357 0
M  V30 10 C 0.325326 -0.050977 -1.626114 0
M  V30 11 C -0.812504 0.677274 -1.549166 0
M  V30 12 C -0.387857 1.978832 -1.265903 0
M  V30 13 C -1.042603 3.197965 -1.065075 0
M  V30 14 C -0.396673 4.381781 -0.792855 0
M  V30 15 C 0.976995 4.380376 -0.710818 0
M  V30 16 C 1.670681 3.203565 -0.901583 0
M  V30 17 C 0.988003 2.020795 -1.175605 0
M  V30 18 C -2.187273 0.302977 -1.714003 0
M  V30 19 C -2.926978 -0.500585 -0.990373 0
M  V30 20 C -4.298437 -0.591568 -1.532295 0
M  V30 21 O -5.334215 -1.218438 -1.190137 0
M  V30 22 N -4.375837 0.250122 -2.703046 0
M  V30 23 C -3.056120 0.793758 -2.795328 0
M  V30 24 O -2.764144 1.604497 -3.744837 0
M  V30 25 C -2.581906 -1.259928 0.205118 0
M  V30 26 C -1.967574 -0.635383 1.272483 0
M  V30 27 N -1.761771 -1.545982 2.253610 0
M  V30 28 C -2.221214 -2.747327 1.863916 0
M  V30 29 C -2.319437 -4.034401 2.356373 0
M  V30 30 C -2.883287 -5.067311 1.634708 0
M  V30 31 C -3.385435 -4.860748 0.363550 0
M  V30 32 C -3.291646 -3.591980 -0.129101 0
M  V30 33 C -2.732410 -2.574383 0.590289 0
M  V30 34 C -1.149837 -1.224996 3.498135 0
M  V30 35 C 0.319984 -1.572425 3.594259 0
M  V30 36 H 1.957914 0.898831 2.050663 0
M  V30 37 H 1.623675 0.777433 3.784516 0
M  V30 38 H 0.264045 1.053437 2.574075 0
M  V30 39 H 2.398489 -2.576922 2.672161 0
M  V30 40 H 3.090539 -1.122581 3.415986 0
M  V30 41 H 3.577277 -0.068920 1.306076 0
M  V30 42 H 4.169553 -1.716360 1.399023 0
M  V30 43 H 2.656240 -3.479814 -0.804103 0
M  V30 44 H 3.518961 -3.319788 0.723789 0
M  V30 45 H 1.724259 -3.486522 0.752617 0
M  V30 46 H 4.039552 -1.405247 -1.193543 0
M  V30 47 H 2.431352 -1.784910 -1.856245 0
M  V30 48 H 3.101674 0.377312 -2.498240 0
M  V30 49 H 3.416902 0.951825 -0.867591 0
M  V30 50 H 0.424838 -1.104455 -1.831571 0
M  V30 51 H -2.104921 3.252903 -1.118806 0
M  V30 52 H -0.949715 5.304990 -0.643612 0
M  V30 53 H 1.567105 5.273402 -0.498384 0
M  V30 54 H 2.773151 3.193396 -0.837667 0
M  V30 55 H -5.184796 0.437226 -3.345142 0
M  V30 56 H -1.691672 0.410694 1.327013 0
M  V30 57 H -1.934446 -4.212323 3.344806 0
M  V30 58 H -2.956673 -6.072759 2.031963 0
M  V30 59 H -3.823699 -5.654205 -0.199573 0
M  V30 60 H -3.687454 -3.433008 -1.129596 0
M  V30 61 H -1.722123 -1.638290 4.359054 0
M  V30 62 H -1.221822 -0.118134 3.610890 0
M  V30 63 H 0.509022 -2.655311 3.532986 0
M  V30 64 H 0.656329 -1.237596 4.597473 0
M  V30 END ATOM
M  V30 BEGIN BOND
M  V30 1 1 1 2
M  V30 2 1 2 3
M  V30 3 1 3 4
M  V30 4 1 4 5
M  V30 5 1 5 6
M  V30 6 1 5 7
M  V30 7 1 7 8
M  V30 8 1 8 9
M  V30 9 1 9 10
M  V30 10 2 10 11
M  V30 11 1 11 12
M  V30 12 2 12 13
M  V30 13 1 13 14
M  V30 14 2 14 15
M  V30 15 1 15 16
M  V30 16 2 16 17
M  V30 17 1 11 18
M  V30 18 2 18 19
M  V30 19 1 19 20
M  V30 20 2 20 21
M  V30 21 1 20 22
M  V30 22 1 22 23
M  V30 23 2 23 24
M  V30 24 1 19 25
M  V30 25 2 25 26
M  V30 26 1 26 27
M  V30 27 1 27 28
M  V30 28 2 28 29
M  V30 29 1 29 30
M  V30 30 2 30 31
M  V30 31 1 31 32
M  V30 32 2 32 33
M  V30 33 1 27 34
M  V30 34 1 34 35
M  V30 35 1 35 2
M  V30 36 1 17 9
M  V30 37 1 23 18
M  V30 38 1 33 25
M  V30 39 1 17 12
M  V30 40 1 33 28
M  V30 41 1 1 36
M  V30 42 1 1 37
M  V30 43 1 1 38
M  V30 44 1 3 39
M  V30 45 1 3 40
M  V30 46 1 4 41
M  V30 47 1 4 42
M  V30 48 1 6 43
M  V30 49 1 6 44
M  V30 50 1 6 45
M  V30 51 1 7 46
M  V30 52 1 7 47
M  V30 53 1 8 48
M  V30 54 1 8 49
M  V30 55 1 10 50
M  V30 56 1 13 51
M  V30 57 1 14 52
M  V30 58 1 15 53
M  V30 59 1 16 54
M  V30 60 1 22 55
M  V30 61 1 26 56
M  V30 62 1 29 57
M  V30 63 1 30 58
M  V30 64 1 31 59
M  V30 65 1 32 60
M  V30 66 1 34 61
M  V30 67 1 34 62
M  V30 68 1 35 63
M  V30 69 1 35 64
M  V30 END BOND
M  V30 END CTAB
M  END
>  <Dataset>  (767) 
ChEMBL_Kinases

>  <Ligand_Instance>  (767) 
nan

>  <PDB_ID>  (767) 
nan

>  <Standardized_SMILES>  (767) 
CN1CCN(C)CCn2cc(c3ccccc32)C2=C(C(=O)NC2=O)c2cn(c3ccccc23)CC1

>  <Name>  (767) 
nan

>  <Pocket>  (767) 
nan

>  <ATP_Site>  (767) 
nan

>  <Peripheral>  (767) 
nan

>  <Num_H_Atoms_ProtBoundConf>  (767) 
nan

>  <Num_Resolved_Atoms>  (767) 
nan

>  <Num_Not_Resolved_Atoms>  (767) 
nan

$$$$
CHEMBL3192656
     RDKit          3D

  0  0  0  0  0  0  0  0  0  0999 V3000
M  V30 BEGIN CTAB
M  V30 COUNTS 46 47 0 0 0
M  V30 BEGIN ATOM
M  V30 1 C -1.720838 -6.108542 1.983035 0
M  V30 2 C -1.340392 -5.103349 1.236842 0
M  V30 3 C -1.229952 -5.237152 -0.225270 0
M  V30 4 C 0.152943 -4.972388 -0.724724 0
M  V30 5 C 1.043630 -5.953931 -1.127074 0
M  V30 6 C 2.300215 -5.600570 -1.573440 0
M  V30 7 C 2.710220 -4.270831 -1.634481 0
M  V30 8 C 1.797994 -3.321977 -1.226472 0
M  V30 9 C 2.164065 -1.890701 -1.268195 0
M  V30 10 N 1.538863 -0.836254 -0.960546 0
M  V30 11 N 1.955601 0.465319 -1.029867 0
M  V30 12 C 1.103444 1.389760 -0.415518 0
M  V30 13 O 0.116099 0.734171 0.070283 0
M  V30 14 C 1.436583 2.861024 -0.415823 0
M  V30 15 N 0.378955 3.588161 0.303632 0
M  V30 16 C 0.189867 3.319458 1.685531 0
M  V30 17 C 0.964026 2.416162 2.411237 0
M  V30 18 C 0.827176 2.126512 3.750408 0
M  V30 19 C -0.155407 2.772142 4.465354 0
M  V30 20 C -0.953944 3.677548 3.803990 0
M  V30 21 C -0.791419 3.943228 2.469820 0
M  V30 22 O -1.624490 4.859212 1.871600 0
M  V30 23 C -2.640014 5.534279 2.587716 0
M  V30 24 C 0.541987 -3.635305 -0.777338 0
M  V30 25 O -0.339480 -2.620426 -0.375617 0
M  V30 26 H -2.017038 -7.138691 1.835087 0
M  V30 27 H -2.010096 -6.801793 2.751221 0
M  V30 28 H -1.124423 -4.200081 1.786516 0
M  V30 29 H -1.919894 -4.455129 -0.659189 0
M  V30 30 H -1.584317 -6.217003 -0.578589 0
M  V30 31 H 0.718254 -6.984277 -1.076889 0
M  V30 32 H 3.019571 -6.352794 -1.895200 0
M  V30 33 H 3.685732 -3.953494 -1.977754 0
M  V30 34 H 3.168738 -1.613431 -1.628447 0
M  V30 35 H 2.862562 0.741639 -1.517832 0
M  V30 36 H 1.558804 3.275551 -1.413961 0
M  V30 37 H 2.354849 2.996366 0.202661 0
M  V30 38 H -0.263708 4.298069 -0.102314 0
M  V30 39 H 1.750186 1.883882 1.914917 0
M  V30 40 H 1.464407 1.415353 4.246953 0
M  V30 41 H -0.270876 2.553034 5.504619 0
M  V30 42 H -1.710872 4.159113 4.407946 0
M  V30 43 H -3.273239 4.803567 3.108403 0
M  V30 44 H -2.120556 6.218298 3.314989 0
M  V30 45 H -3.213360 6.127635 1.854033 0
M  V30 46 H -0.612159 -1.937836 -1.074352 0
M  V30 END ATOM
M  V30 BEGIN BOND
M  V30 1 2 1 2
M  V30 2 1 2 3
M  V30 3 1 3 4
M  V30 4 2 4 5
M  V30 5 1 5 6
M  V30 6 2 6 7
M  V30 7 1 7 8
M  V30 8 1 8 9
M  V30 9 2 9 10
M  V30 10 1 10 11
M  V30 11 1 11 12
M  V30 12 2 12 13
M  V30 13 1 12 14
M  V30 14 1 14 15
M  V30 15 1 15 16
M  V30 16 2 16 17
M  V30 17 1 17 18
M  V30 18 2 18 19
M  V30 19 1 19 20
M  V30 20 2 20 21
M  V30 21 1 21 22
M  V30 22 1 22 23
M  V30 23 2 8 24
M  V30 24 1 24 25
M  V30 25 1 24 4
M  V30 26 1 21 16
M  V30 27 1 1 26
M  V30 28 1 1 27
M  V30 29 1 2 28
M  V30 30 1 3 29
M  V30 31 1 3 30
M  V30 32 1 5 31
M  V30 33 1 6 32
M  V30 34 1 7 33
M  V30 35 1 9 34
M  V30 36 1 11 35
M  V30 37 1 14 36
M  V30 38 1 14 37
M  V30 39 1 15 38
M  V30 40 1 17 39
M  V30 41 1 18 40
M  V30 42 1 19 41
M  V30 43 1 20 42
M  V30 44 1 23 43
M  V30 45 1 23 44
M  V30 46 1 23 45
M  V30 47 1 25 46
M  V30 END BOND
M  V30 END CTAB
M  END
>  <Dataset>  (768) 
ChEMBL_Kinases

>  <Ligand_Instance>  (768) 
nan

>  <PDB_ID>  (768) 
nan

>  <Standardized_SMILES>  (768) 
C=CCc1cccc(/C=N/NC(=O)CNc2ccccc2OC)c1O

>  <Name>  (768) 
nan

>  <Pocket>  (768) 
nan

>  <ATP_Site>  (768) 
nan

>  <Peripheral>  (768) 
nan

>  <Num_H_Atoms_ProtBoundConf>  (768) 
nan

>  <Num_Resolved_Atoms>  (768) 
nan

>  <Num_Not_Resolved_Atoms>  (768) 
nan

$$$$
CHEMBL3192682
     RDKit          3D

  0  0  0  0  0  0  0  0  0  0999 V3000
M  V30 BEGIN CTAB
M  V30 COUNTS 62 64 0 0 0
M  V30 BEGIN ATOM
M  V30 1 C 4.090093 3.828993 3.558225 0
M  V30 2 C 4.612798 2.937522 2.487488 0
M  V30 3 N 4.958779 1.600242 2.907981 0
M  V30 4 C 6.146457 1.650504 3.777005 0
M  V30 5 C 7.380190 2.080678 3.108761 0
M  V30 6 C 3.952674 0.972321 3.723922 0
M  V30 7 C 2.677925 0.538929 3.120108 0
M  V30 8 N 1.953568 1.603447 2.494952 0
M  V30 9 C 0.735768 1.100497 1.969040 0
M  V30 10 O 0.179083 -0.057287 1.971455 0
M  V30 11 C -0.318182 1.786987 1.218836 0
M  V30 12 C -1.596626 0.950399 1.084537 0
M  V30 13 C -2.598355 1.692386 0.225567 0
M  V30 14 C -3.899992 1.000334 0.049886 0
M  V30 15 N -3.847583 -0.305268 -0.535671 0
M  V30 16 C -3.827054 -1.389132 0.277194 0
M  V30 17 S -3.887459 -1.307528 1.909645 0
M  V30 18 N -3.771903 -2.649238 -0.187077 0
M  V30 19 C -3.734426 -2.872674 -1.516670 0
M  V30 20 C -3.750207 -1.814523 -2.399520 0
M  V30 21 N -3.706040 -2.373861 -3.617977 0
M  V30 22 C -3.662550 -3.708901 -3.561284 0
M  V30 23 C -3.619695 -4.735881 -4.477765 0
M  V30 24 C -3.596720 -6.052488 -4.117967 0
M  V30 25 C -3.613132 -6.429417 -2.796011 0
M  V30 26 O -3.594710 -7.656891 -2.165095 0
M  V30 27 C -3.556268 -8.826619 -2.969810 0
M  V30 28 C -3.656248 -5.409603 -1.844875 0
M  V30 29 C -3.680180 -4.062692 -2.216041 0
M  V30 30 C -3.809682 -0.527046 -1.877262 0
M  V30 31 O -3.823448 0.422210 -2.662869 0
M  V30 32 H 3.213754 3.430225 4.070379 0
M  V30 33 H 4.849883 4.084982 4.306346 0
M  V30 34 H 3.784612 4.803225 3.088298 0
M  V30 35 H 5.584617 3.417908 2.135971 0
M  V30 36 H 3.998603 2.905865 1.591980 0
M  V30 37 H 6.258659 0.579914 4.111295 0
M  V30 38 H 5.856247 2.225814 4.669248 0
M  V30 39 H 7.695482 3.052206 3.614847 0
M  V30 40 H 7.310841 2.298598 2.019954 0
M  V30 41 H 8.227635 1.380116 3.349460 0
M  V30 42 H 3.814700 1.609143 4.640487 0
M  V30 43 H 4.436036 0.038620 4.208258 0
M  V30 44 H 2.925482 -0.284160 2.380245 0
M  V30 45 H 2.035567 0.050198 3.935787 0
M  V30 46 H 1.871821 2.600284 2.227349 0
M  V30 47 H -0.609114 2.755692 1.706388 0
M  V30 48 H -0.035455 2.065845 0.182705 0
M  V30 49 H -1.387345 -0.069714 0.733379 0
M  V30 50 H -2.013475 0.922246 2.133947 0
M  V30 51 H -2.753582 2.722539 0.595917 0
M  V30 52 H -2.062465 1.837434 -0.760708 0
M  V30 53 H -4.360551 0.892725 1.078717 0
M  V30 54 H -4.617218 1.670567 -0.501164 0
M  V30 55 H -3.761558 -3.505588 0.444869 0
M  V30 56 H -3.705597 -1.838272 -4.501118 0
M  V30 57 H -3.602004 -4.521857 -5.520292 0
M  V30 58 H -3.565689 -6.909630 -4.772027 0
M  V30 59 H -3.079461 -9.681942 -2.449457 0
M  V30 60 H -4.604271 -9.106342 -3.288443 0
M  V30 61 H -2.970658 -8.690629 -3.913131 0
M  V30 62 H -3.673552 -5.544649 -0.774486 0
M  V30 END ATOM
M  V30 BEGIN BOND
M  V30 1 1 1 2
M  V30 2 1 2 3
M  V30 3 1 3 4
M  V30 4 1 4 5
M  V30 5 1 3 6
M  V30 6 1 6 7
M  V30 7 1 7 8
M  V30 8 1 8 9
M  V30 9 2 9 10
M  V30 10 1 9 11
M  V30 11 1 11 12
M  V30 12 1 12 13
M  V30 13 1 13 14
M  V30 14 1 14 15
M  V30 15 1 15 16
M  V30 16 2 16 17
M  V30 17 1 16 18
M  V30 18 1 18 19
M  V30 19 2 19 20
M  V30 20 1 20 21
M  V30 21 1 21 22
M  V30 22 2 22 23
M  V30 23 1 23 24
M  V30 24 2 24 25
M  V30 25 1 25 26
M  V30 26 1 26 27
M  V30 27 1 25 28
M  V30 28 2 28 29
M  V30 29 1 20 30
M  V30 30 2 30 31
M  V30 31 1 30 15
M  V30 32 1 29 19
M  V30 33 1 29 22
M  V30 34 1 1 32
M  V30 35 1 1 33
M  V30 36 1 1 34
M  V30 37 1 2 35
M  V30 38 1 2 36
M  V30 39 1 4 37
M  V30 40 1 4 38
M  V30 41 1 5 39
M  V30 42 1 5 40
M  V30 43 1 5 41
M  V30 44 1 6 42
M  V30 45 1 6 43
M  V30 46 1 7 44
M  V30 47 1 7 45
M  V30 48 1 8 46
M  V30 49 1 11 47
M  V30 50 1 11 48
M  V30 51 1 12 49
M  V30 52 1 12 50
M  V30 53 1 13 51
M  V30 54 1 13 52
M  V30 55 1 14 53
M  V30 56 1 14 54
M  V30 57 1 18 55
M  V30 58 1 21 56
M  V30 59 1 23 57
M  V30 60 1 24 58
M  V30 61 1 27 59
M  V30 62 1 27 60
M  V30 63 1 27 61
M  V30 64 1 28 62
M  V30 END BOND
M  V30 END CTAB
M  END
>  <Dataset>  (769) 
ChEMBL_Kinases

>  <Ligand_Instance>  (769) 
nan

>  <PDB_ID>  (769) 
nan

>  <Standardized_SMILES>  (769) 
CCN(CC)CCNC(=O)CCCCn1c(=S)[nH]c2c([nH]c3ccc(OC)cc32)c1=O

>  <Name>  (769) 
nan

>  <Pocket>  (769) 
nan

>  <ATP_Site>  (769) 
nan

>  <Peripheral>  (769) 
nan

>  <Num_H_Atoms_ProtBoundConf>  (769) 
nan

>  <Num_Resolved_Atoms>  (769) 
nan

>  <Num_Not_Resolved_Atoms>  (769) 
nan

$$$$
CHEMBL3192707
     RDKit          3D

  0  0  0  0  0  0  0  0  0  0999 V3000
M  V30 BEGIN CTAB
M  V30 COUNTS 45 48 0 0 0
M  V30 BEGIN ATOM
M  V30 1 C -2.294386 -5.204779 2.211947 0
M  V30 2 C -1.553187 -4.846004 0.957918 0
M  V30 3 N -0.836932 -3.613779 1.233373 0
M  V30 4 C -0.424274 -2.916370 0.289332 0
M  V30 5 S -0.733312 -3.467001 -1.500884 0
M  V30 6 C 0.150999 -1.957657 -2.205271 0
M  V30 7 C 0.553328 -1.254070 -1.037980 0
M  V30 8 C 1.281197 -0.013621 -1.262537 0
M  V30 9 C 2.295736 0.000135 -2.197702 0
M  V30 10 C 3.012976 1.178204 -2.436672 0
M  V30 11 C 2.689583 2.320879 -1.724137 0
M  V30 12 C 1.676800 2.327918 -0.783130 0
M  V30 13 C 0.979862 1.137715 -0.567374 0
M  V30 14 N 1.375967 3.530117 -0.069979 0
M  V30 15 C 2.107212 4.733984 -0.312567 0
M  V30 16 O 1.576672 5.839530 -0.041520 0
M  V30 17 C 3.475669 4.484996 -0.886696 0
M  V30 18 O 3.375090 3.511584 -1.929111 0
M  V30 19 N 0.275794 -1.716555 0.154713 0
M  V30 20 N 0.596322 -1.146494 1.363027 0
M  V30 21 C -0.315377 -0.770097 2.231728 0
M  V30 22 C 0.098924 -0.157164 3.526273 0
M  V30 23 C -0.598431 -1.158913 4.458704 0
M  V30 24 C -1.932744 -1.417754 3.751860 0
M  V30 25 C -1.806753 -0.732404 2.407169 0
M  V30 26 H -3.186172 -4.567895 2.325471 0
M  V30 27 H -2.562350 -6.285314 2.240323 0
M  V30 28 H -1.616129 -4.965692 3.081873 0
M  V30 29 H -0.798491 -5.633787 0.749774 0
M  V30 30 H -2.241041 -4.680192 0.104569 0
M  V30 31 H 0.261153 -1.779949 -3.199454 0
M  V30 32 H 2.586051 -0.865240 -2.779407 0
M  V30 33 H 3.819690 1.235812 -3.163392 0
M  V30 34 H 0.209801 1.179003 0.159913 0
M  V30 35 H 0.592670 3.494906 0.643111 0
M  V30 36 H 3.941168 5.391533 -1.275568 0
M  V30 37 H 4.060805 3.998446 -0.080727 0
M  V30 38 H 1.173660 -0.125606 3.691366 0
M  V30 39 H -0.392327 0.826976 3.688135 0
M  V30 40 H 0.014768 -2.082416 4.377987 0
M  V30 41 H -0.722812 -0.773024 5.466414 0
M  V30 42 H -2.759049 -1.009703 4.354936 0
M  V30 43 H -2.076289 -2.504661 3.545883 0
M  V30 44 H -2.351264 -1.241178 1.612086 0
M  V30 45 H -2.151742 0.322577 2.546368 0
M  V30 END ATOM
M  V30 BEGIN BOND
M  V30 1 1 1 2
M  V30 2 1 2 3
M  V30 3 2 3 4
M  V30 4 1 4 5
M  V30 5 1 5 6
M  V30 6 2 6 7
M  V30 7 1 7 8
M  V30 8 2 8 9
M  V30 9 1 9 10
M  V30 10 2 10 11
M  V30 11 1 11 12
M  V30 12 2 12 13
M  V30 13 1 12 14
M  V30 14 1 14 15
M  V30 15 2 15 16
M  V30 16 1 15 17
M  V30 17 1 17 18
M  V30 18 1 7 19
M  V30 19 1 19 20
M  V30 20 2 20 21 CFG=2
M  V30 21 1 21 22
M  V30 22 1 22 23
M  V30 23 1 23 24
M  V30 24 1 24 25
M  V30 25 1 19 4
M  V30 26 1 25 21
M  V30 27 1 13 8
M  V30 28 1 18 11
M  V30 29 1 1 26
M  V30 30 1 1 27
M  V30 31 1 1 28
M  V30 32 1 2 29
M  V30 33 1 2 30
M  V30 34 1 6 31
M  V30 35 1 9 32
M  V30 36 1 10 33
M  V30 37 1 13 34
M  V30 38 1 14 35
M  V30 39 1 17 36
M  V30 40 1 17 37
M  V30 41 1 22 38
M  V30 42 1 22 39
M  V30 43 1 23 40
M  V30 44 1 23 41
M  V30 45 1 24 42
M  V30 46 1 24 43
M  V30 47 1 25 44
M  V30 48 1 25 45
M  V30 END BOND
M  V30 END CTAB
M  END
>  <Dataset>  (770) 
ChEMBL_Kinases

>  <Ligand_Instance>  (770) 
nan

>  <PDB_ID>  (770) 
nan

>  <Standardized_SMILES>  (770) 
CC/N=c1\scc(-c2ccc3c(c2)NC(=O)CO3)n1N=C1CCCC1

>  <Name>  (770) 
nan

>  <Pocket>  (770) 
nan

>  <ATP_Site>  (770) 
nan

>  <Peripheral>  (770) 
nan

>  <Num_H_Atoms_ProtBoundConf>  (770) 
nan

>  <Num_Resolved_Atoms>  (770) 
nan

>  <Num_Not_Resolved_Atoms>  (770) 
nan

$$$$
CHEMBL3192852
     RDKit          3D

  0  0  0  0  0  0  0  0  0  0999 V3000
M  V30 BEGIN CTAB
M  V30 COUNTS 31 33 0 0 0
M  V30 BEGIN ATOM
M  V30 1 C -2.540453 -2.826341 2.696620 0
M  V30 2 N -1.449174 -3.763314 2.423410 0
M  V30 3 C -1.552012 -5.124036 2.951714 0
M  V30 4 C -0.463239 -3.090897 1.649767 0
M  V30 5 N 0.723519 -2.623582 1.949008 0
M  V30 6 C 1.515783 -1.974515 0.936173 0
M  V30 7 N 2.568202 -2.172856 0.122453 0
M  V30 8 C 2.740715 -1.037266 -0.596587 0
M  V30 9 N 3.662260 -0.777725 -1.526308 0
M  V30 10 C 3.635903 0.427105 -2.107501 0
M  V30 11 C 2.699039 1.416754 -1.790792 0
M  V30 12 C 1.783263 1.083566 -0.829154 0
M  V30 13 C 0.749525 2.078000 -0.430876 0
M  V30 14 C -0.247965 2.055987 0.445610 0
M  V30 15 C -1.046494 3.133035 0.598346 0
M  V30 16 C -0.765876 4.236446 -0.198429 0
M  V30 17 S 0.713654 3.642933 -1.184487 0
M  V30 18 N 1.820331 -0.131350 -0.252194 0
M  V30 19 N 1.096173 -0.722543 0.672553 0
M  V30 20 H -2.162841 -2.071126 3.430505 0
M  V30 21 H -2.864801 -2.280899 1.788698 0
M  V30 22 H -3.381945 -3.358372 3.195206 0
M  V30 23 H -0.870280 -5.794891 2.422554 0
M  V30 24 H -1.272824 -5.069535 4.036817 0
M  V30 25 H -2.614649 -5.414060 2.893297 0
M  V30 26 H -0.774471 -2.948508 0.618230 0
M  V30 27 H 4.363002 0.709413 -2.879914 0
M  V30 28 H 2.728850 2.367827 -2.293496 0
M  V30 29 H -0.353815 1.129601 1.001990 0
M  V30 30 H -1.886403 3.161168 1.312959 0
M  V30 31 H -1.398343 5.215671 -0.140709 0
M  V30 END ATOM
M  V30 BEGIN BOND
M  V30 1 1 1 2
M  V30 2 1 2 3
M  V30 3 1 2 4
M  V30 4 2 4 5
M  V30 5 1 5 6
M  V30 6 1 6 7
M  V30 7 2 7 8
M  V30 8 1 8 9
M  V30 9 2 9 10
M  V30 10 1 10 11
M  V30 11 2 11 12
M  V30 12 1 12 13
M  V30 13 2 13 14
M  V30 14 1 14 15
M  V30 15 2 15 16
M  V30 16 1 16 17
M  V30 17 1 12 18
M  V30 18 1 18 19
M  V30 19 2 19 6
M  V30 20 1 18 8
M  V30 21 1 17 13
M  V30 22 1 1 20
M  V30 23 1 1 21
M  V30 24 1 1 22
M  V30 25 1 3 23
M  V30 26 1 3 24
M  V30 27 1 3 25
M  V30 28 1 4 26
M  V30 29 1 10 27
M  V30 30 1 11 28
M  V30 31 1 14 29
M  V30 32 1 15 30
M  V30 33 1 16 31
M  V30 END BOND
M  V30 END CTAB
M  END
>  <Dataset>  (771) 
ChEMBL_Kinases

>  <Ligand_Instance>  (771) 
nan

>  <PDB_ID>  (771) 
nan

>  <Standardized_SMILES>  (771) 
CN(C)/C=N/c1nc2nccc(-c3cccs3)n2n1

>  <Name>  (771) 
nan

>  <Pocket>  (771) 
nan

>  <ATP_Site>  (771) 
nan

>  <Peripheral>  (771) 
nan

>  <Num_H_Atoms_ProtBoundConf>  (771) 
nan

>  <Num_Resolved_Atoms>  (771) 
nan

>  <Num_Not_Resolved_Atoms>  (771) 
nan

$$$$
CHEMBL3192872
     RDKit          3D

  0  0  0  0  0  0  0  0  0  0999 V3000
M  V30 BEGIN CTAB
M  V30 COUNTS 38 40 0 0 0
M  V30 BEGIN ATOM
M  V30 1 C 3.818364 -4.308337 -2.744926 0
M  V30 2 N 4.486216 -3.780204 -1.584783 0
M  V30 3 C 5.776759 -4.057196 -1.263770 0
M  V30 4 C 6.161790 -3.421119 -0.104033 0
M  V30 5 C 5.047020 -2.714588 0.310401 0
M  V30 6 C 4.042536 -2.961471 -0.624091 0
M  V30 7 C 2.677689 -2.401796 -0.568712 0
M  V30 8 C 2.197872 -1.551336 0.418504 0
M  V30 9 C 0.889242 -1.294362 0.057641 0
M  V30 10 C 0.004496 -0.423840 0.845168 0
M  V30 11 O 0.426075 0.119355 1.887963 0
M  V30 12 N -1.335471 -0.172555 0.458307 0
M  V30 13 N -2.177714 0.632384 1.172870 0
M  V30 14 C -2.174406 1.880755 1.350929 0
M  V30 15 C -3.189430 2.557490 2.169684 0
M  V30 16 C -3.118043 3.928565 2.317100 0
M  V30 17 C -4.113870 4.510247 3.108479 0
M  V30 18 C -5.117179 3.763664 3.713238 0
M  V30 19 C -5.154294 2.394545 3.541763 0
M  V30 20 O -6.129387 1.591471 4.118322 0
M  V30 21 C -4.171141 1.785013 2.755361 0
M  V30 22 N 0.592264 -1.941796 -1.069040 0
M  V30 23 N 1.677225 -2.625824 -1.467082 0
M  V30 24 H 2.784501 -4.555623 -2.434616 0
M  V30 25 H 4.281442 -5.277011 -3.023103 0
M  V30 26 H 3.827879 -3.614306 -3.615980 0
M  V30 27 H 6.435088 -4.694628 -1.834476 0
M  V30 28 H 7.121304 -3.458258 0.384542 0
M  V30 29 H 5.004415 -2.091383 1.208842 0
M  V30 30 H 2.774438 -1.201320 1.263266 0
M  V30 31 H -1.667552 -0.638483 -0.419483 0
M  V30 32 H -1.376914 2.376091 0.856072 0
M  V30 33 H -2.358449 4.554045 1.867956 0
M  V30 34 H -4.149301 5.586596 3.289169 0
M  V30 35 H -5.883088 4.223695 4.323734 0
M  V30 36 H -5.904125 0.623605 4.312339 0
M  V30 37 H -4.175012 0.704887 2.602032 0
M  V30 38 H -0.356519 -1.868109 -1.497408 0
M  V30 END ATOM
M  V30 BEGIN BOND
M  V30 1 1 1 2
M  V30 2 1 2 3
M  V30 3 2 3 4
M  V30 4 1 4 5
M  V30 5 2 5 6
M  V30 6 1 6 7
M  V30 7 1 7 8
M  V30 8 2 8 9
M  V30 9 1 9 10
M  V30 10 2 10 11
M  V30 11 1 10 12
M  V30 12 1 12 13
M  V30 13 2 13 14
M  V30 14 1 14 15
M  V30 15 2 15 16
M  V30 16 1 16 17
M  V30 17 2 17 18
M  V30 18 1 18 19
M  V30 19 1 19 20
M  V30 20 2 19 21
M  V30 21 1 9 22
M  V30 22 1 22 23
M  V30 23 1 6 2
M  V30 24 2 23 7
M  V30 25 1 21 15
M  V30 26 1 1 24
M  V30 27 1 1 25
M  V30 28 1 1 26
M  V30 29 1 3 27
M  V30 30 1 4 28
M  V30 31 1 5 29
M  V30 32 1 8 30
M  V30 33 1 12 31
M  V30 34 1 14 32
M  V30 35 1 16 33
M  V30 36 1 17 34
M  V30 37 1 18 35
M  V30 38 1 20 36
M  V30 39 1 21 37
M  V30 40 1 22 38
M  V30 END BOND
M  V30 END CTAB
M  END
>  <Dataset>  (772) 
ChEMBL_Kinases

>  <Ligand_Instance>  (772) 
nan

>  <PDB_ID>  (772) 
nan

>  <Standardized_SMILES>  (772) 
Cn1cccc1-c1cc(C(=O)N/N=C/c2cccc(O)c2)[nH]n1

>  <Name>  (772) 
nan

>  <Pocket>  (772) 
nan

>  <ATP_Site>  (772) 
nan

>  <Peripheral>  (772) 
nan

>  <Num_H_Atoms_ProtBoundConf>  (772) 
nan

>  <Num_Resolved_Atoms>  (772) 
nan

>  <Num_Not_Resolved_Atoms>  (772) 
nan

$$$$
CHEMBL3192585
     RDKit          3D

  0  0  0  0  0  0  0  0  0  0999 V3000
M  V30 BEGIN CTAB
M  V30 COUNTS 51 54 0 0 0
M  V30 BEGIN ATOM
M  V30 1 O 2.528772 -0.185673 4.265777 0
M  V30 2 N 1.583505 -0.779906 3.721200 0 CHG=1 VAL=4
M  V30 3 O 1.150147 -1.606397 4.718552 0 CHG=-1 VAL=1
M  V30 4 C 1.206311 -0.516049 2.379562 0
M  V30 5 C 2.213481 -0.067047 1.556755 0
M  V30 6 C 1.991584 0.228548 0.229956 0
M  V30 7 S 3.235136 0.796439 -0.832170 0
M  V30 8 O 2.928553 0.311418 -2.220858 0
M  V30 9 O 4.587507 0.227906 -0.467224 0
M  V30 10 N 3.387266 2.493563 -0.877610 0
M  V30 11 C 2.205672 3.165121 -1.348963 0
M  V30 12 C 1.504193 3.733202 -0.140025 0
M  V30 13 C 2.501883 3.650969 0.989993 0
M  V30 14 C 3.759681 3.077558 0.378746 0
M  V30 15 C 0.718013 0.064183 -0.271326 0
M  V30 16 C -0.319841 -0.383041 0.517455 0
M  V30 17 C -0.048783 -0.665372 1.837139 0
M  V30 18 N -1.077140 -1.123235 2.708013 0
M  V30 19 N -2.421576 -1.432346 2.593603 0
M  V30 20 C -2.929530 -2.336409 1.842820 0
M  V30 21 C -4.390048 -2.674329 1.712888 0
M  V30 22 C -4.656439 -3.170813 0.332603 0
M  V30 23 C -3.569914 -2.880960 -0.671855 0
M  V30 24 C -2.266930 -3.445971 -0.309750 0
M  V30 25 C -1.339132 -4.185741 -1.019831 0
M  V30 26 C -0.178237 -4.585980 -0.389329 0
M  V30 27 C 0.100991 -4.278047 0.932363 0
M  V30 28 C -0.818974 -3.529071 1.682511 0
M  V30 29 C -1.992001 -3.130126 1.026427 0
M  V30 30 H 3.221698 0.073585 1.914039 0
M  V30 31 H 2.539422 4.026319 -1.969316 0
M  V30 32 H 1.576511 2.527557 -1.983678 0
M  V30 33 H 1.148497 4.773257 -0.285164 0
M  V30 34 H 0.623384 3.105188 0.168366 0
M  V30 35 H 2.635903 4.661731 1.413047 0
M  V30 36 H 2.139121 3.004316 1.836438 0
M  V30 37 H 4.421430 3.943986 0.167725 0
M  V30 38 H 4.297491 2.403785 1.056056 0
M  V30 39 H 0.527664 0.293373 -1.316170 0
M  V30 40 H -1.299451 -0.493799 0.080889 0
M  V30 41 H -0.931581 -1.301024 3.725983 0
M  V30 42 H -5.018233 -1.796857 1.933900 0
M  V30 43 H -4.636215 -3.483749 2.429736 0
M  V30 44 H -4.933658 -4.241728 0.340997 0
M  V30 45 H -5.563852 -2.645414 -0.054550 0
M  V30 46 H -3.894314 -3.415979 -1.611049 0
M  V30 47 H -3.505630 -1.823687 -0.946912 0
M  V30 48 H -1.671907 -4.354751 -2.020592 0
M  V30 49 H 0.466705 -5.157718 -1.049635 0
M  V30 50 H 1.047120 -4.649680 1.314902 0
M  V30 51 H -0.536551 -3.347812 2.702223 0
M  V30 END ATOM
M  V30 BEGIN BOND
M  V30 1 2 1 2
M  V30 2 1 2 3
M  V30 3 1 2 4
M  V30 4 2 4 5
M  V30 5 1 5 6
M  V30 6 1 6 7
M  V30 7 2 7 8
M  V30 8 2 7 9
M  V30 9 1 7 10
M  V30 10 1 10 11
M  V30 11 1 11 12
M  V30 12 1 12 13
M  V30 13 1 13 14
M  V30 14 2 6 15
M  V30 15 1 15 16
M  V30 16 2 16 17
M  V30 17 1 17 18
M  V30 18 1 18 19
M  V30 19 2 19 20
M  V30 20 1 20 21
M  V30 21 1 21 22
M  V30 22 1 22 23
M  V30 23 1 23 24
M  V30 24 2 24 25
M  V30 25 1 25 26
M  V30 26 2 26 27
M  V30 27 1 27 28
M  V30 28 2 28 29
M  V30 29 1 17 4
M  V30 30 1 29 20
M  V30 31 1 14 10
M  V30 32 1 29 24
M  V30 33 1 5 30
M  V30 34 1 11 31
M  V30 35 1 11 32
M  V30 36 1 12 33
M  V30 37 1 12 34
M  V30 38 1 13 35
M  V30 39 1 13 36
M  V30 40 1 14 37
M  V30 41 1 14 38
M  V30 42 1 15 39
M  V30 43 1 16 40
M  V30 44 1 18 41
M  V30 45 1 21 42
M  V30 46 1 21 43
M  V30 47 1 22 44
M  V30 48 1 22 45
M  V30 49 1 23 46
M  V30 50 1 23 47
M  V30 51 1 25 48
M  V30 52 1 26 49
M  V30 53 1 27 50
M  V30 54 1 28 51
M  V30 END BOND
M  V30 END CTAB
M  END
>  <Dataset>  (773) 
ChEMBL_Kinases

>  <Ligand_Instance>  (773) 
nan

>  <PDB_ID>  (773) 
nan

>  <Standardized_SMILES>  (773) 
O=[N+]([O-])c1cc(S(=O)(=O)N2CCCC2)ccc1N/N=C1/CCCc2ccccc21

>  <Name>  (773) 
nan

>  <Pocket>  (773) 
nan

>  <ATP_Site>  (773) 
nan

>  <Peripheral>  (773) 
nan

>  <Num_H_Atoms_ProtBoundConf>  (773) 
nan

>  <Num_Resolved_Atoms>  (773) 
nan

>  <Num_Not_Resolved_Atoms>  (773) 
nan

$$$$
CHEMBL3198809
     RDKit          3D

  0  0  0  0  0  0  0  0  0  0999 V3000
M  V30 BEGIN CTAB
M  V30 COUNTS 33 34 0 0 0
M  V30 BEGIN ATOM
M  V30 1 C 2.934911 -4.008055 2.359484 0
M  V30 2 C 1.850332 -4.133690 1.293370 0
M  V30 3 N 1.262804 -2.822161 0.979220 0
M  V30 4 C 0.758105 -2.119019 1.919795 0
M  V30 5 S 0.807296 -2.822849 3.643264 0
M  V30 6 C -0.047502 -1.319720 4.349067 0
M  V30 7 C -0.248178 -0.505888 3.197917 0
M  V30 8 C -0.927372 0.825084 3.385785 0
M  V30 9 N 0.176770 -0.965539 2.024864 0
M  V30 10 N 0.035854 -0.257873 0.826773 0
M  V30 11 C -0.992446 -0.285961 0.068543 0
M  V30 12 C -1.050080 0.490041 -1.169728 0
M  V30 13 C 0.040585 1.266184 -1.513276 0
M  V30 14 C -0.023170 1.999284 -2.690337 0
M  V30 15 Br 1.443306 3.099785 -3.239790 0
M  V30 16 C -1.141769 1.975534 -3.525602 0
M  V30 17 O -1.203553 2.710671 -4.704263 0
M  V30 18 C -2.204166 1.175225 -3.122861 0
M  V30 19 Br -3.768562 1.104670 -4.233602 0
M  V30 20 C -2.188511 0.423029 -1.953920 0
M  V30 21 H 3.126073 -2.940639 2.591334 0
M  V30 22 H 3.900002 -4.452053 2.033386 0
M  V30 23 H 2.670942 -4.526604 3.297085 0
M  V30 24 H 2.372412 -4.480975 0.379637 0
M  V30 25 H 1.086823 -4.884050 1.559388 0
M  V30 26 H -0.351874 -1.060903 5.390065 0
M  V30 27 H -2.032620 0.737318 3.361660 0
M  V30 28 H -0.657488 1.497314 2.521248 0
M  V30 29 H -0.540297 1.324839 4.290522 0
M  V30 30 H -1.823885 -0.906761 0.375208 0
M  V30 31 H 0.945903 1.322596 -0.894460 0
M  V30 32 H -1.230272 3.731237 -4.662871 0
M  V30 33 H -3.039397 -0.172144 -1.701797 0
M  V30 END ATOM
M  V30 BEGIN BOND
M  V30 1 1 1 2
M  V30 2 1 2 3
M  V30 3 2 3 4
M  V30 4 1 4 5
M  V30 5 1 5 6
M  V30 6 2 6 7
M  V30 7 1 7 8
M  V30 8 1 7 9
M  V30 9 1 9 10
M  V30 10 2 10 11
M  V30 11 1 11 12
M  V30 12 2 12 13
M  V30 13 1 13 14
M  V30 14 1 14 15
M  V30 15 2 14 16
M  V30 16 1 16 17
M  V30 17 1 16 18
M  V30 18 1 18 19
M  V30 19 2 18 20
M  V30 20 1 9 4
M  V30 21 1 20 12
M  V30 22 1 1 21
M  V30 23 1 1 22
M  V30 24 1 1 23
M  V30 25 1 2 24
M  V30 26 1 2 25
M  V30 27 1 6 26
M  V30 28 1 8 27
M  V30 29 1 8 28
M  V30 30 1 8 29
M  V30 31 1 11 30
M  V30 32 1 13 31
M  V30 33 1 17 32
M  V30 34 1 20 33
M  V30 END BOND
M  V30 END CTAB
M  END
>  <Dataset>  (774) 
ChEMBL_Kinases

>  <Ligand_Instance>  (774) 
nan

>  <PDB_ID>  (774) 
nan

>  <Standardized_SMILES>  (774) 
CC/N=c1\scc(C)n1/N=C/c1cc(Br)c(O)c(Br)c1

>  <Name>  (774) 
nan

>  <Pocket>  (774) 
nan

>  <ATP_Site>  (774) 
nan

>  <Peripheral>  (774) 
nan

>  <Num_H_Atoms_ProtBoundConf>  (774) 
nan

>  <Num_Resolved_Atoms>  (774) 
nan

>  <Num_Not_Resolved_Atoms>  (774) 
nan

$$$$
CHEMBL3198611
     RDKit          3D

  0  0  0  0  0  0  0  0  0  0999 V3000
M  V30 BEGIN CTAB
M  V30 COUNTS 32 32 0 0 0
M  V30 BEGIN ATOM
M  V30 1 O 0.022848 -1.118598 3.404383 0
M  V30 2 C 0.973564 -1.634566 2.775802 0
M  V30 3 C 2.310132 -1.167976 3.126295 0
M  V30 4 N 2.437884 -0.271769 4.041484 0
M  V30 5 O 3.671717 0.227752 4.436261 0
M  V30 6 N 0.731284 -2.613636 1.786081 0
M  V30 7 C -0.568304 -3.120005 1.389844 0
M  V30 8 C -1.437078 -1.994889 0.862344 0
M  V30 9 C -0.698013 -1.404139 -0.346336 0
M  V30 10 N -1.423402 -0.313359 -0.949362 0
M  V30 11 C -0.664378 0.197820 -2.088401 0
M  V30 12 C 0.654133 0.722359 -1.636668 0
M  V30 13 O 0.630159 1.600044 -0.595174 0
M  V30 14 C -0.313229 1.425883 0.372658 0
M  V30 15 C -1.600425 0.796991 -0.061831 0
M  V30 16 H 3.223171 -1.508979 2.682735 0
M  V30 17 H 3.839931 1.206166 4.240229 0
M  V30 18 H 1.626802 -2.966443 1.332754 0
M  V30 19 H -1.067530 -3.666286 2.216423 0
M  V30 20 H -0.406453 -3.794426 0.525155 0
M  V30 21 H -1.514339 -1.232139 1.659723 0
M  V30 22 H -2.412385 -2.348707 0.526427 0
M  V30 23 H -0.539490 -2.195901 -1.104708 0
M  V30 24 H 0.314489 -1.108207 0.006646 0
M  V30 25 H -1.235950 0.936549 -2.660255 0
M  V30 26 H -0.474817 -0.703418 -2.723672 0
M  V30 27 H 1.070741 1.295241 -2.518155 0
M  V30 28 H 1.394393 -0.101374 -1.492870 0
M  V30 29 H 0.084988 0.958334 1.297233 0
M  V30 30 H -0.596877 2.468685 0.706359 0
M  V30 31 H -2.171289 0.514834 0.836942 0
M  V30 32 H -2.164390 1.569862 -0.640973 0
M  V30 END ATOM
M  V30 BEGIN BOND
M  V30 1 2 1 2
M  V30 2 1 2 3
M  V30 3 2 3 4
M  V30 4 1 4 5
M  V30 5 1 2 6
M  V30 6 1 6 7
M  V30 7 1 7 8
M  V30 8 1 8 9
M  V30 9 1 9 10
M  V30 10 1 10 11
M  V30 11 1 11 12
M  V30 12 1 12 13
M  V30 13 1 13 14
M  V30 14 1 14 15
M  V30 15 1 15 10
M  V30 16 1 3 16
M  V30 17 1 5 17
M  V30 18 1 6 18
M  V30 19 1 7 19
M  V30 20 1 7 20
M  V30 21 1 8 21
M  V30 22 1 8 22
M  V30 23 1 9 23
M  V30 24 1 9 24
M  V30 25 1 11 25
M  V30 26 1 11 26
M  V30 27 1 12 27
M  V30 28 1 12 28
M  V30 29 1 14 29
M  V30 30 1 14 30
M  V30 31 1 15 31
M  V30 32 1 15 32
M  V30 END BOND
M  V30 END CTAB
M  END
>  <Dataset>  (775) 
ChEMBL_Kinases

>  <Ligand_Instance>  (775) 
nan

>  <PDB_ID>  (775) 
nan

>  <Standardized_SMILES>  (775) 
O=C(/C=N/O)NCCCN1CCOCC1

>  <Name>  (775) 
nan

>  <Pocket>  (775) 
nan

>  <ATP_Site>  (775) 
nan

>  <Peripheral>  (775) 
nan

>  <Num_H_Atoms_ProtBoundConf>  (775) 
nan

>  <Num_Resolved_Atoms>  (775) 
nan

>  <Num_Not_Resolved_Atoms>  (775) 
nan

$$$$
CHEMBL3198559
     RDKit          3D

  0  0  0  0  0  0  0  0  0  0999 V3000
M  V30 BEGIN CTAB
M  V30 COUNTS 32 34 0 0 0
M  V30 BEGIN ATOM
M  V30 1 O 0.958605 -0.853290 3.162084 0
M  V30 2 C 0.545859 -0.345143 2.058198 0
M  V30 3 N 0.670585 -1.241734 0.990714 0
M  V30 4 N 0.938712 -2.355388 0.236713 0
M  V30 5 C 2.115720 -2.905228 0.133587 0
M  V30 6 C 2.298175 -4.091466 -0.697399 0
M  V30 7 C 2.487601 -5.462864 -0.733736 0
M  V30 8 C 2.569867 -5.847184 -2.056566 0
M  V30 9 C 2.425653 -4.674158 -2.796005 0
M  V30 10 O 2.273357 -3.697982 -1.969776 0
M  V30 11 C 0.017247 1.009249 1.960967 0
M  V30 12 C 0.916937 2.035703 2.158010 0
M  V30 13 C 0.388912 3.321655 2.074977 0
M  V30 14 O 1.121863 4.497374 2.242581 0
M  V30 15 N -0.920929 3.482570 1.815773 0
M  V30 16 C -1.778806 2.462196 1.625593 0
M  V30 17 C -3.134063 2.687683 1.357800 0
M  V30 18 C -3.951284 1.573049 1.174000 0
M  V30 19 C -3.463134 0.287570 1.248834 0
M  V30 20 C -2.114025 0.031489 1.514119 0
M  V30 21 C -1.325353 1.141100 1.693118 0
M  V30 22 H 0.323964 -0.800930 0.081633 0
M  V30 23 H 2.895362 -2.412246 0.702220 0
M  V30 24 H 2.516604 -5.840392 0.282367 0
M  V30 25 H 2.721380 -6.919373 -2.193154 0
M  V30 26 H 2.468087 -4.805349 -3.878619 0
M  V30 27 H 1.962178 1.938905 2.362258 0
M  V30 28 H 2.078761 4.618772 1.901774 0
M  V30 29 H -3.520118 3.693681 1.301779 0
M  V30 30 H -5.005839 1.680227 0.967183 0
M  V30 31 H -4.069265 -0.601889 1.111007 0
M  V30 32 H -1.714731 -0.950902 1.575340 0
M  V30 END ATOM
M  V30 BEGIN BOND
M  V30 1 2 1 2
M  V30 2 1 2 3
M  V30 3 1 3 4
M  V30 4 2 4 5
M  V30 5 1 5 6
M  V30 6 2 6 7
M  V30 7 1 7 8
M  V30 8 2 8 9
M  V30 9 1 9 10
M  V30 10 1 2 11
M  V30 11 2 11 12
M  V30 12 1 12 13
M  V30 13 1 13 14
M  V30 14 2 13 15
M  V30 15 1 15 16
M  V30 16 2 16 17
M  V30 17 1 17 18
M  V30 18 2 18 19
M  V30 19 1 19 20
M  V30 20 2 20 21
M  V30 21 1 10 6
M  V30 22 1 21 11
M  V30 23 1 21 16
M  V30 24 1 3 22
M  V30 25 1 5 23
M  V30 26 1 7 24
M  V30 27 1 8 25
M  V30 28 1 9 26
M  V30 29 1 12 27
M  V30 30 1 14 28
M  V30 31 1 17 29
M  V30 32 1 18 30
M  V30 33 1 19 31
M  V30 34 1 20 32
M  V30 END BOND
M  V30 END CTAB
M  END
>  <Dataset>  (776) 
ChEMBL_Kinases

>  <Ligand_Instance>  (776) 
nan

>  <PDB_ID>  (776) 
nan

>  <Standardized_SMILES>  (776) 
O=C(N/N=C/c1ccco1)c1cc(O)nc2ccccc12

>  <Name>  (776) 
nan

>  <Pocket>  (776) 
nan

>  <ATP_Site>  (776) 
nan

>  <Peripheral>  (776) 
nan

>  <Num_H_Atoms_ProtBoundConf>  (776) 
nan

>  <Num_Resolved_Atoms>  (776) 
nan

>  <Num_Not_Resolved_Atoms>  (776) 
nan

$$$$
CHEMBL3198284
     RDKit          3D

  0  0  0  0  0  0  0  0  0  0999 V3000
M  V30 BEGIN CTAB
M  V30 COUNTS 33 35 0 0 0
M  V30 BEGIN ATOM
M  V30 1 S 0.130353 1.265431 5.271932 0
M  V30 2 C 0.918526 0.139379 4.166120 0
M  V30 3 N 2.099402 -0.471260 4.359207 0
M  V30 4 N 2.343411 -1.235085 3.303336 0
M  V30 5 C 1.307212 -1.092152 2.458735 0
M  V30 6 C 1.229500 -1.806537 1.149340 0
M  V30 7 O 1.830518 -0.991639 0.185409 0
M  V30 8 C 1.980780 -1.252091 -1.148574 0
M  V30 9 C 1.546414 -2.396830 -1.760619 0
M  V30 10 C 1.738611 -2.579594 -3.112815 0
M  V30 11 C 2.375148 -1.593864 -3.844879 0
M  V30 12 C 2.828788 -0.421077 -3.259240 0
M  V30 13 C 2.621524 -0.262513 -1.891752 0
M  V30 14 N 0.406841 -0.227265 2.997692 0
M  V30 15 N -0.747848 0.088811 2.325950 0
M  V30 16 C -1.846256 0.482406 2.827856 0
M  V30 17 C -2.816071 0.706214 1.752111 0
M  V30 18 C -3.620187 -0.332622 1.266963 0
M  V30 19 C -4.414813 0.191578 0.272310 0
M  V30 20 C -4.059540 1.534021 0.193135 0
M  V30 21 O -3.122050 1.803332 1.071665 0
M  V30 22 H -0.868169 0.619613 6.053449 0
M  V30 23 H 0.158512 -2.060393 0.915603 0
M  V30 24 H 1.804026 -2.755488 1.204354 0
M  V30 25 H 1.046630 -3.164591 -1.171240 0
M  V30 26 H 1.398218 -3.481001 -3.602607 0
M  V30 27 H 2.542257 -1.707767 -4.914616 0
M  V30 28 H 3.328478 0.336527 -3.872099 0
M  V30 29 H 2.992299 0.672690 -1.468104 0
M  V30 30 H -1.900998 0.586243 3.886883 0
M  V30 31 H -3.613216 -1.374324 1.620263 0
M  V30 32 H -5.140846 -0.389461 -0.284315 0
M  V30 33 H -4.536475 2.187239 -0.516350 0
M  V30 END ATOM
M  V30 BEGIN BOND
M  V30 1 1 1 2
M  V30 2 2 2 3
M  V30 3 1 3 4
M  V30 4 2 4 5
M  V30 5 1 5 6
M  V30 6 1 6 7
M  V30 7 1 7 8
M  V30 8 2 8 9
M  V30 9 1 9 10
M  V30 10 2 10 11
M  V30 11 1 11 12
M  V30 12 2 12 13
M  V30 13 1 5 14
M  V30 14 1 14 15
M  V30 15 2 15 16
M  V30 16 1 16 17
M  V30 17 2 17 18
M  V30 18 1 18 19
M  V30 19 2 19 20
M  V30 20 1 20 21
M  V30 21 1 14 2
M  V30 22 1 21 17
M  V30 23 1 13 8
M  V30 24 1 1 22
M  V30 25 1 6 23
M  V30 26 1 6 24
M  V30 27 1 9 25
M  V30 28 1 10 26
M  V30 29 1 11 27
M  V30 30 1 12 28
M  V30 31 1 13 29
M  V30 32 1 16 30
M  V30 33 1 18 31
M  V30 34 1 19 32
M  V30 35 1 20 33
M  V30 END BOND
M  V30 END CTAB
M  END
>  <Dataset>  (777) 
ChEMBL_Kinases

>  <Ligand_Instance>  (777) 
nan

>  <PDB_ID>  (777) 
nan

>  <Standardized_SMILES>  (777) 
Sc1nnc(COc2ccccc2)n1/N=C/c1ccco1

>  <Name>  (777) 
nan

>  <Pocket>  (777) 
nan

>  <ATP_Site>  (777) 
nan

>  <Peripheral>  (777) 
nan

>  <Num_H_Atoms_ProtBoundConf>  (777) 
nan

>  <Num_Resolved_Atoms>  (777) 
nan

>  <Num_Not_Resolved_Atoms>  (777) 
nan

$$$$
CHEMBL3198180
     RDKit          3D

  0  0  0  0  0  0  0  0  0  0999 V3000
M  V30 BEGIN CTAB
M  V30 COUNTS 51 54 0 0 0
M  V30 BEGIN ATOM
M  V30 1 C 2.049414 -1.858912 3.549391 0
M  V30 2 O 1.637952 -1.434252 2.281808 0
M  V30 3 C 2.411624 -1.298651 1.163249 0
M  V30 4 C 3.757024 -1.614707 1.283739 0
M  V30 5 C 4.570236 -1.489941 0.173403 0
M  V30 6 C 4.094558 -1.063589 -1.048061 0
M  V30 7 C 2.759887 -0.750064 -1.167275 0
M  V30 8 C 1.922109 -0.864950 -0.074325 0
M  V30 9 N 0.516560 -0.571131 -0.053503 0
M  V30 10 C 0.073515 0.536656 0.449584 0
M  V30 11 O 0.970371 1.362347 0.931852 0
M  V30 12 C 0.639941 2.515663 1.466867 0
M  V30 13 C 1.652008 3.334437 1.955610 0
M  V30 14 C 1.287778 4.551772 2.518681 0
M  V30 15 O 2.364821 5.292104 2.974743 0
M  V30 16 C -0.047486 4.896316 2.570200 0
M  V30 17 C -1.022550 4.055458 2.073983 0
M  V30 18 C -0.705880 2.820363 1.498150 0
M  V30 19 C -1.664387 1.969739 0.998374 0
M  V30 20 C -1.282811 0.764201 0.442176 0
M  V30 21 C -2.279727 -0.148910 -0.092521 0
M  V30 22 O -3.355769 0.371441 -0.546682 0
M  V30 23 N -2.202770 -1.554119 -0.171848 0
M  V30 24 C -3.423034 -2.067608 -0.777025 0
M  V30 25 C -3.371608 -3.584816 -0.883447 0
M  V30 26 C -2.259116 -3.985806 -1.801375 0
M  V30 27 C -1.463715 -4.976522 -1.004915 0
M  V30 28 C -2.034805 -4.877673 0.372490 0
M  V30 29 O -3.234589 -4.196561 0.324913 0
M  V30 30 H 1.349611 -1.506450 4.344532 0
M  V30 31 H 3.105796 -1.597878 3.800055 0
M  V30 32 H 2.001834 -2.974134 3.550397 0
M  V30 33 H 4.272478 -1.959879 2.170404 0
M  V30 34 H 5.635342 -1.712961 0.167964 0
M  V30 35 H 4.674391 -0.945866 -1.946656 0
M  V30 36 H 2.271796 -0.402320 -2.085767 0
M  V30 37 H 2.662919 2.980278 1.871307 0
M  V30 38 H 2.298031 6.100022 3.587530 0
M  V30 39 H -0.248642 5.856884 3.021828 0
M  V30 40 H -2.061182 4.356310 2.130453 0
M  V30 41 H -2.696140 2.274140 1.057159 0
M  V30 42 H -1.352877 -1.997498 0.185196 0
M  V30 43 H -4.238729 -1.806283 -0.048470 0
M  V30 44 H -3.630909 -1.616395 -1.759033 0
M  V30 45 H -4.351703 -3.914394 -1.306093 0
M  V30 46 H -2.673598 -4.395108 -2.743811 0
M  V30 47 H -1.639030 -3.084547 -2.056680 0
M  V30 48 H -0.403991 -4.627499 -0.970845 0
M  V30 49 H -1.455663 -5.981868 -1.442207 0
M  V30 50 H -1.374116 -4.374972 1.092339 0
M  V30 51 H -2.257468 -5.928573 0.696822 0
M  V30 END ATOM
M  V30 BEGIN BOND
M  V30 1 1 1 2
M  V30 2 1 2 3
M  V30 3 2 3 4
M  V30 4 1 4 5
M  V30 5 2 5 6
M  V30 6 1 6 7
M  V30 7 2 7 8
M  V30 8 1 8 9
M  V30 9 2 9 10
M  V30 10 1 10 11
M  V30 11 1 11 12
M  V30 12 2 12 13
M  V30 13 1 13 14
M  V30 14 1 14 15
M  V30 15 2 14 16
M  V30 16 1 16 17
M  V30 17 2 17 18
M  V30 18 1 18 19
M  V30 19 2 19 20
M  V30 20 1 20 21
M  V30 21 2 21 22
M  V30 22 1 21 23
M  V30 23 1 23 24
M  V30 24 1 24 25
M  V30 25 1 25 26
M  V30 26 1 26 27
M  V30 27 1 27 28
M  V30 28 1 28 29
M  V30 29 1 8 3
M  V30 30 1 20 10
M  V30 31 1 29 25
M  V30 32 1 18 12
M  V30 33 1 1 30
M  V30 34 1 1 31
M  V30 35 1 1 32
M  V30 36 1 4 33
M  V30 37 1 5 34
M  V30 38 1 6 35
M  V30 39 1 7 36
M  V30 40 1 13 37
M  V30 41 1 15 38
M  V30 42 1 16 39
M  V30 43 1 17 40
M  V30 44 1 19 41
M  V30 45 1 23 42
M  V30 46 1 24 43
M  V30 47 1 24 44
M  V30 48 1 25 45
M  V30 49 1 26 46
M  V30 50 1 26 47
M  V30 51 1 27 48
M  V30 52 1 27 49
M  V30 53 1 28 50
M  V30 54 1 28 51
M  V30 END BOND
M  V30 END CTAB
M  END
>  <Dataset>  (778) 
ChEMBL_Kinases

>  <Ligand_Instance>  (778) 
nan

>  <PDB_ID>  (778) 
nan

>  <Standardized_SMILES>  (778) 
COc1ccccc1/N=c1\oc2cc(O)ccc2cc1C(=O)NCC1CCCO1

>  <Name>  (778) 
nan

>  <Pocket>  (778) 
nan

>  <ATP_Site>  (778) 
nan

>  <Peripheral>  (778) 
nan

>  <Num_H_Atoms_ProtBoundConf>  (778) 
nan

>  <Num_Resolved_Atoms>  (778) 
nan

>  <Num_Not_Resolved_Atoms>  (778) 
nan

$$$$
CHEMBL3198109
     RDKit          3D

  0  0  0  0  0  0  0  0  0  0999 V3000
M  V30 BEGIN CTAB
M  V30 COUNTS 49 52 0 0 0
M  V30 BEGIN ATOM
M  V30 1 C 2.800365 5.357753 3.731667 0
M  V30 2 C 2.287815 4.392262 2.724989 0
M  V30 3 C 1.177557 4.816971 2.033976 0
M  V30 4 C 0.551879 4.079104 1.066918 0
M  V30 5 C 1.057651 2.813253 0.747818 0
M  V30 6 C 0.433443 1.979457 -0.279227 0
M  V30 7 N 0.779366 0.802410 -0.672858 0
M  V30 8 N 0.026112 0.159595 -1.697252 0
M  V30 9 C -0.959696 -0.568607 -0.999987 0
M  V30 10 O -0.772668 -0.352410 0.249751 0
M  V30 11 C -2.047680 -1.434892 -1.390580 0
M  V30 12 N -2.859806 -1.862743 -0.403507 0
M  V30 13 N -3.812674 -2.638262 -0.949216 0
M  V30 14 N -3.627743 -2.712352 -2.239111 0
M  V30 15 C -4.481968 -3.471862 -3.104636 0
M  V30 16 N -4.478757 -3.684679 -4.402587 0
M  V30 17 O -5.466712 -4.455971 -4.727119 0
M  V30 18 N -6.172252 -4.796837 -3.691587 0
M  V30 19 C -5.567257 -4.188242 -2.670043 0
M  V30 20 N -6.055765 -4.326075 -1.358422 0
M  V30 21 C -2.539494 -1.977236 -2.546912 0
M  V30 22 C -1.937136 -1.796154 -3.860023 0
M  V30 23 S -0.573001 -2.926757 -4.086778 0
M  V30 24 C 0.827899 -2.687654 -3.071828 0
M  V30 25 C 1.964589 -1.920343 -3.340741 0
M  V30 26 C 3.014259 -1.801254 -2.455898 0
M  V30 27 C 2.967361 -2.466247 -1.227802 0
M  V30 28 Cl 4.294029 -2.322291 -0.092076 0
M  V30 29 C 1.850601 -3.246449 -0.913727 0
M  V30 30 C 0.827505 -3.331528 -1.835342 0
M  V30 31 C 2.170831 2.387076 1.440519 0
M  V30 32 C 2.796516 3.149433 2.421811 0
M  V30 33 H 1.916905 5.782822 4.286049 0
M  V30 34 H 3.485168 4.844782 4.415706 0
M  V30 35 H 3.292074 6.238490 3.235186 0
M  V30 36 H 0.697483 5.786991 2.200229 0
M  V30 37 H -0.330765 4.407303 0.513049 0
M  V30 38 H -0.442729 2.403954 -0.784188 0
M  V30 39 H -0.045732 0.047886 -2.733586 0
M  V30 40 H -6.352382 -4.471833 -0.387541 0
M  V30 41 H -6.943943 -3.822150 -1.092394 0
M  V30 42 H -2.730196 -2.108230 -4.610056 0
M  V30 43 H -1.732655 -0.742702 -4.148683 0
M  V30 44 H 1.908696 -1.440069 -4.322047 0
M  V30 45 H 3.854914 -1.188336 -2.740605 0
M  V30 46 H 1.816495 -3.755211 0.028408 0
M  V30 47 H -0.008684 -3.954056 -1.522095 0
M  V30 48 H 2.623281 1.428489 1.256093 0
M  V30 49 H 3.664404 2.857128 2.986314 0
M  V30 END ATOM
M  V30 BEGIN BOND
M  V30 1 1 1 2
M  V30 2 2 2 3
M  V30 3 1 3 4
M  V30 4 2 4 5
M  V30 5 1 5 6
M  V30 6 2 6 7
M  V30 7 1 7 8
M  V30 8 1 8 9
M  V30 9 2 9 10
M  V30 10 1 9 11
M  V30 11 1 11 12
M  V30 12 2 12 13
M  V30 13 1 13 14
M  V30 14 1 14 15
M  V30 15 2 15 16
M  V30 16 1 16 17
M  V30 17 1 17 18
M  V30 18 2 18 19
M  V30 19 1 19 20
M  V30 20 1 14 21
M  V30 21 1 21 22
M  V30 22 1 22 23
M  V30 23 1 23 24
M  V30 24 2 24 25
M  V30 25 1 25 26
M  V30 26 2 26 27
M  V30 27 1 27 28
M  V30 28 1 27 29
M  V30 29 2 29 30
M  V30 30 1 5 31
M  V30 31 2 31 32
M  V30 32 1 32 2
M  V30 33 2 21 11
M  V30 34 1 30 24
M  V30 35 1 19 15
M  V30 36 1 1 33
M  V30 37 1 1 34
M  V30 38 1 1 35
M  V30 39 1 3 36
M  V30 40 1 4 37
M  V30 41 1 6 38
M  V30 42 1 8 39
M  V30 43 1 20 40
M  V30 44 1 20 41
M  V30 45 1 22 42
M  V30 46 1 22 43
M  V30 47 1 25 44
M  V30 48 1 26 45
M  V30 49 1 29 46
M  V30 50 1 30 47
M  V30 51 1 31 48
M  V30 52 1 32 49
M  V30 END BOND
M  V30 END CTAB
M  END
>  <Dataset>  (779) 
ChEMBL_Kinases

>  <Ligand_Instance>  (779) 
nan

>  <PDB_ID>  (779) 
nan

>  <Standardized_SMILES>  (779) 
Cc1ccc(/C=N/NC(=O)c2nnn(-c3nonc3N)c2CSc2ccc(Cl)cc2)cc1

>  <Name>  (779) 
nan

>  <Pocket>  (779) 
nan

>  <ATP_Site>  (779) 
nan

>  <Peripheral>  (779) 
nan

>  <Num_H_Atoms_ProtBoundConf>  (779) 
nan

>  <Num_Resolved_Atoms>  (779) 
nan

>  <Num_Not_Resolved_Atoms>  (779) 
nan

$$$$
CHEMBL3198108
     RDKit          3D

  0  0  0  0  0  0  0  0  0  0999 V3000
M  V30 BEGIN CTAB
M  V30 COUNTS 49 52 0 0 0
M  V30 BEGIN ATOM
M  V30 1 C -2.109047 -6.200350 6.209992 0
M  V30 2 O -1.027572 -5.964042 5.367024 0
M  V30 3 C -0.958111 -5.100460 4.307803 0
M  V30 4 C 0.119352 -4.862704 3.465660 0
M  V30 5 C 0.013499 -3.939745 2.427760 0
M  V30 6 C -1.143093 -3.227165 2.185617 0
M  V30 7 C -1.238770 -2.264147 1.093586 0
M  V30 8 N -0.223509 -1.990843 0.249756 0
M  V30 9 C -0.306763 -1.105441 -0.757534 0
M  V30 10 N 0.796461 -0.850392 -1.619178 0
M  V30 11 N 1.318227 0.220764 -0.885736 0
M  V30 12 C 2.082898 1.041385 -1.562510 0
M  V30 13 C 2.247726 0.669105 -2.989709 0
M  V30 14 C 2.689030 2.203324 -0.923011 0
M  V30 15 C 3.500663 3.101248 -1.580260 0
M  V30 16 C 4.076701 4.205213 -0.983096 0
M  V30 17 C 3.809830 4.405967 0.363491 0
M  V30 18 O 4.349268 5.487069 1.029606 0
M  V30 19 C 2.994884 3.511076 1.038997 0
M  V30 20 C 2.434738 2.418343 0.414447 0
M  V30 21 C -1.522653 -0.468556 -0.890447 0
M  V30 22 C -1.694677 0.464165 -1.904833 0
M  V30 23 C -2.916496 1.107830 -2.039210 0
M  V30 24 C -3.965669 0.834664 -1.178395 0
M  V30 25 C -3.824078 -0.084834 -0.164288 0
M  V30 26 C -2.596641 -0.704345 -0.061196 0
M  V30 27 N -2.401546 -1.612302 0.915712 0
M  V30 28 C -2.204125 -3.474994 3.030928 0
M  V30 29 C -2.121400 -4.385172 4.065811 0
M  V30 30 H -2.747422 -7.018659 5.784225 0
M  V30 31 H -2.765283 -5.354538 6.418251 0
M  V30 32 H -1.690639 -6.650273 7.148250 0
M  V30 33 H 1.005135 -5.439618 3.687672 0
M  V30 34 H 0.888609 -3.815878 1.824765 0
M  V30 35 H 0.586107 -1.602744 -2.299597 0
M  V30 36 H 2.758198 1.475667 -3.588889 0
M  V30 37 H 1.311632 0.369668 -3.454910 0
M  V30 38 H 3.003217 -0.170439 -2.991071 0
M  V30 39 H 3.718019 2.967122 -2.610193 0
M  V30 40 H 4.710858 4.879383 -1.560321 0
M  V30 41 H 4.697784 5.323614 1.955496 0
M  V30 42 H 2.745748 3.606915 2.088133 0
M  V30 43 H 1.799583 1.717795 0.935436 0
M  V30 44 H -0.896011 0.692584 -2.583766 0
M  V30 45 H -3.022512 1.828546 -2.837539 0
M  V30 46 H -4.925167 1.322927 -1.262852 0
M  V30 47 H -4.610095 -0.335208 0.534773 0
M  V30 48 H -3.100918 -2.892191 2.807832 0
M  V30 49 H -3.053070 -4.446786 4.623119 0
M  V30 END ATOM
M  V30 BEGIN BOND
M  V30 1 1 1 2
M  V30 2 1 2 3
M  V30 3 2 3 4
M  V30 4 1 4 5
M  V30 5 2 5 6
M  V30 6 1 6 7
M  V30 7 2 7 8
M  V30 8 1 8 9
M  V30 9 1 9 10
M  V30 10 1 10 11
M  V30 11 2 11 12
M  V30 12 1 12 13
M  V30 13 1 12 14
M  V30 14 2 14 15
M  V30 15 1 15 16
M  V30 16 2 16 17
M  V30 17 1 17 18
M  V30 18 1 17 19
M  V30 19 2 19 20
M  V30 20 2 9 21
M  V30 21 1 21 22
M  V30 22 2 22 23
M  V30 23 1 23 24
M  V30 24 2 24 25
M  V30 25 1 25 26
M  V30 26 2 26 27
M  V30 27 1 6 28
M  V30 28 2 28 29
M  V30 29 1 29 3
M  V30 30 1 27 7
M  V30 31 1 20 14
M  V30 32 1 26 21
M  V30 33 1 1 30
M  V30 34 1 1 31
M  V30 35 1 1 32
M  V30 36 1 4 33
M  V30 37 1 5 34
M  V30 38 1 10 35
M  V30 39 1 13 36
M  V30 40 1 13 37
M  V30 41 1 13 38
M  V30 42 1 15 39
M  V30 43 1 16 40
M  V30 44 1 18 41
M  V30 45 1 19 42
M  V30 46 1 20 43
M  V30 47 1 22 44
M  V30 48 1 23 45
M  V30 49 1 24 46
M  V30 50 1 25 47
M  V30 51 1 28 48
M  V30 52 1 29 49
M  V30 END BOND
M  V30 END CTAB
M  END
>  <Dataset>  (780) 
ChEMBL_Kinases

>  <Ligand_Instance>  (780) 
nan

>  <PDB_ID>  (780) 
nan

>  <Standardized_SMILES>  (780) 
COc1ccc(-c2nc(N/N=C(\C)c3ccc(O)cc3)c3ccccc3n2)cc1

>  <Name>  (780) 
nan

>  <Pocket>  (780) 
nan

>  <ATP_Site>  (780) 
nan

>  <Peripheral>  (780) 
nan

>  <Num_H_Atoms_ProtBoundConf>  (780) 
nan

>  <Num_Resolved_Atoms>  (780) 
nan

>  <Num_Not_Resolved_Atoms>  (780) 
nan

$$$$
CHEMBL3198006
     RDKit          3D

  0  0  0  0  0  0  0  0  0  0999 V3000
M  V30 BEGIN CTAB
M  V30 COUNTS 39 41 0 0 0
M  V30 BEGIN ATOM
M  V30 1 C -2.263118 4.643654 4.688196 0
M  V30 2 C -2.286720 3.787495 3.464806 0
M  V30 3 C -3.467545 3.280369 2.958185 0
M  V30 4 C -3.476538 2.487978 1.823509 0
M  V30 5 C -2.267318 2.215401 1.206661 0
M  V30 6 N -2.168379 1.409388 0.032279 0
M  V30 7 N -2.715422 1.805395 -1.096173 0
M  V30 8 C -2.515878 0.919317 -2.076627 0
M  V30 9 C -2.904920 0.864660 -3.510377 0
M  V30 10 C -1.787655 -0.125681 -1.546428 0
M  V30 11 C -1.236514 -1.389600 -2.033148 0
M  V30 12 N -0.055367 -1.172814 -2.467938 0
M  V30 13 N 0.774933 -2.184047 -3.015530 0
M  V30 14 C 2.086110 -2.273281 -2.471405 0
M  V30 15 O 2.528221 -1.520068 -1.555957 0
M  V30 16 C 2.953408 -3.283898 -3.000724 0
M  V30 17 C 2.786293 -4.222637 -3.957966 0
M  V30 18 C 3.786242 -5.075300 -4.276220 0
M  V30 19 C 4.990412 -4.925336 -3.559764 0
M  V30 20 S 4.617588 -3.483192 -2.390497 0
M  V30 21 C -1.576673 0.204803 -0.204190 0
M  V30 22 Cl -0.733904 -0.641812 1.090296 0
M  V30 23 C -1.081383 2.727740 1.719800 0
M  V30 24 C -1.068749 3.519995 2.853601 0
M  V30 25 H -1.568443 5.486177 4.455100 0
M  V30 26 H -1.852639 4.140119 5.571820 0
M  V30 27 H -3.261884 5.057298 4.933728 0
M  V30 28 H -4.402953 3.519034 3.475245 0
M  V30 29 H -4.392703 2.082981 1.413892 0
M  V30 30 H -2.014771 0.896062 -4.196000 0
M  V30 31 H -3.457050 -0.059669 -3.759648 0
M  V30 32 H -3.548750 1.721275 -3.781116 0
M  V30 33 H -1.628800 -2.416893 -2.087382 0
M  V30 34 H 0.439072 -2.819861 -3.770397 0
M  V30 35 H 1.823551 -4.256060 -4.449963 0
M  V30 36 H 3.749972 -5.854420 -5.021677 0
M  V30 37 H 5.913824 -5.519497 -3.673075 0
M  V30 38 H -0.146804 2.510159 1.233145 0
M  V30 39 H -0.103082 3.894013 3.209540 0
M  V30 END ATOM
M  V30 BEGIN BOND
M  V30 1 1 1 2
M  V30 2 2 2 3
M  V30 3 1 3 4
M  V30 4 2 4 5
M  V30 5 1 5 6
M  V30 6 1 6 7
M  V30 7 2 7 8
M  V30 8 1 8 9
M  V30 9 1 8 10
M  V30 10 1 10 11
M  V30 11 2 11 12
M  V30 12 1 12 13
M  V30 13 1 13 14
M  V30 14 2 14 15
M  V30 15 1 14 16
M  V30 16 2 16 17
M  V30 17 1 17 18
M  V30 18 2 18 19
M  V30 19 1 19 20
M  V30 20 2 10 21
M  V30 21 1 21 22
M  V30 22 1 5 23
M  V30 23 2 23 24
M  V30 24 1 24 2
M  V30 25 1 21 6
M  V30 26 1 20 16
M  V30 27 1 1 25
M  V30 28 1 1 26
M  V30 29 1 1 27
M  V30 30 1 3 28
M  V30 31 1 4 29
M  V30 32 1 9 30
M  V30 33 1 9 31
M  V30 34 1 9 32
M  V30 35 1 11 33
M  V30 36 1 13 34
M  V30 37 1 17 35
M  V30 38 1 18 36
M  V30 39 1 19 37
M  V30 40 1 23 38
M  V30 41 1 24 39
M  V30 END BOND
M  V30 END CTAB
M  END
>  <Dataset>  (781) 
ChEMBL_Kinases

>  <Ligand_Instance>  (781) 
nan

>  <PDB_ID>  (781) 
nan

>  <Standardized_SMILES>  (781) 
Cc1ccc(-n2nc(C)c(/C=N/NC(=O)c3cccs3)c2Cl)cc1

>  <Name>  (781) 
nan

>  <Pocket>  (781) 
nan

>  <ATP_Site>  (781) 
nan

>  <Peripheral>  (781) 
nan

>  <Num_H_Atoms_ProtBoundConf>  (781) 
nan

>  <Num_Resolved_Atoms>  (781) 
nan

>  <Num_Not_Resolved_Atoms>  (781) 
nan

$$$$
CHEMBL3197964
     RDKit          3D

  0  0  0  0  0  0  0  0  0  0999 V3000
M  V30 BEGIN CTAB
M  V30 COUNTS 30 30 0 0 0
M  V30 BEGIN ATOM
M  V30 1 C -0.996489 -0.018822 3.700224 0
M  V30 2 C -0.453441 -1.076213 2.806928 0
M  V30 3 C 0.991523 -1.198830 2.578212 0
M  V30 4 S 1.740959 0.217603 1.873199 0
M  V30 5 O 3.212499 -0.128305 1.677227 0
M  V30 6 O 1.746069 1.390640 2.838134 0
M  V30 7 C 1.126690 0.683224 0.330226 0
M  V30 8 C 0.083942 1.550559 0.207274 0
M  V30 9 C -0.483454 1.987951 -0.983377 0
M  V30 10 C 0.105444 1.460626 -2.133150 0
M  V30 11 Cl -0.574685 1.981347 -3.677533 0
M  V30 12 C 1.167554 0.574419 -2.097876 0
M  V30 13 Cl 1.870891 -0.058580 -3.575319 0
M  V30 14 C 1.657980 0.203006 -0.852698 0
M  V30 15 N -1.328176 -1.867903 2.254094 0
M  V30 16 N -0.889467 -2.892436 1.396488 0
M  V30 17 C -0.551487 -3.347318 0.094176 0
M  V30 18 N -0.101864 -4.668130 -0.265284 0
M  V30 19 S -0.612959 -2.433810 -1.262730 0
M  V30 20 H -0.215504 0.418922 4.346094 0
M  V30 21 H -1.435567 0.745625 3.006518 0
M  V30 22 H -1.854997 -0.375711 4.323047 0
M  V30 23 H 1.547958 -1.444662 3.495340 0
M  V30 24 H 1.157957 -2.040167 1.872847 0
M  V30 25 H -0.358828 1.948081 1.106824 0
M  V30 26 H -1.310746 2.677774 -1.025534 0
M  V30 27 H 2.497326 -0.497938 -0.844551 0
M  V30 28 H -0.772600 -3.662018 2.121031 0
M  V30 29 H -0.698370 -5.459064 -0.607062 0
M  V30 30 H 0.934718 -4.687015 -0.119862 0
M  V30 END ATOM
M  V30 BEGIN BOND
M  V30 1 1 1 2
M  V30 2 1 2 3
M  V30 3 1 3 4
M  V30 4 2 4 5
M  V30 5 2 4 6
M  V30 6 1 4 7
M  V30 7 2 7 8
M  V30 8 1 8 9
M  V30 9 2 9 10
M  V30 10 1 10 11
M  V30 11 1 10 12
M  V30 12 1 12 13
M  V30 13 2 12 14
M  V30 14 2 2 15
M  V30 15 1 15 16
M  V30 16 1 16 17
M  V30 17 1 17 18
M  V30 18 2 17 19
M  V30 19 1 14 7
M  V30 20 1 1 20
M  V30 21 1 1 21
M  V30 22 1 1 22
M  V30 23 1 3 23
M  V30 24 1 3 24
M  V30 25 1 8 25
M  V30 26 1 9 26
M  V30 27 1 14 27
M  V30 28 1 16 28
M  V30 29 1 18 29
M  V30 30 1 18 30
M  V30 END BOND
M  V30 END CTAB
M  END
>  <Dataset>  (782) 
ChEMBL_Kinases

>  <Ligand_Instance>  (782) 
nan

>  <PDB_ID>  (782) 
nan

>  <Standardized_SMILES>  (782) 
C/C(CS(=O)(=O)c1ccc(Cl)c(Cl)c1)=N/NC(N)=S

>  <Name>  (782) 
nan

>  <Pocket>  (782) 
nan

>  <ATP_Site>  (782) 
nan

>  <Peripheral>  (782) 
nan

>  <Num_H_Atoms_ProtBoundConf>  (782) 
nan

>  <Num_Resolved_Atoms>  (782) 
nan

>  <Num_Not_Resolved_Atoms>  (782) 
nan

$$$$
CHEMBL3197797
     RDKit          3D

  0  0  0  0  0  0  0  0  0  0999 V3000
M  V30 BEGIN CTAB
M  V30 COUNTS 47 49 0 0 0
M  V30 BEGIN ATOM
M  V30 1 C 0.437320 -1.260767 4.666436 0
M  V30 2 C 0.643327 -0.719352 3.295822 0
M  V30 3 C 1.631627 0.143840 2.877873 0
M  V30 4 C 2.636720 0.650012 3.765852 0
M  V30 5 N 3.450157 1.043568 4.486462 0
M  V30 6 C 1.480396 0.409487 1.534858 0
M  V30 7 N 2.330768 1.249710 0.816042 0
M  V30 8 C 2.956545 2.278255 1.198747 0
M  V30 9 N 3.628530 2.662977 0.008575 0
M  V30 10 C 3.238311 3.893237 -0.683688 0
M  V30 11 C 4.717049 1.936491 -0.633418 0
M  V30 12 C 0.377240 -0.302420 1.107874 0
M  V30 13 C -0.092387 -0.226475 -0.260855 0
M  V30 14 O 0.322457 0.787355 -0.929727 0
M  V30 15 C -0.952569 -1.060633 -1.076375 0
M  V30 16 C -1.112859 -2.433897 -0.927871 0
M  V30 17 C -1.946381 -3.235853 -1.655814 0
M  V30 18 C -2.713897 -2.648855 -2.640856 0
M  V30 19 C -2.589295 -1.297460 -2.824543 0
M  V30 20 C -1.747051 -0.503323 -2.085045 0
M  V30 21 N -0.084886 -0.956172 2.190715 0
M  V30 22 C -1.225445 -1.801442 2.250090 0
M  V30 23 C -1.317778 -3.143348 2.575165 0
M  V30 24 C -2.568573 -3.726914 2.551672 0
M  V30 25 C -3.714322 -3.041824 2.223481 0
M  V30 26 C -3.621279 -1.708507 1.900643 0
M  V30 27 C -2.382957 -1.094481 1.914626 0
M  V30 28 H 0.833791 -0.590115 5.442770 0
M  V30 29 H -0.658664 -1.409802 4.815991 0
M  V30 30 H 0.961476 -2.259421 4.715960 0
M  V30 31 H 2.826052 2.559838 2.225110 0
M  V30 32 H 4.086161 4.486219 -1.026929 0
M  V30 33 H 2.623147 3.554588 -1.554453 0
M  V30 34 H 2.567692 4.467790 -0.010973 0
M  V30 35 H 5.480560 2.669167 -0.935678 0
M  V30 36 H 4.385685 1.440698 -1.581886 0
M  V30 37 H 5.149809 1.164552 0.056123 0
M  V30 38 H -0.525302 -2.961868 -0.191771 0
M  V30 39 H -2.023640 -4.302455 -1.487708 0
M  V30 40 H -3.382551 -3.257942 -3.231970 0
M  V30 41 H -3.198887 -0.826312 -3.609491 0
M  V30 42 H -1.694355 0.559020 -2.280244 0
M  V30 43 H -0.374304 -3.576878 2.812174 0
M  V30 44 H -2.586689 -4.765841 2.809421 0
M  V30 45 H -4.675058 -3.541511 2.218224 0
M  V30 46 H -4.542617 -1.207363 1.648979 0
M  V30 47 H -2.442986 -0.039843 1.641206 0
M  V30 END ATOM
M  V30 BEGIN BOND
M  V30 1 1 1 2
M  V30 2 2 2 3
M  V30 3 1 3 4
M  V30 4 3 4 5
M  V30 5 1 3 6
M  V30 6 1 6 7
M  V30 7 2 7 8
M  V30 8 1 8 9
M  V30 9 1 9 10
M  V30 10 1 9 11
M  V30 11 2 6 12
M  V30 12 1 12 13
M  V30 13 2 13 14
M  V30 14 1 13 15
M  V30 15 2 15 16
M  V30 16 1 16 17
M  V30 17 2 17 18
M  V30 18 1 18 19
M  V30 19 2 19 20
M  V30 20 1 12 21
M  V30 21 1 21 22
M  V30 22 2 22 23
M  V30 23 1 23 24
M  V30 24 2 24 25
M  V30 25 1 25 26
M  V30 26 2 26 27
M  V30 27 1 21 2
M  V30 28 1 27 22
M  V30 29 1 20 15
M  V30 30 1 1 28
M  V30 31 1 1 29
M  V30 32 1 1 30
M  V30 33 1 8 31
M  V30 34 1 10 32
M  V30 35 1 10 33
M  V30 36 1 10 34
M  V30 37 1 11 35
M  V30 38 1 11 36
M  V30 39 1 11 37
M  V30 40 1 16 38
M  V30 41 1 17 39
M  V30 42 1 18 40
M  V30 43 1 19 41
M  V30 44 1 20 42
M  V30 45 1 23 43
M  V30 46 1 24 44
M  V30 47 1 25 45
M  V30 48 1 26 46
M  V30 49 1 27 47
M  V30 END BOND
M  V30 END CTAB
M  END
>  <Dataset>  (783) 
ChEMBL_Kinases

>  <Ligand_Instance>  (783) 
nan

>  <PDB_ID>  (783) 
nan

>  <Standardized_SMILES>  (783) 
Cc1c(C#N)c(/N=C/N(C)C)c(C(=O)c2ccccc2)n1-c1ccccc1

>  <Name>  (783) 
nan

>  <Pocket>  (783) 
nan

>  <ATP_Site>  (783) 
nan

>  <Peripheral>  (783) 
nan

>  <Num_H_Atoms_ProtBoundConf>  (783) 
nan

>  <Num_Resolved_Atoms>  (783) 
nan

>  <Num_Not_Resolved_Atoms>  (783) 
nan

$$$$
CHEMBL3197627
     RDKit          3D

  0  0  0  0  0  0  0  0  0  0999 V3000
M  V30 BEGIN CTAB
M  V30 COUNTS 46 47 0 0 0
M  V30 BEGIN ATOM
M  V30 1 O -1.011530 -1.791750 4.510202 0
M  V30 2 C -1.393066 -1.400162 3.377483 0
M  V30 3 N -0.714811 -1.879247 2.246916 0
M  V30 4 C 0.387579 -2.800502 2.474860 0
M  V30 5 C 0.984247 -3.205122 1.157136 0
M  V30 6 C 1.498549 -1.970127 0.433891 0
M  V30 7 N 2.075390 -2.299004 -0.833199 0
M  V30 8 C 2.526838 -1.110400 -1.513667 0
M  V30 9 C 3.119088 -1.498413 -2.838323 0
M  V30 10 C 4.048601 -0.532007 -3.460079 0
M  V30 11 C 4.840033 0.292573 -2.479313 0
M  V30 12 C 3.949494 0.869301 -1.421657 0
M  V30 13 C 3.394147 -0.305436 -0.620551 0
M  V30 14 C -2.520042 -0.472497 3.343355 0
M  V30 15 C -3.095432 -0.090520 4.538578 0
M  V30 16 C -4.166146 0.780984 4.630311 0
M  V30 17 C -4.651069 1.270736 3.411014 0
M  V30 18 C -5.779773 2.198012 3.392017 0
M  V30 19 N -6.285908 2.693607 2.335434 0
M  V30 20 O -7.351824 3.571299 2.291418 0
M  V30 21 N -4.103853 0.910379 2.236111 0
M  V30 22 C -3.048537 0.048894 2.179597 0
M  V30 23 H -1.055382 -1.536615 1.323092 0
M  V30 24 H 1.162211 -2.359246 3.129208 0
M  V30 25 H -0.049607 -3.708603 2.959123 0
M  V30 26 H 1.907556 -3.821869 1.358448 0
M  V30 27 H 0.324174 -3.822304 0.548747 0
M  V30 28 H 2.331610 -1.595486 1.100676 0
M  V30 29 H 0.685852 -1.251497 0.303651 0
M  V30 30 H 2.885440 -2.950705 -0.755380 0
M  V30 31 H 1.616141 -0.500292 -1.729265 0
M  V30 32 H 2.267213 -1.671965 -3.537028 0
M  V30 33 H 3.568554 -2.526388 -2.709814 0
M  V30 34 H 3.589911 0.165466 -4.197492 0
M  V30 35 H 4.800645 -1.114726 -4.048320 0
M  V30 36 H 5.640934 -0.295440 -1.999622 0
M  V30 37 H 5.310284 1.132578 -3.037054 0
M  V30 38 H 3.081299 1.360832 -1.897531 0
M  V30 39 H 4.530095 1.523137 -0.743716 0
M  V30 40 H 2.753640 0.132476 0.175382 0
M  V30 41 H 4.229118 -0.820796 -0.148336 0
M  V30 42 H -2.737891 -0.456405 5.499805 0
M  V30 43 H -4.611060 1.075758 5.561889 0
M  V30 44 H -6.254152 2.516269 4.320068 0
M  V30 45 H -7.172269 4.431440 1.786485 0
M  V30 46 H -2.617997 -0.232688 1.233346 0
M  V30 END ATOM
M  V30 BEGIN BOND
M  V30 1 2 1 2
M  V30 2 1 2 3
M  V30 3 1 3 4
M  V30 4 1 4 5
M  V30 5 1 5 6
M  V30 6 1 6 7
M  V30 7 1 7 8
M  V30 8 1 8 9
M  V30 9 1 9 10
M  V30 10 1 10 11
M  V30 11 1 11 12
M  V30 12 1 12 13
M  V30 13 1 2 14
M  V30 14 2 14 15
M  V30 15 1 15 16
M  V30 16 2 16 17
M  V30 17 1 17 18
M  V30 18 2 18 19
M  V30 19 1 19 20
M  V30 20 1 17 21
M  V30 21 2 21 22
M  V30 22 1 13 8
M  V30 23 1 22 14
M  V30 24 1 3 23
M  V30 25 1 4 24
M  V30 26 1 4 25
M  V30 27 1 5 26
M  V30 28 1 5 27
M  V30 29 1 6 28
M  V30 30 1 6 29
M  V30 31 1 7 30
M  V30 32 1 8 31
M  V30 33 1 9 32
M  V30 34 1 9 33
M  V30 35 1 10 34
M  V30 36 1 10 35
M  V30 37 1 11 36
M  V30 38 1 11 37
M  V30 39 1 12 38
M  V30 40 1 12 39
M  V30 41 1 13 40
M  V30 42 1 13 41
M  V30 43 1 15 42
M  V30 44 1 16 43
M  V30 45 1 18 44
M  V30 46 1 20 45
M  V30 47 1 22 46
M  V30 END BOND
M  V30 END CTAB
M  END
>  <Dataset>  (784) 
ChEMBL_Kinases

>  <Ligand_Instance>  (784) 
nan

>  <PDB_ID>  (784) 
nan

>  <Standardized_SMILES>  (784) 
O=C(NCCCNC1CCCCC1)c1ccc(/C=N/O)nc1

>  <Name>  (784) 
nan

>  <Pocket>  (784) 
nan

>  <ATP_Site>  (784) 
nan

>  <Peripheral>  (784) 
nan

>  <Num_H_Atoms_ProtBoundConf>  (784) 
nan

>  <Num_Resolved_Atoms>  (784) 
nan

>  <Num_Not_Resolved_Atoms>  (784) 
nan

$$$$
CHEMBL3197622
     RDKit          3D

  0  0  0  0  0  0  0  0  0  0999 V3000
M  V30 BEGIN CTAB
M  V30 COUNTS 34 35 0 0 0
M  V30 BEGIN ATOM
M  V30 1 C -1.913455 -0.392125 2.288976 0
M  V30 2 C -0.772705 -0.488036 1.321309 0
M  V30 3 C -0.189266 -1.796306 1.045431 0
M  V30 4 C 0.804864 -1.907943 0.206970 0
M  V30 5 O 1.233804 -0.721860 -0.369517 0
M  V30 6 C 1.467512 -3.158141 -0.147371 0
M  V30 7 C 1.113642 -4.383698 0.371253 0
M  V30 8 C 1.767800 -5.546852 0.009058 0
M  V30 9 C 2.810378 -5.517323 -0.895859 0
M  V30 10 C 3.183685 -4.300021 -1.429822 0
M  V30 11 C 2.510883 -3.157491 -1.047948 0
M  V30 12 N -0.340294 0.566137 0.764782 0
M  V30 13 C -0.832344 1.887558 0.959479 0
M  V30 14 C -0.673204 2.569568 2.159580 0
M  V30 15 C -1.151121 3.856930 2.353167 0
M  V30 16 C -1.814959 4.486624 1.303066 0
M  V30 17 C -1.984929 3.827107 0.099740 0
M  V30 18 O -2.655450 4.488072 -0.932538 0
M  V30 19 C -1.498524 2.538699 -0.072436 0
M  V30 20 H -2.831605 -0.857034 1.881140 0
M  V30 21 H -1.675184 -0.959435 3.224013 0
M  V30 22 H -2.137515 0.630258 2.572736 0
M  V30 23 H -0.571019 -2.685296 1.529515 0
M  V30 24 H 2.224113 -0.494614 -0.345773 0
M  V30 25 H 0.312714 -4.457052 1.075242 0
M  V30 26 H 1.510297 -6.521497 0.400862 0
M  V30 27 H 3.344035 -6.414633 -1.200302 0
M  V30 28 H 4.002114 -4.296411 -2.136788 0
M  V30 29 H 2.882593 -2.259983 -1.524890 0
M  V30 30 H -0.157634 2.086875 2.982372 0
M  V30 31 H -1.037218 4.403453 3.278638 0
M  V30 32 H -2.218587 5.503477 1.386407 0
M  V30 33 H -3.079441 3.896391 -1.637045 0
M  V30 34 H -1.635589 2.031117 -1.015209 0
M  V30 END ATOM
M  V30 BEGIN BOND
M  V30 1 1 1 2
M  V30 2 1 2 3
M  V30 3 2 3 4
M  V30 4 1 4 5
M  V30 5 1 4 6
M  V30 6 2 6 7
M  V30 7 1 7 8
M  V30 8 2 8 9
M  V30 9 1 9 10
M  V30 10 2 10 11
M  V30 11 2 2 12
M  V30 12 1 12 13
M  V30 13 2 13 14
M  V30 14 1 14 15
M  V30 15 2 15 16
M  V30 16 1 16 17
M  V30 17 1 17 18
M  V30 18 2 17 19
M  V30 19 1 11 6
M  V30 20 1 19 13
M  V30 21 1 1 20
M  V30 22 1 1 21
M  V30 23 1 1 22
M  V30 24 1 3 23
M  V30 25 1 5 24
M  V30 26 1 7 25
M  V30 27 1 8 26
M  V30 28 1 9 27
M  V30 29 1 10 28
M  V30 30 1 11 29
M  V30 31 1 14 30
M  V30 32 1 15 31
M  V30 33 1 16 32
M  V30 34 1 18 33
M  V30 35 1 19 34
M  V30 END BOND
M  V30 END CTAB
M  END
>  <Dataset>  (785) 
ChEMBL_Kinases

>  <Ligand_Instance>  (785) 
nan

>  <PDB_ID>  (785) 
nan

>  <Standardized_SMILES>  (785) 
CC(/C=C(\O)c1ccccc1)=N\c1cccc(O)c1

>  <Name>  (785) 
nan

>  <Pocket>  (785) 
nan

>  <ATP_Site>  (785) 
nan

>  <Peripheral>  (785) 
nan

>  <Num_H_Atoms_ProtBoundConf>  (785) 
nan

>  <Num_Resolved_Atoms>  (785) 
nan

>  <Num_Not_Resolved_Atoms>  (785) 
nan

$$$$
CHEMBL3197491
     RDKit          3D

  0  0  0  0  0  0  0  0  0  0999 V3000
M  V30 BEGIN CTAB
M  V30 COUNTS 30 32 0 0 0
M  V30 BEGIN ATOM
M  V30 1 O 1.203478 -1.572407 1.051049 0
M  V30 2 C 0.109587 -1.095822 0.655205 0
M  V30 3 N -0.636381 -1.727487 -0.373402 0
M  V30 4 N -0.353180 -2.875187 -1.083213 0
M  V30 5 C 0.784935 -3.330410 -1.409746 0
M  V30 6 C 1.082433 -4.561477 -2.170841 0
M  V30 7 C 1.030060 -5.948715 -2.081429 0
M  V30 8 C 1.513126 -6.443275 -3.275460 0
M  V30 9 C 1.838578 -5.347309 -4.040190 0
M  V30 10 O 1.575072 -4.241364 -3.365626 0
M  V30 11 C -0.390520 0.134867 1.277426 0
M  V30 12 C 0.281135 0.820081 2.295916 0
M  V30 13 C -0.563742 1.876026 2.535731 0
M  V30 14 C -0.291057 2.902936 3.543012 0
M  V30 15 C -0.980366 4.063974 3.976272 0
M  V30 16 C -0.389043 4.787654 4.968459 0
M  V30 17 C 0.840473 4.417841 5.544804 0
M  V30 18 Cl 1.752777 5.129115 6.754176 0
M  V30 19 S 1.252597 2.826661 4.574349 0
M  V30 20 N -1.637045 1.835225 1.744194 0
M  V30 21 N -1.558368 0.756693 0.944512 0
M  V30 22 H -1.543993 -1.317308 -0.690148 0
M  V30 23 H 1.608196 -2.689264 -1.056270 0
M  V30 24 H 0.635199 -6.260851 -1.125326 0
M  V30 25 H 1.532034 -7.520324 -3.351585 0
M  V30 26 H 2.241825 -5.513879 -5.030082 0
M  V30 27 H 1.225811 0.527360 2.731964 0
M  V30 28 H -1.908946 4.270757 3.483484 0
M  V30 29 H -0.858180 5.682613 5.346425 0
M  V30 30 H -2.193620 0.396135 0.209244 0
M  V30 END ATOM
M  V30 BEGIN BOND
M  V30 1 2 1 2
M  V30 2 1 2 3
M  V30 3 1 3 4
M  V30 4 2 4 5
M  V30 5 1 5 6
M  V30 6 2 6 7
M  V30 7 1 7 8
M  V30 8 2 8 9
M  V30 9 1 9 10
M  V30 10 1 2 11
M  V30 11 2 11 12
M  V30 12 1 12 13
M  V30 13 1 13 14
M  V30 14 2 14 15
M  V30 15 1 15 16
M  V30 16 2 16 17
M  V30 17 1 17 18
M  V30 18 1 17 19
M  V30 19 2 13 20
M  V30 20 1 20 21
M  V30 21 1 10 6
M  V30 22 1 21 11
M  V30 23 1 19 14
M  V30 24 1 3 22
M  V30 25 1 5 23
M  V30 26 1 7 24
M  V30 27 1 8 25
M  V30 28 1 9 26
M  V30 29 1 12 27
M  V30 30 1 15 28
M  V30 31 1 16 29
M  V30 32 1 21 30
M  V30 END BOND
M  V30 END CTAB
M  END
>  <Dataset>  (786) 
ChEMBL_Kinases

>  <Ligand_Instance>  (786) 
nan

>  <PDB_ID>  (786) 
nan

>  <Standardized_SMILES>  (786) 
O=C(N/N=C/c1ccco1)c1cc(-c2ccc(Cl)s2)n[nH]1

>  <Name>  (786) 
nan

>  <Pocket>  (786) 
nan

>  <ATP_Site>  (786) 
nan

>  <Peripheral>  (786) 
nan

>  <Num_H_Atoms_ProtBoundConf>  (786) 
nan

>  <Num_Resolved_Atoms>  (786) 
nan

>  <Num_Not_Resolved_Atoms>  (786) 
nan

$$$$
CHEMBL3197350
     RDKit          3D

  0  0  0  0  0  0  0  0  0  0999 V3000
M  V30 BEGIN CTAB
M  V30 COUNTS 38 38 0 0 0
M  V30 BEGIN ATOM
M  V30 1 C 0.682218 -2.288862 4.078006 0
M  V30 2 C 1.009425 -3.473057 3.226688 0
M  V30 3 O 0.153554 -3.534379 2.132745 0
M  V30 4 C -0.029972 -2.639666 1.128927 0
M  V30 5 O 0.848634 -1.994346 1.755171 0
M  V30 6 C 0.032957 -1.492853 0.240398 0
M  V30 7 C 0.898407 -0.334205 0.413670 0
M  V30 8 N 0.839041 0.608005 -0.464691 0
M  V30 9 C 1.668261 1.784138 -0.354643 0
M  V30 10 N 2.903408 1.613213 -0.857444 0
M  V30 11 C 3.773897 2.618233 -0.821563 0
M  V30 12 C 3.457457 3.861549 -0.276834 0
M  V30 13 C 2.173446 4.039328 0.245892 0
M  V30 14 C 1.276348 2.983610 0.201984 0
M  V30 15 C -0.114024 3.054958 0.726009 0
M  V30 16 C -0.803659 -1.614006 -0.774119 0
M  V30 17 O -0.802088 -0.569213 -1.658071 0
M  V30 18 O -1.657761 -2.683130 -1.008050 0
M  V30 19 C -2.792194 -2.807284 -0.150614 0
M  V30 20 C -3.619639 -4.016254 -0.533132 0
M  V30 21 H 1.404931 -1.435977 3.944608 0
M  V30 22 H -0.312032 -1.896728 3.775769 0
M  V30 23 H 0.640558 -2.597305 5.147571 0
M  V30 24 H 0.818868 -4.395147 3.827673 0
M  V30 25 H 2.086221 -3.510437 2.948011 0
M  V30 26 H 1.566252 -0.281019 1.260536 0
M  V30 27 H 4.792811 2.583729 -1.199418 0
M  V30 28 H 4.151731 4.689876 -0.238938 0
M  V30 29 H 1.841562 4.979013 0.690901 0
M  V30 30 H -0.153534 2.806203 1.805506 0
M  V30 31 H -0.784694 2.390482 0.145592 0
M  V30 32 H -0.472540 4.100872 0.623550 0
M  V30 33 H -0.663956 -0.672966 -2.646775 0
M  V30 34 H -3.457347 -1.921690 -0.221381 0
M  V30 35 H -2.474598 -2.869171 0.911192 0
M  V30 36 H -4.353929 -3.686375 -1.302596 0
M  V30 37 H -2.949426 -4.779206 -1.008618 0
M  V30 38 H -4.103875 -4.441066 0.368666 0
M  V30 END ATOM
M  V30 BEGIN BOND
M  V30 1 1 1 2
M  V30 2 1 2 3
M  V30 3 1 3 4
M  V30 4 2 4 5
M  V30 5 1 4 6
M  V30 6 1 6 7
M  V30 7 2 7 8
M  V30 8 1 8 9
M  V30 9 2 9 10
M  V30 10 1 10 11
M  V30 11 2 11 12
M  V30 12 1 12 13
M  V30 13 2 13 14
M  V30 14 1 14 15
M  V30 15 2 6 16
M  V30 16 1 16 17
M  V30 17 1 16 18
M  V30 18 1 18 19
M  V30 19 1 19 20
M  V30 20 1 14 9
M  V30 21 1 1 21
M  V30 22 1 1 22
M  V30 23 1 1 23
M  V30 24 1 2 24
M  V30 25 1 2 25
M  V30 26 1 7 26
M  V30 27 1 11 27
M  V30 28 1 12 28
M  V30 29 1 13 29
M  V30 30 1 15 30
M  V30 31 1 15 31
M  V30 32 1 15 32
M  V30 33 1 17 33
M  V30 34 1 19 34
M  V30 35 1 19 35
M  V30 36 1 20 36
M  V30 37 1 20 37
M  V30 38 1 20 38
M  V30 END BOND
M  V30 END CTAB
M  END
>  <Dataset>  (787) 
ChEMBL_Kinases

>  <Ligand_Instance>  (787) 
nan

>  <PDB_ID>  (787) 
nan

>  <Standardized_SMILES>  (787) 
CCOC(=O)C(/C=N/c1ncccc1C)=C(/O)OCC

>  <Name>  (787) 
nan

>  <Pocket>  (787) 
nan

>  <ATP_Site>  (787) 
nan

>  <Peripheral>  (787) 
nan

>  <Num_H_Atoms_ProtBoundConf>  (787) 
nan

>  <Num_Resolved_Atoms>  (787) 
nan

>  <Num_Not_Resolved_Atoms>  (787) 
nan

$$$$
CHEMBL3197141
     RDKit          3D

  0  0  0  0  0  0  0  0  0  0999 V3000
M  V30 BEGIN CTAB
M  V30 COUNTS 46 48 0 0 0
M  V30 BEGIN ATOM
M  V30 1 C -1.502823 -4.718472 2.598536 0
M  V30 2 C -1.264915 -3.490945 1.810327 0
M  V30 3 C -0.151014 -2.683763 1.941364 0
M  V30 4 C -0.216186 -1.605250 1.062936 0
M  V30 5 C 0.818338 -0.561315 0.957018 0
M  V30 6 O 0.420174 0.302287 1.810857 0
M  V30 7 N 1.985925 -0.433659 0.162478 0
M  V30 8 N 2.561404 0.799112 0.522635 0
M  V30 9 C 3.566948 1.275459 -0.133182 0
M  V30 10 C 4.179630 2.551740 0.222491 0
M  V30 11 C 5.240994 3.114627 -0.423625 0
M  V30 12 C 5.738147 4.320787 -0.004514 0
M  V30 13 C 5.224599 5.031176 1.060679 0
M  V30 14 O 5.734322 6.252928 1.478966 0
M  V30 15 C 4.152368 4.466268 1.716276 0
M  V30 16 O 3.566637 5.118319 2.810036 0
M  V30 17 C 3.656435 3.251884 1.289640 0
M  V30 18 O 2.572001 2.722254 1.984633 0
M  V30 19 C -1.408380 -1.781570 0.390822 0
M  V30 20 C -1.894136 -0.852527 -0.657224 0
M  V30 21 N -2.005266 -2.891891 0.844881 0
M  V30 22 C -3.255693 -3.438765 0.419868 0
M  V30 23 C -4.402422 -2.717698 0.703864 0
M  V30 24 C -5.647581 -3.189171 0.320936 0
M  V30 25 C -5.686763 -4.408222 -0.354733 0
M  V30 26 C -4.535646 -5.122851 -0.634749 0
M  V30 27 C -3.295441 -4.640429 -0.246284 0
M  V30 28 H -0.592127 -5.368023 2.651802 0
M  V30 29 H -1.804298 -4.400457 3.622043 0
M  V30 30 H -2.273331 -5.365609 2.115153 0
M  V30 31 H 0.676746 -2.843839 2.626565 0
M  V30 32 H 2.022749 -1.313477 -0.430569 0
M  V30 33 H 3.924202 0.672817 -0.957352 0
M  V30 34 H 5.674211 2.587740 -1.266674 0
M  V30 35 H 6.589662 4.799775 -0.501861 0
M  V30 36 H 6.503621 6.235224 2.155208 0
M  V30 37 H 3.156127 4.564786 3.573104 0
M  V30 38 H 1.696181 3.190292 2.095130 0
M  V30 39 H -2.447004 0.024867 -0.249149 0
M  V30 40 H -1.088535 -0.545420 -1.356976 0
M  V30 41 H -2.634762 -1.413263 -1.268247 0
M  V30 42 H -4.415397 -1.756106 1.232495 0
M  V30 43 H -6.601757 -2.708953 0.491246 0
M  V30 44 H -6.646269 -4.809712 -0.670840 0
M  V30 45 H -4.611753 -6.068960 -1.163662 0
M  V30 46 H -2.391626 -5.198465 -0.464442 0
M  V30 END ATOM
M  V30 BEGIN BOND
M  V30 1 1 1 2
M  V30 2 2 2 3
M  V30 3 1 3 4
M  V30 4 1 4 5
M  V30 5 2 5 6
M  V30 6 1 5 7
M  V30 7 1 7 8
M  V30 8 2 8 9
M  V30 9 1 9 10
M  V30 10 2 10 11
M  V30 11 1 11 12
M  V30 12 2 12 13
M  V30 13 1 13 14
M  V30 14 1 13 15
M  V30 15 1 15 16
M  V30 16 2 15 17
M  V30 17 1 17 18
M  V30 18 2 4 19
M  V30 19 1 19 20
M  V30 20 1 19 21
M  V30 21 1 21 22
M  V30 22 2 22 23
M  V30 23 1 23 24
M  V30 24 2 24 25
M  V30 25 1 25 26
M  V30 26 2 26 27
M  V30 27 1 21 2
M  V30 28 1 27 22
M  V30 29 1 17 10
M  V30 30 1 1 28
M  V30 31 1 1 29
M  V30 32 1 1 30
M  V30 33 1 3 31
M  V30 34 1 7 32
M  V30 35 1 9 33
M  V30 36 1 11 34
M  V30 37 1 12 35
M  V30 38 1 14 36
M  V30 39 1 16 37
M  V30 40 1 18 38
M  V30 41 1 20 39
M  V30 42 1 20 40
M  V30 43 1 20 41
M  V30 44 1 23 42
M  V30 45 1 24 43
M  V30 46 1 25 44
M  V30 47 1 26 45
M  V30 48 1 27 46
M  V30 END BOND
M  V30 END CTAB
M  END
>  <Dataset>  (788) 
ChEMBL_Kinases

>  <Ligand_Instance>  (788) 
nan

>  <PDB_ID>  (788) 
nan

>  <Standardized_SMILES>  (788) 
Cc1cc(C(=O)N/N=C/c2ccc(O)c(O)c2O)c(C)n1-c1ccccc1

>  <Name>  (788) 
nan

>  <Pocket>  (788) 
nan

>  <ATP_Site>  (788) 
nan

>  <Peripheral>  (788) 
nan

>  <Num_H_Atoms_ProtBoundConf>  (788) 
nan

>  <Num_Resolved_Atoms>  (788) 
nan

>  <Num_Not_Resolved_Atoms>  (788) 
nan

$$$$
CHEMBL3195233
     RDKit          3D

  0  0  0  0  0  0  0  0  0  0999 V3000
M  V30 BEGIN CTAB
M  V30 COUNTS 40 42 0 0 0
M  V30 BEGIN ATOM
M  V30 1 O 0.555418 -1.570643 3.278902 0
M  V30 2 C -0.132050 -1.492341 2.228353 0
M  V30 3 C 0.192520 -1.814269 0.768254 0
M  V30 4 N 1.465217 -2.370818 0.744024 0
M  V30 5 C 1.816237 -3.660387 1.300308 0
M  V30 6 C 3.027635 -3.515988 2.181107 0
M  V30 7 S 4.044331 -2.497243 1.060344 0
M  V30 8 C 2.642716 -1.822908 0.167842 0
M  V30 9 N 2.763268 -1.026754 -0.791148 0
M  V30 10 C 1.604973 -0.541654 -1.471527 0
M  V30 11 C 1.487882 0.916869 -1.531586 0
M  V30 12 C 0.879528 1.651986 -0.504955 0
M  V30 13 C 0.725979 3.022875 -0.489667 0
M  V30 14 C 1.206124 3.765050 -1.571614 0
M  V30 15 C 1.822192 3.132142 -2.634000 0
M  V30 16 C 1.921627 1.779947 -2.548246 0
M  V30 17 C -1.493399 -0.992909 2.519116 0
M  V30 18 C -1.877138 -0.659264 3.799380 0
M  V30 19 C -3.189459 -0.196357 3.987810 0
M  V30 20 C -4.103677 -0.055730 2.995819 0
M  V30 21 Cl -5.714851 0.535955 3.367500 0
M  V30 22 C -3.717559 -0.391475 1.707102 0
M  V30 23 C -2.425632 -0.848236 1.515388 0
M  V30 24 H -0.536979 -2.674603 0.596390 0
M  V30 25 H -0.216143 -1.005605 0.301619 0
M  V30 26 H 2.142143 -4.379313 0.488932 0
M  V30 27 H 0.986751 -4.188382 1.777133 0
M  V30 28 H 3.463096 -4.531517 2.303343 0
M  V30 29 H 2.834166 -3.014016 3.128718 0
M  V30 30 H 2.071120 -0.696652 -2.530865 0
M  V30 31 H 0.773997 -1.185804 -1.682721 0
M  V30 32 H 0.478188 1.214246 0.374410 0
M  V30 33 H 0.267711 3.590969 0.278992 0
M  V30 34 H 1.110604 4.832021 -1.607334 0
M  V30 35 H 2.205601 3.648963 -3.482052 0
M  V30 36 H 2.401900 1.259644 -3.373639 0
M  V30 37 H -1.197104 -0.747982 4.634281 0
M  V30 38 H -3.423335 0.049436 5.028202 0
M  V30 39 H -4.440420 -0.282533 0.909614 0
M  V30 40 H -2.219700 -1.085168 0.482298 0
M  V30 END ATOM
M  V30 BEGIN BOND
M  V30 1 2 1 2
M  V30 2 1 2 3
M  V30 3 1 3 4
M  V30 4 1 4 5
M  V30 5 1 5 6
M  V30 6 1 6 7
M  V30 7 1 7 8
M  V30 8 2 8 9
M  V30 9 1 9 10
M  V30 10 1 10 11
M  V30 11 2 11 12
M  V30 12 1 12 13
M  V30 13 2 13 14
M  V30 14 1 14 15
M  V30 15 2 15 16
M  V30 16 1 2 17
M  V30 17 2 17 18
M  V30 18 1 18 19
M  V30 19 2 19 20
M  V30 20 1 20 21
M  V30 21 1 20 22
M  V30 22 2 22 23
M  V30 23 1 8 4
M  V30 24 1 16 11
M  V30 25 1 23 17
M  V30 26 1 3 24
M  V30 27 1 3 25
M  V30 28 1 5 26
M  V30 29 1 5 27
M  V30 30 1 6 28
M  V30 31 1 6 29
M  V30 32 1 10 30
M  V30 33 1 10 31
M  V30 34 1 12 32
M  V30 35 1 13 33
M  V30 36 1 14 34
M  V30 37 1 15 35
M  V30 38 1 16 36
M  V30 39 1 18 37
M  V30 40 1 19 38
M  V30 41 1 22 39
M  V30 42 1 23 40
M  V30 END BOND
M  V30 END CTAB
M  END
>  <Dataset>  (789) 
ChEMBL_Kinases

>  <Ligand_Instance>  (789) 
nan

>  <PDB_ID>  (789) 
nan

>  <Standardized_SMILES>  (789) 
O=C(CN1CCS/C1=N/Cc1ccccc1)c1ccc(Cl)cc1

>  <Name>  (789) 
nan

>  <Pocket>  (789) 
nan

>  <ATP_Site>  (789) 
nan

>  <Peripheral>  (789) 
nan

>  <Num_H_Atoms_ProtBoundConf>  (789) 
nan

>  <Num_Resolved_Atoms>  (789) 
nan

>  <Num_Not_Resolved_Atoms>  (789) 
nan

$$$$
CHEMBL319556
     RDKit          3D

  0  0  0  0  0  0  0  0  0  0999 V3000
M  V30 BEGIN CTAB
M  V30 COUNTS 54 58 0 0 0
M  V30 BEGIN ATOM
M  V30 1 O 2.163343 -4.676846 2.062380 0
M  V30 2 C 2.035723 -3.465816 1.734838 0
M  V30 3 N 3.123744 -2.555701 1.823328 0
M  V30 4 C 3.048785 -1.160963 1.466409 0
M  V30 5 C 1.706522 -0.755111 0.989382 0
M  V30 6 C 1.608116 0.589124 0.638051 0
M  V30 7 C 2.673745 1.585466 0.699475 0
M  V30 8 C 2.830110 2.313955 1.880346 0
M  V30 9 C 3.845946 3.249204 1.909629 0
M  V30 10 C 4.710668 3.513680 0.864599 0
M  V30 11 F 5.676815 4.461071 1.008923 0
M  V30 12 C 4.524105 2.769078 -0.293619 0
M  V30 13 C 3.523237 1.817833 -0.382389 0
M  V30 14 F 3.343332 1.097461 -1.503947 0
M  V30 15 C 0.354027 1.010160 0.182263 0
M  V30 16 C -0.743041 0.202904 0.066473 0
M  V30 17 C -2.036622 0.743978 -0.429304 0
M  V30 18 C -2.449168 -0.046758 -1.645745 0
M  V30 19 C -3.892391 0.192205 -2.022447 0
M  V30 20 N -4.786934 0.300661 -0.915053 0
M  V30 21 C -4.360770 1.147616 0.153705 0
M  V30 22 C -3.047878 0.622854 0.687465 0
M  V30 23 C -0.615530 -1.124217 0.421906 0
M  V30 24 C 0.605558 -1.578389 0.876339 0
M  V30 25 N 0.791895 -2.942791 1.257384 0
M  V30 26 C -0.272631 -3.883422 1.182859 0
M  V30 27 C -1.126209 -4.098271 2.245127 0
M  V30 28 Cl -0.926376 -3.215116 3.728830 0
M  V30 29 C -2.122223 -5.031894 2.064126 0
M  V30 30 C -2.340423 -5.772125 0.910175 0
M  V30 31 C -1.453102 -5.516874 -0.127728 0
M  V30 32 C -0.430696 -4.586309 0.000255 0
M  V30 33 Cl 0.617794 -4.364012 -1.391095 0
M  V30 34 H 4.064651 -2.852476 2.160748 0
M  V30 35 H 3.414690 -0.523206 2.299004 0
M  V30 36 H 3.812550 -1.016359 0.650571 0
M  V30 37 H 2.183587 2.148553 2.726747 0
M  V30 38 H 3.971490 3.816777 2.822870 0
M  V30 39 H 5.179364 2.950292 -1.124155 0
M  V30 40 H 0.228692 2.053349 -0.104221 0
M  V30 41 H -1.910719 1.819981 -0.652592 0
M  V30 42 H -1.796720 0.228766 -2.491693 0
M  V30 43 H -2.315993 -1.123420 -1.415088 0
M  V30 44 H -3.974022 1.026814 -2.764605 0
M  V30 45 H -4.211996 -0.720847 -2.603342 0
M  V30 46 H -5.151952 -0.609013 -0.612427 0
M  V30 47 H -4.200639 2.173972 -0.193097 0
M  V30 48 H -5.136232 1.084349 0.943815 0
M  V30 49 H -3.134045 -0.424424 1.025808 0
M  V30 50 H -2.702884 1.209991 1.544445 0
M  V30 51 H -1.445849 -1.817603 0.354088 0
M  V30 52 H -2.810002 -5.221417 2.885957 0
M  V30 53 H -3.143187 -6.484676 0.847336 0
M  V30 54 H -1.609296 -6.085496 -1.034409 0
M  V30 END ATOM
M  V30 BEGIN BOND
M  V30 1 2 1 2
M  V30 2 1 2 3
M  V30 3 1 3 4
M  V30 4 1 4 5
M  V30 5 2 5 6
M  V30 6 1 6 7
M  V30 7 2 7 8
M  V30 8 1 8 9
M  V30 9 2 9 10
M  V30 10 1 10 11
M  V30 11 1 10 12
M  V30 12 2 12 13
M  V30 13 1 13 14
M  V30 14 1 6 15
M  V30 15 2 15 16
M  V30 16 1 16 17
M  V30 17 1 17 18
M  V30 18 1 18 19
M  V30 19 1 19 20
M  V30 20 1 20 21
M  V30 21 1 21 22
M  V30 22 1 16 23
M  V30 23 2 23 24
M  V30 24 1 24 25
M  V30 25 1 25 26
M  V30 26 2 26 27
M  V30 27 1 27 28
M  V30 28 1 27 29
M  V30 29 2 29 30
M  V30 30 1 30 31
M  V30 31 2 31 32
M  V30 32 1 32 33
M  V30 33 1 25 2
M  V30 34 1 32 26
M  V30 35 1 24 5
M  V30 36 1 13 7
M  V30 37 1 22 17
M  V30 38 1 3 34
M  V30 39 1 4 35
M  V30 40 1 4 36
M  V30 41 1 8 37
M  V30 42 1 9 38
M  V30 43 1 12 39
M  V30 44 1 15 40
M  V30 45 1 17 41
M  V30 46 1 18 42
M  V30 47 1 18 43
M  V30 48 1 19 44
M  V30 49 1 19 45
M  V30 50 1 20 46
M  V30 51 1 21 47
M  V30 52 1 21 48
M  V30 53 1 22 49
M  V30 54 1 22 50
M  V30 55 1 23 51
M  V30 56 1 29 52
M  V30 57 1 30 53
M  V30 58 1 31 54
M  V30 END BOND
M  V30 END CTAB
M  END
>  <Dataset>  (790) 
ChEMBL_Kinases

>  <Ligand_Instance>  (790) 
nan

>  <PDB_ID>  (790) 
nan

>  <Standardized_SMILES>  (790) 
O=C1NCc2c(-c3ccc(F)cc3F)cc(C3CCNCC3)cc2N1c1c(Cl)cccc1Cl

>  <Name>  (790) 
nan

>  <Pocket>  (790) 
nan

>  <ATP_Site>  (790) 
nan

>  <Peripheral>  (790) 
nan

>  <Num_H_Atoms_ProtBoundConf>  (790) 
nan

>  <Num_Resolved_Atoms>  (790) 
nan

>  <Num_Not_Resolved_Atoms>  (790) 
nan

$$$$
CHEMBL3195649
     RDKit          3D

  0  0  0  0  0  0  0  0  0  0999 V3000
M  V30 BEGIN CTAB
M  V30 COUNTS 35 37 0 0 0
M  V30 BEGIN ATOM
M  V30 1 C -1.805319 -2.353502 2.875523 0
M  V30 2 C -0.480812 -1.699594 2.839627 0
M  V30 3 N 0.862171 -2.188097 2.645277 0
M  V30 4 N 1.422593 -1.768644 1.588840 0
M  V30 5 C 2.718946 -2.091291 1.169908 0
M  V30 6 C 3.775698 -2.660770 1.865603 0
M  V30 7 C 5.015851 -2.923770 1.333077 0
M  V30 8 C 5.274632 -2.618370 0.020286 0
M  V30 9 C 4.240528 -2.054491 -0.684880 0
M  V30 10 C 2.969866 -1.777662 -0.164372 0
M  V30 11 O 2.029762 -1.198615 -1.031950 0
M  V30 12 N -0.444549 -0.437847 3.004627 0
M  V30 13 N -1.617843 0.282834 3.210596 0
M  V30 14 C -1.718806 1.013037 1.934957 0
M  V30 15 N -2.566616 0.903837 1.153801 0
M  V30 16 C -2.722245 1.514153 -0.014640 0
M  V30 17 C -3.713237 1.409924 -0.964452 0
M  V30 18 C -3.682577 2.144771 -2.124084 0
M  V30 19 C -2.656150 3.047135 -2.432414 0
M  V30 20 C -1.631245 3.203848 -1.529244 0
M  V30 21 C -1.716847 2.436476 -0.377753 0
M  V30 22 S -0.574677 2.306830 1.126192 0
M  V30 23 H -2.387260 -2.182449 1.942953 0
M  V30 24 H -2.376401 -2.157577 3.796812 0
M  V30 25 H -1.637352 -3.471516 2.877653 0
M  V30 26 H 3.504619 -2.880466 2.905598 0
M  V30 27 H 5.765746 -3.374062 1.984390 0
M  V30 28 H 6.241472 -2.810626 -0.421587 0
M  V30 29 H 4.442672 -1.809488 -1.724213 0
M  V30 30 H 2.095432 -1.474309 -2.009097 0
M  V30 31 H -2.381150 0.493218 3.852771 0
M  V30 32 H -4.558341 0.759420 -0.862984 0
M  V30 33 H -4.471977 2.064896 -2.884657 0
M  V30 34 H -2.561237 3.656567 -3.313903 0
M  V30 35 H -0.761180 3.824747 -1.558970 0
M  V30 END ATOM
M  V30 BEGIN BOND
M  V30 1 1 1 2
M  V30 2 1 2 3
M  V30 3 2 3 4 CFG=2
M  V30 4 1 4 5
M  V30 5 2 5 6
M  V30 6 1 6 7
M  V30 7 2 7 8
M  V30 8 1 8 9
M  V30 9 2 9 10
M  V30 10 1 10 11
M  V30 11 2 2 12
M  V30 12 1 12 13
M  V30 13 1 13 14
M  V30 14 2 14 15
M  V30 15 1 15 16
M  V30 16 2 16 17
M  V30 17 1 17 18
M  V30 18 2 18 19
M  V30 19 1 19 20
M  V30 20 2 20 21
M  V30 21 1 21 22
M  V30 22 1 10 5
M  V30 23 1 22 14
M  V30 24 1 21 16
M  V30 25 1 1 23
M  V30 26 1 1 24
M  V30 27 1 1 25
M  V30 28 1 6 26
M  V30 29 1 7 27
M  V30 30 1 8 28
M  V30 31 1 9 29
M  V30 32 1 11 30
M  V30 33 1 13 31
M  V30 34 1 17 32
M  V30 35 1 18 33
M  V30 36 1 19 34
M  V30 37 1 20 35
M  V30 END BOND
M  V30 END CTAB
M  END
>  <Dataset>  (791) 
ChEMBL_Kinases

>  <Ligand_Instance>  (791) 
nan

>  <PDB_ID>  (791) 
nan

>  <Standardized_SMILES>  (791) 
C/C(N=Nc1ccccc1O)=N\Nc1nc2ccccc2s1

>  <Name>  (791) 
nan

>  <Pocket>  (791) 
nan

>  <ATP_Site>  (791) 
nan

>  <Peripheral>  (791) 
nan

>  <Num_H_Atoms_ProtBoundConf>  (791) 
nan

>  <Num_Resolved_Atoms>  (791) 
nan

>  <Num_Not_Resolved_Atoms>  (791) 
nan

$$$$
CHEMBL3195742
     RDKit          3D

  0  0  0  0  0  0  0  0  0  0999 V3000
M  V30 BEGIN CTAB
M  V30 COUNTS 45 47 0 0 0
M  V30 BEGIN ATOM
M  V30 1 C -1.460768 -4.805834 1.469129 0
M  V30 2 C -1.450046 -3.766066 0.417455 0
M  V30 3 C -0.419364 -2.892491 0.247111 0
M  V30 4 C -0.529663 -1.970760 -0.768867 0
M  V30 5 C -1.588417 -1.839871 -1.641709 0
M  V30 6 N -1.680510 -0.879713 -2.675729 0
M  V30 7 C -0.891167 0.178097 -3.127148 0
M  V30 8 S -1.477941 1.020791 -4.434608 0
M  V30 9 N 0.349229 0.720975 -2.705630 0
M  V30 10 N 1.523245 0.878031 -1.939993 0
M  V30 11 C 1.477865 1.297753 -0.716107 0
M  V30 12 C 2.586563 1.512235 0.205789 0
M  V30 13 C 3.904242 1.254728 -0.123957 0
M  V30 14 C 4.640359 1.585756 1.003284 0
M  V30 15 C 3.727093 2.015476 1.926216 0
M  V30 16 N 2.463733 1.978315 1.457784 0
M  V30 17 C 1.267686 2.355078 2.149488 0
M  V30 18 C 0.625780 1.247953 2.903221 0
M  V30 19 C -0.507406 0.640670 2.400485 0
M  V30 20 C -1.070798 -0.383190 3.134067 0
M  V30 21 C -0.595704 -0.859134 4.339988 0
M  V30 22 C 0.546983 -0.219572 4.809019 0
M  V30 23 C 1.144259 0.812041 4.105259 0
M  V30 24 F 2.256960 1.366970 4.656535 0
M  V30 25 C -2.590480 -2.755901 -1.408380 0
M  V30 26 C -2.544619 -3.701368 -0.412965 0
M  V30 27 H -1.180288 -5.801768 1.111408 0
M  V30 28 H -2.460044 -4.921482 1.948265 0
M  V30 29 H -0.779314 -4.545129 2.319079 0
M  V30 30 H 0.423696 -2.955316 0.900473 0
M  V30 31 H 0.316161 -1.317457 -0.850568 0
M  V30 32 H -2.574656 -1.005182 -3.242469 0
M  V30 33 H 0.805081 1.518177 -3.192709 0
M  V30 34 H 0.448221 1.504177 -0.377569 0
M  V30 35 H 4.338354 0.877799 -1.039233 0
M  V30 36 H 5.721708 1.507118 1.098384 0
M  V30 37 H 4.057363 2.337578 2.906544 0
M  V30 38 H 0.499808 2.828902 1.470222 0
M  V30 39 H 1.489002 3.179514 2.882444 0
M  V30 40 H -0.976306 0.922163 1.468025 0
M  V30 41 H -1.974499 -0.876766 2.747526 0
M  V30 42 H -1.096768 -1.669989 4.856404 0
M  V30 43 H 0.911190 -0.611825 5.770851 0
M  V30 44 H -3.474904 -2.748930 -2.032546 0
M  V30 45 H -3.372085 -4.385556 -0.294122 0
M  V30 END ATOM
M  V30 BEGIN BOND
M  V30 1 1 1 2
M  V30 2 2 2 3
M  V30 3 1 3 4
M  V30 4 2 4 5
M  V30 5 1 5 6
M  V30 6 1 6 7
M  V30 7 2 7 8
M  V30 8 1 7 9
M  V30 9 1 9 10
M  V30 10 2 10 11
M  V30 11 1 11 12
M  V30 12 2 12 13
M  V30 13 1 13 14
M  V30 14 2 14 15
M  V30 15 1 15 16
M  V30 16 1 16 17
M  V30 17 1 17 18
M  V30 18 2 18 19
M  V30 19 1 19 20
M  V30 20 2 20 21
M  V30 21 1 21 22
M  V30 22 2 22 23
M  V30 23 1 23 24
M  V30 24 1 5 25
M  V30 25 2 25 26
M  V30 26 1 26 2
M  V30 27 1 16 12
M  V30 28 1 23 18
M  V30 29 1 1 27
M  V30 30 1 1 28
M  V30 31 1 1 29
M  V30 32 1 3 30
M  V30 33 1 4 31
M  V30 34 1 6 32
M  V30 35 1 9 33
M  V30 36 1 11 34
M  V30 37 1 13 35
M  V30 38 1 14 36
M  V30 39 1 15 37
M  V30 40 1 17 38
M  V30 41 1 17 39
M  V30 42 1 19 40
M  V30 43 1 20 41
M  V30 44 1 21 42
M  V30 45 1 22 43
M  V30 46 1 25 44
M  V30 47 1 26 45
M  V30 END BOND
M  V30 END CTAB
M  END
>  <Dataset>  (792) 
ChEMBL_Kinases

>  <Ligand_Instance>  (792) 
nan

>  <PDB_ID>  (792) 
nan

>  <Standardized_SMILES>  (792) 
Cc1ccc(NC(=S)N/N=C/c2cccn2Cc2ccccc2F)cc1

>  <Name>  (792) 
nan

>  <Pocket>  (792) 
nan

>  <ATP_Site>  (792) 
nan

>  <Peripheral>  (792) 
nan

>  <Num_H_Atoms_ProtBoundConf>  (792) 
nan

>  <Num_Resolved_Atoms>  (792) 
nan

>  <Num_Not_Resolved_Atoms>  (792) 
nan

$$$$
CHEMBL3195747
     RDKit          3D

  0  0  0  0  0  0  0  0  0  0999 V3000
M  V30 BEGIN CTAB
M  V30 COUNTS 31 32 0 0 0
M  V30 BEGIN ATOM
M  V30 1 C -1.430834 -4.071635 2.583791 0
M  V30 2 N -0.883360 -3.147548 1.581984 0
M  V30 3 C 0.299225 -3.203536 1.187067 0
M  V30 4 S 1.414912 -4.546368 1.926023 0
M  V30 5 C 2.857462 -4.016848 0.928599 0
M  V30 6 C 2.373108 -2.920252 0.165044 0
M  V30 7 C 3.286594 -2.221717 -0.782484 0
M  V30 8 N 1.108142 -2.547208 0.317991 0
M  V30 9 N 0.457510 -1.503894 -0.336265 0
M  V30 10 C 0.132077 -0.400527 0.152275 0
M  V30 11 C -0.378736 0.942162 0.372870 0
M  V30 12 C -0.138645 1.333221 1.694991 0
M  V30 13 C -0.572090 2.603794 2.078447 0
M  V30 14 C -1.197238 3.340131 1.095115 0
M  V30 15 O -1.632164 4.606130 1.467230 0
M  V30 16 C -1.445379 2.978902 -0.210845 0
M  V30 17 C -1.010444 1.723635 -0.568271 0
M  V30 18 O -1.178084 1.212237 -1.825492 0
M  V30 19 H -2.003827 -3.390952 3.276321 0
M  V30 20 H -2.097792 -4.822231 2.120071 0
M  V30 21 H -0.645102 -4.537273 3.189248 0
M  V30 22 H 3.885444 -4.409148 0.881365 0
M  V30 23 H 2.763392 -1.550350 -1.459108 0
M  V30 24 H 3.725440 -3.019965 -1.451781 0
M  V30 25 H 4.142958 -1.756628 -0.290893 0
M  V30 26 H -0.036353 -0.736475 -0.866275 0
M  V30 27 H 0.348642 0.757582 2.458962 0
M  V30 28 H -0.434744 2.995209 3.069176 0
M  V30 29 H -2.629791 4.819334 1.493113 0
M  V30 30 H -1.943966 3.627440 -0.908574 0
M  V30 31 H -1.981720 1.338467 -2.424234 0
M  V30 END ATOM
M  V30 BEGIN BOND
M  V30 1 1 1 2
M  V30 2 2 2 3
M  V30 3 1 3 4
M  V30 4 1 4 5
M  V30 5 2 5 6
M  V30 6 1 6 7
M  V30 7 1 6 8
M  V30 8 1 8 9
M  V30 9 2 9 10
M  V30 10 1 10 11
M  V30 11 2 11 12
M  V30 12 1 12 13
M  V30 13 2 13 14
M  V30 14 1 14 15
M  V30 15 1 14 16
M  V30 16 2 16 17
M  V30 17 1 17 18
M  V30 18 1 8 3
M  V30 19 1 17 11
M  V30 20 1 1 19
M  V30 21 1 1 20
M  V30 22 1 1 21
M  V30 23 1 5 22
M  V30 24 1 7 23
M  V30 25 1 7 24
M  V30 26 1 7 25
M  V30 27 1 10 26
M  V30 28 1 12 27
M  V30 29 1 13 28
M  V30 30 1 15 29
M  V30 31 1 16 30
M  V30 32 1 18 31
M  V30 END BOND
M  V30 END CTAB
M  END
>  <Dataset>  (793) 
ChEMBL_Kinases

>  <Ligand_Instance>  (793) 
nan

>  <PDB_ID>  (793) 
nan

>  <Standardized_SMILES>  (793) 
C/N=c1\scc(C)n1/N=C/c1ccc(O)cc1O

>  <Name>  (793) 
nan

>  <Pocket>  (793) 
nan

>  <ATP_Site>  (793) 
nan

>  <Peripheral>  (793) 
nan

>  <Num_H_Atoms_ProtBoundConf>  (793) 
nan

>  <Num_Resolved_Atoms>  (793) 
nan

>  <Num_Not_Resolved_Atoms>  (793) 
nan

$$$$
CHEMBL3195871
     RDKit          3D

  0  0  0  0  0  0  0  0  0  0999 V3000
M  V30 BEGIN CTAB
M  V30 COUNTS 30 31 0 0 0
M  V30 BEGIN ATOM
M  V30 1 C 0.147648 -0.798170 3.597950 0
M  V30 2 C 0.059091 -0.382059 2.192078 0
M  V30 3 N 1.133067 -0.564610 1.513510 0
M  V30 4 N 2.319498 -1.108998 2.011946 0
M  V30 5 C 2.607968 -1.861713 0.830136 0
M  V30 6 N 2.262279 -3.163903 0.690417 0
M  V30 7 C 2.525007 -3.869464 -0.438041 0
M  V30 8 C 3.165141 -3.259718 -1.491195 0
M  V30 9 Cl 3.501029 -4.186166 -2.941290 0
M  V30 10 C 3.559169 -1.941175 -1.453035 0
M  V30 11 C 3.253227 -1.279644 -0.254493 0
M  V30 12 Cl 3.736413 0.413256 -0.154317 0
M  V30 13 C -1.102197 0.208131 1.544792 0
M  V30 14 C -0.975389 0.559415 0.201538 0
M  V30 15 C -2.027438 1.124305 -0.498234 0
M  V30 16 C -3.220168 1.342807 0.148703 0
M  V30 17 C -4.279822 1.930391 -0.624683 0
M  V30 18 N -5.132905 2.419534 -1.260590 0
M  V30 19 C -3.346017 0.998178 1.469763 0
M  V30 20 C -2.304817 0.433417 2.182456 0
M  V30 21 H 1.083595 -0.370635 4.018284 0
M  V30 22 H -0.667343 -0.433947 4.230597 0
M  V30 23 H 0.286531 -1.902602 3.648885 0
M  V30 24 H 2.952429 -1.134005 2.837165 0
M  V30 25 H 2.203693 -4.900096 -0.441373 0
M  V30 26 H 4.066651 -1.417723 -2.254986 0
M  V30 27 H -0.028722 0.399050 -0.341825 0
M  V30 28 H -1.867219 1.374847 -1.537421 0
M  V30 29 H -4.315277 1.190701 1.938362 0
M  V30 30 H -2.392249 0.163454 3.217808 0
M  V30 END ATOM
M  V30 BEGIN BOND
M  V30 1 1 1 2
M  V30 2 2 2 3
M  V30 3 1 3 4
M  V30 4 1 4 5
M  V30 5 2 5 6
M  V30 6 1 6 7
M  V30 7 2 7 8
M  V30 8 1 8 9
M  V30 9 1 8 10
M  V30 10 2 10 11
M  V30 11 1 11 12
M  V30 12 1 2 13
M  V30 13 2 13 14
M  V30 14 1 14 15
M  V30 15 2 15 16
M  V30 16 1 16 17
M  V30 17 3 17 18
M  V30 18 1 16 19
M  V30 19 2 19 20
M  V30 20 1 11 5
M  V30 21 1 20 13
M  V30 22 1 1 21
M  V30 23 1 1 22
M  V30 24 1 1 23
M  V30 25 1 4 24
M  V30 26 1 7 25
M  V30 27 1 10 26
M  V30 28 1 14 27
M  V30 29 1 15 28
M  V30 30 1 19 29
M  V30 31 1 20 30
M  V30 END BOND
M  V30 END CTAB
M  END
>  <Dataset>  (794) 
ChEMBL_Kinases

>  <Ligand_Instance>  (794) 
nan

>  <PDB_ID>  (794) 
nan

>  <Standardized_SMILES>  (794) 
C/C(=N\Nc1ncc(Cl)cc1Cl)c1ccc(C#N)cc1

>  <Name>  (794) 
nan

>  <Pocket>  (794) 
nan

>  <ATP_Site>  (794) 
nan

>  <Peripheral>  (794) 
nan

>  <Num_H_Atoms_ProtBoundConf>  (794) 
nan

>  <Num_Resolved_Atoms>  (794) 
nan

>  <Num_Not_Resolved_Atoms>  (794) 
nan

$$$$
CHEMBL3195947
     RDKit          3D

  0  0  0  0  0  0  0  0  0  0999 V3000
M  V30 BEGIN CTAB
M  V30 COUNTS 42 45 0 0 0
M  V30 BEGIN ATOM
M  V30 1 O 1.053460 -2.357488 2.920233 0
M  V30 2 C 1.693500 -1.377732 2.498326 0
M  V30 3 C 2.943959 -1.154623 3.034368 0
M  V30 4 C 3.535030 -1.925430 3.992646 0
M  V30 5 C 4.798080 -1.622722 4.471867 0
M  V30 6 C 5.484719 -0.524471 3.981300 0
M  V30 7 C 4.882175 0.256620 3.008184 0
M  V30 8 C 3.624202 -0.062207 2.544834 0
M  V30 9 N 3.086078 0.717932 1.609351 0
M  V30 10 C 1.869053 0.520889 1.071470 0
M  V30 11 C 1.420292 1.454905 0.063307 0
M  V30 12 C 0.238756 1.473716 -0.627850 0
M  V30 13 C -0.115318 2.401395 -1.576750 0
M  V30 14 C 0.761510 3.411029 -1.887312 0
M  V30 15 C 1.966973 3.443502 -1.223722 0
M  V30 16 C 2.269273 2.485553 -0.280094 0
M  V30 17 N 1.229231 -0.545865 1.563491 0
M  V30 18 N -0.021275 -0.847806 1.090830 0
M  V30 19 C -0.381086 -1.989900 0.617763 0
M  V30 20 C -1.729931 -2.243781 0.130867 0
M  V30 21 C -2.673428 -1.238674 0.168068 0
M  V30 22 C -3.954804 -1.531082 -0.310838 0
M  V30 23 C -4.267869 -2.783413 -0.805045 0
M  V30 24 N -5.565754 -3.074459 -1.288485 0 CHG=1 VAL=4
M  V30 25 O -5.815685 -4.209814 -1.726348 0
M  V30 26 O -6.635856 -2.238337 -1.343344 0 CHG=-1 VAL=1
M  V30 27 C -3.275511 -3.740779 -0.812296 0
M  V30 28 C -2.016764 -3.503184 -0.357708 0
M  V30 29 H 3.007523 -2.766656 4.367507 0
M  V30 30 H 5.206215 -2.284756 5.237964 0
M  V30 31 H 6.479044 -0.313404 4.380474 0
M  V30 32 H 5.483506 1.085598 2.685420 0
M  V30 33 H -0.482211 0.719662 -0.433715 0
M  V30 34 H -1.069086 2.352195 -2.082878 0
M  V30 35 H 0.485984 4.141963 -2.632985 0
M  V30 36 H 2.646138 4.240110 -1.475999 0
M  V30 37 H 3.250595 2.618618 0.174334 0
M  V30 38 H 0.383443 -2.731216 0.610976 0
M  V30 39 H -2.472070 -0.240371 0.547526 0
M  V30 40 H -4.758658 -0.808443 -0.321850 0
M  V30 41 H -3.468782 -4.744341 -1.190998 0
M  V30 42 H -1.229758 -4.255281 -0.361175 0
M  V30 END ATOM
M  V30 BEGIN BOND
M  V30 1 2 1 2
M  V30 2 1 2 3
M  V30 3 2 3 4
M  V30 4 1 4 5
M  V30 5 2 5 6
M  V30 6 1 6 7
M  V30 7 2 7 8
M  V30 8 1 8 9
M  V30 9 2 9 10
M  V30 10 1 10 11
M  V30 11 2 11 12
M  V30 12 1 12 13
M  V30 13 2 13 14
M  V30 14 1 14 15
M  V30 15 2 15 16
M  V30 16 1 10 17
M  V30 17 1 17 18
M  V30 18 2 18 19
M  V30 19 1 19 20
M  V30 20 2 20 21
M  V30 21 1 21 22
M  V30 22 2 22 23
M  V30 23 1 23 24
M  V30 24 2 24 25
M  V30 25 1 24 26
M  V30 26 1 23 27
M  V30 27 2 27 28
M  V30 28 1 17 2
M  V30 29 1 28 20
M  V30 30 1 8 3
M  V30 31 1 16 11
M  V30 32 1 4 29
M  V30 33 1 5 30
M  V30 34 1 6 31
M  V30 35 1 7 32
M  V30 36 1 12 33
M  V30 37 1 13 34
M  V30 38 1 14 35
M  V30 39 1 15 36
M  V30 40 1 16 37
M  V30 41 1 19 38
M  V30 42 1 21 39
M  V30 43 1 22 40
M  V30 44 1 27 41
M  V30 45 1 28 42
M  V30 END BOND
M  V30 END CTAB
M  END
>  <Dataset>  (795) 
ChEMBL_Kinases

>  <Ligand_Instance>  (795) 
nan

>  <PDB_ID>  (795) 
nan

>  <Standardized_SMILES>  (795) 
O=c1c2ccccc2nc(-c2ccccc2)n1/N=C/c1ccc([N+](=O)[O-])cc1

>  <Name>  (795) 
nan

>  <Pocket>  (795) 
nan

>  <ATP_Site>  (795) 
nan

>  <Peripheral>  (795) 
nan

>  <Num_H_Atoms_ProtBoundConf>  (795) 
nan

>  <Num_Resolved_Atoms>  (795) 
nan

>  <Num_Not_Resolved_Atoms>  (795) 
nan

$$$$
CHEMBL3195980
     RDKit          3D

  0  0  0  0  0  0  0  0  0  0999 V3000
M  V30 BEGIN CTAB
M  V30 COUNTS 51 53 0 0 0
M  V30 BEGIN ATOM
M  V30 1 C 1.311869 -3.327071 4.605079 0
M  V30 2 C 2.664906 -3.362324 3.932975 0
M  V30 3 O 2.900501 -2.177290 3.190349 0
M  V30 4 C 4.093423 -2.016692 2.490970 0
M  V30 5 O 4.702228 -3.089495 2.736135 0
M  V30 6 C 4.117517 -0.698835 1.791732 0
M  V30 7 C 3.993595 0.419786 2.788057 0
M  V30 8 C 4.198799 1.725593 2.107896 0
M  V30 9 C 3.707231 1.652438 0.692083 0
M  V30 10 N 2.541895 0.721471 0.572365 0
M  V30 11 C 2.155406 0.876811 -0.824853 0
M  V30 12 C 0.802582 0.378533 -1.058835 0
M  V30 13 O 0.613506 0.490528 -2.442489 0
M  V30 14 C -0.225622 -0.108536 -0.424777 0
M  V30 15 C -0.050417 -0.222263 0.987859 0
M  V30 16 N 0.108847 -0.305598 2.120777 0
M  V30 17 C -1.481890 -0.512407 -1.118591 0
M  V30 18 N -2.616337 -0.460509 -0.883164 0
M  V30 19 C -3.595081 -0.891288 -1.661945 0
M  V30 20 C -5.015314 -0.784972 -1.279167 0
M  V30 21 C -5.428298 -0.232278 -0.086013 0
M  V30 22 C -6.741917 -0.112346 0.315703 0
M  V30 23 C -7.731251 -0.571101 -0.519767 0
M  V30 24 C -7.357923 -1.130224 -1.722029 0
M  V30 25 C -6.035107 -1.235354 -2.094086 0
M  V30 26 C -3.240887 -1.474493 -2.905557 0
M  V30 27 S -1.357551 -1.327411 -2.813846 0
M  V30 28 C 3.146138 -0.628704 0.655311 0
M  V30 29 H 1.415851 -3.191275 5.693782 0
M  V30 30 H 0.812201 -4.296235 4.379979 0
M  V30 31 H 0.751342 -2.472532 4.157077 0
M  V30 32 H 2.781093 -4.243676 3.295679 0
M  V30 33 H 3.438981 -3.430032 4.731251 0
M  V30 34 H 5.149329 -0.608889 1.344115 0
M  V30 35 H 4.843369 0.244014 3.520360 0
M  V30 36 H 3.021192 0.301370 3.313734 0
M  V30 37 H 5.266671 2.028966 2.091553 0
M  V30 38 H 3.606152 2.490494 2.683516 0
M  V30 39 H 3.305504 2.639118 0.424166 0
M  V30 40 H 4.511781 1.368738 0.008814 0
M  V30 41 H 2.899112 0.278309 -1.429420 0
M  V30 42 H 2.268802 1.952292 -1.118938 0
M  V30 43 H 0.125473 1.362330 -2.704972 0
M  V30 44 H -4.635699 0.128691 0.569743 0
M  V30 45 H -6.910170 0.349703 1.292382 0
M  V30 46 H -8.721229 -0.431114 -0.111466 0
M  V30 47 H -8.172145 -1.474472 -2.339814 0
M  V30 48 H -5.821510 -1.682861 -3.046207 0
M  V30 49 H -3.882853 -1.860206 -3.631313 0
M  V30 50 H 2.367739 -1.361983 0.766892 0
M  V30 51 H 3.645870 -0.813426 -0.318423 0
M  V30 END ATOM
M  V30 BEGIN BOND
M  V30 1 1 1 2
M  V30 2 1 2 3
M  V30 3 1 3 4
M  V30 4 2 4 5
M  V30 5 1 4 6
M  V30 6 1 6 7
M  V30 7 1 7 8
M  V30 8 1 8 9
M  V30 9 1 9 10
M  V30 10 1 10 11
M  V30 11 1 11 12
M  V30 12 1 12 13
M  V30 13 2 12 14
M  V30 14 1 14 15
M  V30 15 3 15 16
M  V30 16 1 14 17
M  V30 17 2 17 18
M  V30 18 1 18 19
M  V30 19 1 19 20
M  V30 20 2 20 21
M  V30 21 1 21 22
M  V30 22 2 22 23
M  V30 23 1 23 24
M  V30 24 2 24 25
M  V30 25 2 19 26
M  V30 26 1 26 27
M  V30 27 1 10 28
M  V30 28 1 28 6
M  V30 29 1 27 17
M  V30 30 1 25 20
M  V30 31 1 1 29
M  V30 32 1 1 30
M  V30 33 1 1 31
M  V30 34 1 2 32
M  V30 35 1 2 33
M  V30 36 1 6 34
M  V30 37 1 7 35
M  V30 38 1 7 36
M  V30 39 1 8 37
M  V30 40 1 8 38
M  V30 41 1 9 39
M  V30 42 1 9 40
M  V30 43 1 11 41
M  V30 44 1 11 42
M  V30 45 1 13 43
M  V30 46 1 21 44
M  V30 47 1 22 45
M  V30 48 1 23 46
M  V30 49 1 24 47
M  V30 50 1 25 48
M  V30 51 1 26 49
M  V30 52 1 28 50
M  V30 53 1 28 51
M  V30 END BOND
M  V30 END CTAB
M  END
>  <Dataset>  (796) 
ChEMBL_Kinases

>  <Ligand_Instance>  (796) 
nan

>  <PDB_ID>  (796) 
nan

>  <Standardized_SMILES>  (796) 
CCOC(=O)C1CCCN(C/C(O)=C(\C#N)c2nc(-c3ccccc3)cs2)C1

>  <Name>  (796) 
nan

>  <Pocket>  (796) 
nan

>  <ATP_Site>  (796) 
nan

>  <Peripheral>  (796) 
nan

>  <Num_H_Atoms_ProtBoundConf>  (796) 
nan

>  <Num_Resolved_Atoms>  (796) 
nan

>  <Num_Not_Resolved_Atoms>  (796) 
nan

$$$$
CHEMBL3197042
     RDKit          3D

  0  0  0  0  0  0  0  0  0  0999 V3000
M  V30 BEGIN CTAB
M  V30 COUNTS 35 38 0 0 0
M  V30 BEGIN ATOM
M  V30 1 O 2.006070 0.541124 3.555988 0
M  V30 2 C 1.886357 -0.221996 2.569958 0
M  V30 3 N 2.587686 -1.440045 2.316398 0
M  V30 4 N 2.153397 -1.976506 1.105219 0
M  V30 5 C 1.214479 -1.174555 0.566207 0
M  V30 6 N 0.590800 -1.419743 -0.616403 0
M  V30 7 C 0.904757 -2.535522 -1.334659 0
M  V30 8 C 1.874024 -3.407395 -0.824868 0
M  V30 9 C 2.450374 -3.071791 0.383565 0
M  V30 10 O 3.321200 -3.889327 0.805315 0
M  V30 11 C 2.044596 -4.535622 -1.768452 0
M  V30 12 C 0.773086 -4.513720 -2.565307 0
M  V30 13 C 0.416127 -3.063870 -2.617646 0
M  V30 14 C 0.982189 -0.029357 1.436476 0
M  V30 15 N 0.180286 0.948033 1.286164 0
M  V30 16 N 0.041305 2.000459 2.196165 0
M  V30 17 C -1.229195 2.672619 2.167132 0
M  V30 18 C -2.217565 2.277463 1.288109 0
M  V30 19 C -3.465117 2.843065 1.171513 0
M  V30 20 C -3.741316 3.901417 2.016197 0
M  V30 21 C -2.790716 4.348105 2.923790 0
M  V30 22 Cl -3.154266 5.693592 3.991199 0
M  V30 23 C -1.559127 3.729412 2.982615 0
M  V30 24 H 3.313565 -1.883303 2.920465 0
M  V30 25 H 2.945787 -4.290512 -2.390779 0
M  V30 26 H 2.212198 -5.517802 -1.259819 0
M  V30 27 H 0.020545 -5.110832 -2.026756 0
M  V30 28 H 0.912261 -4.928274 -3.602975 0
M  V30 29 H -0.681355 -2.951607 -2.741430 0
M  V30 30 H 0.967208 -2.610197 -3.488640 0
M  V30 31 H 0.715316 2.373427 2.892135 0
M  V30 32 H -2.036072 1.440504 0.601035 0
M  V30 33 H -4.195506 2.483227 0.458654 0
M  V30 34 H -4.722592 4.366992 1.943785 0
M  V30 35 H -0.826622 4.081085 3.688943 0
M  V30 END ATOM
M  V30 BEGIN BOND
M  V30 1 2 1 2
M  V30 2 1 2 3
M  V30 3 1 3 4
M  V30 4 1 4 5
M  V30 5 2 5 6
M  V30 6 1 6 7
M  V30 7 2 7 8
M  V30 8 1 8 9
M  V30 9 2 9 10
M  V30 10 1 8 11
M  V30 11 1 11 12
M  V30 12 1 12 13
M  V30 13 1 5 14
M  V30 14 2 14 15
M  V30 15 1 15 16
M  V30 16 1 16 17
M  V30 17 2 17 18
M  V30 18 1 18 19
M  V30 19 2 19 20
M  V30 20 1 20 21
M  V30 21 1 21 22
M  V30 22 2 21 23
M  V30 23 1 14 2
M  V30 24 1 23 17
M  V30 25 1 9 4
M  V30 26 1 13 7
M  V30 27 1 3 24
M  V30 28 1 11 25
M  V30 29 1 11 26
M  V30 30 1 12 27
M  V30 31 1 12 28
M  V30 32 1 13 29
M  V30 33 1 13 30
M  V30 34 1 16 31
M  V30 35 1 18 32
M  V30 36 1 19 33
M  V30 37 1 20 34
M  V30 38 1 23 35
M  V30 END BOND
M  V30 END CTAB
M  END
>  <Dataset>  (797) 
ChEMBL_Kinases

>  <Ligand_Instance>  (797) 
nan

>  <PDB_ID>  (797) 
nan

>  <Standardized_SMILES>  (797) 
O=C1Nn2c(nc3c(c2=O)CCC3)/C1=N/Nc1cccc(Cl)c1

>  <Name>  (797) 
nan

>  <Pocket>  (797) 
nan

>  <ATP_Site>  (797) 
nan

>  <Peripheral>  (797) 
nan

>  <Num_H_Atoms_ProtBoundConf>  (797) 
nan

>  <Num_Resolved_Atoms>  (797) 
nan

>  <Num_Not_Resolved_Atoms>  (797) 
nan

$$$$
CHEMBL3196265
     RDKit          3D

  0  0  0  0  0  0  0  0  0  0999 V3000
M  V30 BEGIN CTAB
M  V30 COUNTS 50 55 0 0 0
M  V30 BEGIN ATOM
M  V30 1 O -1.783158 -1.621586 3.010883 0
M  V30 2 C -1.330401 -2.453872 2.184618 0
M  V30 3 C -1.519042 -3.905358 2.061560 0
M  V30 4 C -0.962630 -4.221912 0.667998 0
M  V30 5 C -0.101503 -3.068937 0.319975 0
M  V30 6 O 0.768137 -3.234663 -0.603127 0
M  V30 7 N -0.475053 -1.968519 1.159361 0
M  V30 8 N 0.079104 -0.729516 0.771026 0
M  V30 9 C -0.466335 -0.002946 -0.159759 0
M  V30 10 C 0.135846 1.271908 -0.534617 0
M  V30 11 C -0.374813 2.156897 -1.458129 0
M  V30 12 C 0.513508 3.214892 -1.494340 0
M  V30 13 C 1.514999 2.919877 -0.594591 0
M  V30 14 N 2.694904 3.595165 -0.182162 0
M  V30 15 C 2.945205 4.865206 0.460463 0
M  V30 16 C 3.746866 4.627237 1.723436 0
M  V30 17 C 3.813356 3.153725 2.064853 0
M  V30 18 C 4.373124 2.339714 0.917920 0
M  V30 19 C 3.948166 2.870484 -0.438318 0
M  V30 20 O 1.250577 1.764581 -0.052149 0
M  V30 21 C -2.244675 -4.286127 -0.116886 0
M  V30 22 C -2.983006 -2.996328 0.123291 0
M  V30 23 C -3.613390 -3.029724 1.312461 0
M  V30 24 C -2.998963 -4.228032 1.982836 0
M  V30 25 C -3.030696 -5.183462 0.839092 0
M  V30 26 C -4.151710 -5.989133 0.400798 0
M  V30 27 C -2.824760 -6.615114 0.905570 0
M  V30 28 H -1.007567 -4.492503 2.837607 0
M  V30 29 H -0.462303 -5.187799 0.633439 0
M  V30 30 H -1.366920 -0.349914 -0.651313 0
M  V30 31 H -1.272078 2.102115 -2.060967 0
M  V30 32 H 0.524100 4.133135 -2.068042 0
M  V30 33 H 2.044930 5.467841 0.640784 0
M  V30 34 H 3.585448 5.456142 -0.258477 0
M  V30 35 H 4.780210 5.004225 1.593665 0
M  V30 36 H 3.233389 5.140917 2.544782 0
M  V30 37 H 2.829585 2.773287 2.384162 0
M  V30 38 H 4.516838 3.045446 2.916223 0
M  V30 39 H 4.030309 1.280325 1.049227 0
M  V30 40 H 5.480506 2.287431 0.916499 0
M  V30 41 H 4.734839 3.559971 -0.784274 0
M  V30 42 H 3.817607 2.019510 -1.123856 0
M  V30 43 H -2.197531 -4.615226 -1.126439 0
M  V30 44 H -3.048908 -2.113050 -0.518727 0
M  V30 45 H -4.372165 -2.403809 1.752859 0
M  V30 46 H -3.455614 -4.536921 2.901655 0
M  V30 47 H -4.290162 -6.073645 -0.716656 0
M  V30 48 H -5.059204 -6.149049 0.977505 0
M  V30 49 H -2.871768 -7.107871 1.907309 0
M  V30 50 H -2.195674 -7.126453 0.150237 0
M  V30 END ATOM
M  V30 BEGIN BOND
M  V30 1 2 1 2
M  V30 2 1 2 3
M  V30 3 1 3 4
M  V30 4 1 4 5
M  V30 5 2 5 6
M  V30 6 1 5 7
M  V30 7 1 7 8
M  V30 8 2 8 9
M  V30 9 1 9 10
M  V30 10 2 10 11
M  V30 11 1 11 12
M  V30 12 2 12 13
M  V30 13 1 13 14
M  V30 14 1 14 15
M  V30 15 1 15 16
M  V30 16 1 16 17
M  V30 17 1 17 18
M  V30 18 1 18 19
M  V30 19 1 13 20
M  V30 20 1 4 21
M  V30 21 1 21 22
M  V30 22 2 22 23
M  V30 23 1 23 24
M  V30 24 1 24 25
M  V30 25 1 25 26
M  V30 26 1 26 27
M  V30 27 1 7 2
M  V30 28 1 20 10
M  V30 29 1 25 21
M  V30 30 1 24 3
M  V30 31 1 27 25
M  V30 32 1 19 14
M  V30 33 1 3 28
M  V30 34 1 4 29
M  V30 35 1 9 30
M  V30 36 1 11 31
M  V30 37 1 12 32
M  V30 38 1 15 33
M  V30 39 1 15 34
M  V30 40 1 16 35
M  V30 41 1 16 36
M  V30 42 1 17 37
M  V30 43 1 17 38
M  V30 44 1 18 39
M  V30 45 1 18 40
M  V30 46 1 19 41
M  V30 47 1 19 42
M  V30 48 1 21 43
M  V30 49 1 22 44
M  V30 50 1 23 45
M  V30 51 1 24 46
M  V30 52 1 26 47
M  V30 53 1 26 48
M  V30 54 1 27 49
M  V30 55 1 27 50
M  V30 END BOND
M  V30 END CTAB
M  END
>  <Dataset>  (798) 
ChEMBL_Kinases

>  <Ligand_Instance>  (798) 
nan

>  <PDB_ID>  (798) 
nan

>  <Standardized_SMILES>  (798) 
O=C1C2C(C(=O)N1/N=C/c1ccc(N3CCCCC3)o1)C1C=CC2C12CC2

>  <Name>  (798) 
nan

>  <Pocket>  (798) 
nan

>  <ATP_Site>  (798) 
nan

>  <Peripheral>  (798) 
nan

>  <Num_H_Atoms_ProtBoundConf>  (798) 
nan

>  <Num_Resolved_Atoms>  (798) 
nan

>  <Num_Not_Resolved_Atoms>  (798) 
nan

$$$$
CHEMBL3196351
     RDKit          3D

  0  0  0  0  0  0  0  0  0  0999 V3000
M  V30 BEGIN CTAB
M  V30 COUNTS 36 37 0 0 0
M  V30 BEGIN ATOM
M  V30 1 C 2.495810 -6.893762 0.415687 0
M  V30 2 O 3.312907 -5.858015 0.904944 0
M  V30 3 C 2.972804 -4.533882 0.740659 0
M  V30 4 C 1.827626 -4.133258 0.096526 0
M  V30 5 C 1.590425 -2.780495 -0.008436 0
M  V30 6 C 2.389492 -1.766769 0.470000 0
M  V30 7 C 2.141558 -0.346222 0.360495 0
M  V30 8 O 3.019714 0.408820 0.878070 0
M  V30 9 C 1.025627 0.336423 -0.260409 0
M  V30 10 C -0.120746 -0.201969 -0.925950 0
M  V30 11 N -1.052238 -0.617236 -1.461463 0
M  V30 12 N 1.066164 1.642089 -0.208062 0
M  V30 13 N 0.052309 2.448911 -0.767995 0
M  V30 14 C -1.116013 2.728421 -0.014195 0
M  V30 15 C -1.264313 2.221380 1.248455 0
M  V30 16 C -2.423932 2.530570 1.928365 0
M  V30 17 C -3.426502 3.324499 1.383443 0
M  V30 18 N -4.610568 3.622233 2.116359 0 CHG=1 VAL=4
M  V30 19 O -4.735636 3.154882 3.266646 0
M  V30 20 O -5.541400 4.423376 1.472779 0 CHG=-1 VAL=1
M  V30 21 C -3.282359 3.841529 0.104127 0
M  V30 22 C -2.101074 3.513306 -0.559970 0
M  V30 23 C 3.517424 -2.236174 1.102754 0
M  V30 24 C 3.816645 -3.569882 1.243515 0
M  V30 25 H 3.015840 -7.856010 0.332691 0
M  V30 26 H 1.631509 -7.041195 1.123923 0
M  V30 27 H 2.111256 -6.645678 -0.587797 0
M  V30 28 H 1.141660 -4.863176 -0.311045 0
M  V30 29 H 0.679118 -2.518822 -0.522329 0
M  V30 30 H 0.174623 2.831917 -1.733918 0
M  V30 31 H -0.498719 1.609039 1.677621 0
M  V30 32 H -2.545929 2.135286 2.920108 0
M  V30 33 H -4.026269 4.461629 -0.366888 0
M  V30 34 H -1.987762 3.911912 -1.548770 0
M  V30 35 H 4.242832 -1.533379 1.532194 0
M  V30 36 H 4.721785 -3.877170 1.752851 0
M  V30 END ATOM
M  V30 BEGIN BOND
M  V30 1 1 1 2
M  V30 2 1 2 3
M  V30 3 2 3 4
M  V30 4 1 4 5
M  V30 5 2 5 6
M  V30 6 1 6 7
M  V30 7 2 7 8
M  V30 8 1 7 9
M  V30 9 1 9 10
M  V30 10 3 10 11
M  V30 11 2 9 12
M  V30 12 1 12 13
M  V30 13 1 13 14
M  V30 14 2 14 15
M  V30 15 1 15 16
M  V30 16 2 16 17
M  V30 17 1 17 18
M  V30 18 2 18 19
M  V30 19 1 18 20
M  V30 20 1 17 21
M  V30 21 2 21 22
M  V30 22 1 6 23
M  V30 23 2 23 24
M  V30 24 1 24 3
M  V30 25 1 22 14
M  V30 26 1 1 25
M  V30 27 1 1 26
M  V30 28 1 1 27
M  V30 29 1 4 28
M  V30 30 1 5 29
M  V30 31 1 13 30
M  V30 32 1 15 31
M  V30 33 1 16 32
M  V30 34 1 21 33
M  V30 35 1 22 34
M  V30 36 1 23 35
M  V30 37 1 24 36
M  V30 END BOND
M  V30 END CTAB
M  END
>  <Dataset>  (799) 
ChEMBL_Kinases

>  <Ligand_Instance>  (799) 
nan

>  <PDB_ID>  (799) 
nan

>  <Standardized_SMILES>  (799) 
COc1ccc(C(=O)/C(C#N)=N/Nc2ccc([N+](=O)[O-])cc2)cc1

>  <Name>  (799) 
nan

>  <Pocket>  (799) 
nan

>  <ATP_Site>  (799) 
nan

>  <Peripheral>  (799) 
nan

>  <Num_H_Atoms_ProtBoundConf>  (799) 
nan

>  <Num_Resolved_Atoms>  (799) 
nan

>  <Num_Not_Resolved_Atoms>  (799) 
nan

$$$$
CHEMBL3196400
     RDKit          3D

  0  0  0  0  0  0  0  0  0  0999 V3000
M  V30 BEGIN CTAB
M  V30 COUNTS 38 40 0 0 0
M  V30 BEGIN ATOM
M  V30 1 C -0.852452 -6.482005 2.674334 0
M  V30 2 O -0.997899 -5.105948 2.859133 0
M  V30 3 C -0.449107 -4.141570 2.029498 0
M  V30 4 C 0.315328 -4.346889 0.907217 0
M  V30 5 C 0.814230 -3.318008 0.149722 0
M  V30 6 C 0.564595 -2.004958 0.489371 0
M  V30 7 C 1.073342 -0.871092 -0.284902 0
M  V30 8 N 0.827001 0.342408 0.051947 0
M  V30 9 N 1.266539 1.465314 -0.620081 0
M  V30 10 C 2.299502 1.683494 -1.458909 0
M  V30 11 N 3.215498 0.658881 -1.830100 0
M  V30 12 N 2.305704 2.967851 -1.856456 0
M  V30 13 C 1.271558 3.584800 -1.272227 0
M  V30 14 C 0.863001 4.907711 -1.371560 0
M  V30 15 C -0.255842 5.270658 -0.646319 0
M  V30 16 C -0.950077 4.381997 0.144443 0
M  V30 17 C -0.515965 3.071268 0.220950 0
M  V30 18 C 0.604062 2.653135 -0.488293 0
M  V30 19 C -0.200709 -1.767360 1.612237 0
M  V30 20 C -0.693454 -2.815789 2.361083 0
M  V30 21 O -1.457509 -2.511306 3.480680 0
M  V30 22 C -1.715268 -1.181136 3.831967 0
M  V30 23 H 0.000251 -6.866482 3.267914 0
M  V30 24 H -1.788073 -7.006567 2.984246 0
M  V30 25 H -0.699353 -6.714812 1.613053 0
M  V30 26 H 0.505829 -5.381143 0.648734 0
M  V30 27 H 1.410926 -3.524422 -0.725286 0
M  V30 28 H 1.674601 -1.047790 -1.167214 0
M  V30 29 H 2.934436 0.270515 -2.777933 0
M  V30 30 H 4.067061 0.201606 -1.426936 0
M  V30 31 H 1.339634 5.659657 -1.957853 0
M  V30 32 H -0.656050 6.269846 -0.652863 0
M  V30 33 H -1.836827 4.648780 0.725628 0
M  V30 34 H -1.050403 2.364263 0.836695 0
M  V30 35 H -0.402458 -0.751198 1.887698 0
M  V30 36 H -2.466105 -1.131335 4.646237 0
M  V30 37 H -0.772231 -0.686107 4.194685 0
M  V30 38 H -2.118597 -0.567401 3.001640 0
M  V30 END ATOM
M  V30 BEGIN BOND
M  V30 1 1 1 2
M  V30 2 1 2 3
M  V30 3 2 3 4
M  V30 4 1 4 5
M  V30 5 2 5 6
M  V30 6 1 6 7
M  V30 7 2 7 8
M  V30 8 1 8 9
M  V30 9 1 9 10
M  V30 10 1 10 11
M  V30 11 2 10 12
M  V30 12 1 12 13
M  V30 13 2 13 14
M  V30 14 1 14 15
M  V30 15 2 15 16
M  V30 16 1 16 17
M  V30 17 2 17 18
M  V30 18 1 6 19
M  V30 19 2 19 20
M  V30 20 1 20 21
M  V30 21 1 21 22
M  V30 22 1 20 3
M  V30 23 1 18 9
M  V30 24 1 18 13
M  V30 25 1 1 23
M  V30 26 1 1 24
M  V30 27 1 1 25
M  V30 28 1 4 26
M  V30 29 1 5 27
M  V30 30 1 7 28
M  V30 31 1 11 29
M  V30 32 1 11 30
M  V30 33 1 14 31
M  V30 34 1 15 32
M  V30 35 1 16 33
M  V30 36 1 17 34
M  V30 37 1 19 35
M  V30 38 1 22 36
M  V30 39 1 22 37
M  V30 40 1 22 38
M  V30 END BOND
M  V30 END CTAB
M  END
>  <Dataset>  (800) 
ChEMBL_Kinases

>  <Ligand_Instance>  (800) 
nan

>  <PDB_ID>  (800) 
nan

>  <Standardized_SMILES>  (800) 
COc1ccc(/C=N/n2c(N)nc3ccccc32)cc1OC

>  <Name>  (800) 
nan

>  <Pocket>  (800) 
nan

>  <ATP_Site>  (800) 
nan

>  <Peripheral>  (800) 
nan

>  <Num_H_Atoms_ProtBoundConf>  (800) 
nan

>  <Num_Resolved_Atoms>  (800) 
nan

>  <Num_Not_Resolved_Atoms>  (800) 
nan

$$$$
CHEMBL3196451
     RDKit          3D

  0  0  0  0  0  0  0  0  0  0999 V3000
M  V30 BEGIN CTAB
M  V30 COUNTS 44 47 0 0 0
M  V30 BEGIN ATOM
M  V30 1 C 0.040668 -4.324733 4.920114 0
M  V30 2 C 0.539266 -4.077998 3.522512 0
M  V30 3 C -0.168154 -4.623772 2.472420 0
M  V30 4 C 0.316504 -4.377865 1.183121 0
M  V30 5 C 1.445997 -3.629725 0.926487 0
M  V30 6 N 1.883420 -3.408104 -0.430369 0
M  V30 7 C 1.275766 -2.148922 -0.715628 0
M  V30 8 C 1.902708 -0.982763 -0.469680 0
M  V30 9 C 1.368899 0.343824 -0.724551 0
M  V30 10 N 2.071221 1.304040 -0.464415 0
M  V30 11 S 1.820262 2.939340 -0.616393 0
M  V30 12 O 3.284995 3.378703 -0.222866 0
M  V30 13 O 1.862892 3.616505 -1.944590 0
M  V30 14 C 0.985047 3.793645 0.633019 0
M  V30 15 C 0.487690 3.198730 1.808730 0
M  V30 16 C -0.135231 4.072028 2.643032 0
M  V30 17 C -0.281840 5.430507 2.385320 0
M  V30 18 S 0.585622 5.510016 0.712696 0
M  V30 19 C 0.060906 0.437678 -1.285529 0
M  V30 20 C -0.373541 1.697849 -1.483121 0
M  V30 21 C -1.645059 1.921599 -2.021397 0
M  V30 22 C -2.357266 0.746295 -2.307273 0
M  V30 23 C -1.902300 -0.538188 -2.099006 0
M  V30 24 C -0.640588 -0.679481 -1.565173 0
M  V30 25 C -0.055484 -1.985479 -1.289730 0
M  V30 26 O -0.736799 -3.005804 -1.563736 0
M  V30 27 C 2.106322 -3.113247 2.024214 0
M  V30 28 C 1.660796 -3.333071 3.304569 0
M  V30 29 H 0.747928 -4.961506 5.482119 0
M  V30 30 H -0.054339 -3.340766 5.417645 0
M  V30 31 H -0.940469 -4.810155 4.910810 0
M  V30 32 H -1.066100 -5.221137 2.639228 0
M  V30 33 H -0.277779 -4.833882 0.407280 0
M  V30 34 H 2.474323 -3.999761 -1.029322 0
M  V30 35 H 2.888039 -1.117105 -0.045093 0
M  V30 36 H 0.591977 2.149342 2.025889 0
M  V30 37 H -0.576854 3.787304 3.591583 0
M  V30 38 H -0.693144 6.235453 2.847633 0
M  V30 39 H -0.158800 2.701588 -1.391874 0
M  V30 40 H -2.295756 2.757393 -2.305965 0
M  V30 41 H -3.361227 0.716059 -2.732551 0
M  V30 42 H -2.450738 -1.441963 -2.318878 0
M  V30 43 H 2.983659 -2.529473 1.886421 0
M  V30 44 H 2.184446 -2.923818 4.159886 0
M  V30 END ATOM
M  V30 BEGIN BOND
M  V30 1 1 1 2
M  V30 2 2 2 3
M  V30 3 1 3 4
M  V30 4 2 4 5
M  V30 5 1 5 6
M  V30 6 1 6 7
M  V30 7 2 7 8
M  V30 8 1 8 9
M  V30 9 2 9 10
M  V30 10 1 10 11
M  V30 11 2 11 12
M  V30 12 2 11 13
M  V30 13 1 11 14
M  V30 14 2 14 15
M  V30 15 1 15 16
M  V30 16 2 16 17
M  V30 17 1 17 18
M  V30 18 1 9 19
M  V30 19 2 19 20
M  V30 20 1 20 21
M  V30 21 2 21 22
M  V30 22 1 22 23
M  V30 23 2 23 24
M  V30 24 1 24 25
M  V30 25 2 25 26
M  V30 26 1 5 27
M  V30 27 2 27 28
M  V30 28 1 28 2
M  V30 29 1 25 7
M  V30 30 1 18 14
M  V30 31 1 24 19
M  V30 32 1 1 29
M  V30 33 1 1 30
M  V30 34 1 1 31
M  V30 35 1 3 32
M  V30 36 1 4 33
M  V30 37 1 6 34
M  V30 38 1 8 35
M  V30 39 1 15 36
M  V30 40 1 16 37
M  V30 41 1 17 38
M  V30 42 1 20 39
M  V30 43 1 21 40
M  V30 44 1 22 41
M  V30 45 1 23 42
M  V30 46 1 27 43
M  V30 47 1 28 44
M  V30 END BOND
M  V30 END CTAB
M  END
>  <Dataset>  (801) 
ChEMBL_Kinases

>  <Ligand_Instance>  (801) 
nan

>  <PDB_ID>  (801) 
nan

>  <Standardized_SMILES>  (801) 
Cc1ccc(NC2=C/C(=N/S(=O)(=O)c3cccs3)c3ccccc3C2=O)cc1

>  <Name>  (801) 
nan

>  <Pocket>  (801) 
nan

>  <ATP_Site>  (801) 
nan

>  <Peripheral>  (801) 
nan

>  <Num_H_Atoms_ProtBoundConf>  (801) 
nan

>  <Num_Resolved_Atoms>  (801) 
nan

>  <Num_Not_Resolved_Atoms>  (801) 
nan

$$$$
CHEMBL3196827
     RDKit          3D

  0  0  0  0  0  0  0  0  0  0999 V3000
M  V30 BEGIN CTAB
M  V30 COUNTS 34 36 0 0 0
M  V30 BEGIN ATOM
M  V30 1 C -1.720117 -5.003628 4.102378 0
M  V30 2 O -2.318533 -4.583075 2.918115 0
M  V30 3 C -1.660936 -3.872824 1.933195 0
M  V30 4 C -0.349856 -3.490955 1.977823 0
M  V30 5 C 0.302684 -2.766563 0.972347 0
M  V30 6 C -0.519885 -2.459255 -0.110740 0
M  V30 7 C 0.186321 -1.663390 -1.141535 0
M  V30 8 N 1.420282 -1.329221 -1.005298 0
M  V30 9 N 2.134390 -0.573425 -1.938300 0
M  V30 10 C 1.984894 0.776203 -1.312751 0
M  V30 11 N 1.379151 1.704504 -1.596873 0
M  V30 12 C 1.284013 2.857010 -0.978671 0
M  V30 13 C 0.566209 3.989200 -1.294060 0
M  V30 14 C 0.584600 5.121841 -0.517665 0
M  V30 15 C 1.324100 5.207734 0.637557 0
M  V30 16 C 2.077986 4.130978 1.043072 0
M  V30 17 C 2.004555 3.008189 0.189642 0
M  V30 18 S 2.822766 1.337300 0.296436 0
M  V30 19 C -1.829011 -2.818208 -0.201620 0
M  V30 20 C -2.451984 -3.545906 0.828938 0
M  V30 21 O -3.787303 -3.895161 0.706307 0
M  V30 22 H -1.475791 -6.092128 4.020592 0
M  V30 23 H -0.795959 -4.474977 4.281878 0
M  V30 24 H -2.365205 -4.828724 5.008656 0
M  V30 25 H 0.284652 -3.738925 2.823957 0
M  V30 26 H 1.336808 -2.500200 1.075982 0
M  V30 27 H -0.291554 -1.317903 -2.076263 0
M  V30 28 H 2.635553 -0.806304 -2.808661 0
M  V30 29 H -0.077534 4.079478 -2.190128 0
M  V30 30 H 0.020935 6.043706 -0.742064 0
M  V30 31 H 1.435202 6.031646 1.345714 0
M  V30 32 H 2.732340 3.974128 1.911750 0
M  V30 33 H -2.416649 -2.548264 -1.067368 0
M  V30 34 H -4.458730 -3.496365 1.365900 0
M  V30 END ATOM
M  V30 BEGIN BOND
M  V30 1 1 1 2
M  V30 2 1 2 3
M  V30 3 2 3 4
M  V30 4 1 4 5
M  V30 5 2 5 6
M  V30 6 1 6 7
M  V30 7 2 7 8
M  V30 8 1 8 9
M  V30 9 1 9 10
M  V30 10 2 10 11
M  V30 11 1 11 12
M  V30 12 2 12 13
M  V30 13 1 13 14
M  V30 14 2 14 15
M  V30 15 1 15 16
M  V30 16 2 16 17
M  V30 17 1 17 18
M  V30 18 1 6 19
M  V30 19 2 19 20
M  V30 20 1 20 21
M  V30 21 1 20 3
M  V30 22 1 18 10
M  V30 23 1 17 12
M  V30 24 1 1 22
M  V30 25 1 1 23
M  V30 26 1 1 24
M  V30 27 1 4 25
M  V30 28 1 5 26
M  V30 29 1 7 27
M  V30 30 1 9 28
M  V30 31 1 13 29
M  V30 32 1 14 30
M  V30 33 1 15 31
M  V30 34 1 16 32
M  V30 35 1 19 33
M  V30 36 1 21 34
M  V30 END BOND
M  V30 END CTAB
M  END
>  <Dataset>  (802) 
ChEMBL_Kinases

>  <Ligand_Instance>  (802) 
nan

>  <PDB_ID>  (802) 
nan

>  <Standardized_SMILES>  (802) 
COc1ccc(/C=N/Nc2nc3ccccc3s2)cc1O

>  <Name>  (802) 
nan

>  <Pocket>  (802) 
nan

>  <ATP_Site>  (802) 
nan

>  <Peripheral>  (802) 
nan

>  <Num_H_Atoms_ProtBoundConf>  (802) 
nan

>  <Num_Resolved_Atoms>  (802) 
nan

>  <Num_Not_Resolved_Atoms>  (802) 
nan

$$$$
CHEMBL319685
     RDKit          3D

  0  0  0  0  0  0  0  0  0  0999 V3000
M  V30 BEGIN CTAB
M  V30 COUNTS 40 42 0 0 0
M  V30 BEGIN ATOM
M  V30 1 C -1.477336 -7.153063 -1.605871 0
M  V30 2 O -0.370180 -6.951866 -0.753285 0
M  V30 3 C -0.043308 -5.698810 -0.264508 0
M  V30 4 C 1.080578 -5.751795 0.550172 0
M  V30 5 C 1.603417 -4.621283 1.158844 0
M  V30 6 C 0.950708 -3.431160 0.916024 0
M  V30 7 C -0.167619 -3.346347 0.111870 0
M  V30 8 C -0.841839 -2.076366 -0.129639 0
M  V30 9 C -0.457471 -0.860182 0.393520 0
M  V30 10 C -1.304292 0.138264 -0.030242 0
M  V30 11 N -1.317123 1.530379 0.219564 0
M  V30 12 C -0.402402 2.373121 0.894100 0
M  V30 13 C 0.961124 2.053337 0.875078 0
M  V30 14 C 1.783238 2.918963 1.582978 0
M  V30 15 C 1.403125 4.037036 2.286950 0
M  V30 16 S 2.538802 5.043028 3.134581 0
M  V30 17 N 3.157256 6.301287 2.128077 0
M  V30 18 O 3.728352 4.262171 3.650632 0
M  V30 19 O 1.902994 5.687995 4.343325 0
M  V30 20 C 0.052118 4.310559 2.275758 0
M  V30 21 C -0.817472 3.489054 1.591053 0
M  V30 22 N -2.203508 -0.480212 -0.812169 0
M  V30 23 N -1.923705 -1.753098 -0.859147 0
M  V30 24 C -0.658743 -4.488245 -0.475873 0
M  V30 25 H -1.941804 -8.124997 -1.343022 0
M  V30 26 H -1.096350 -7.163424 -2.659383 0
M  V30 27 H -2.240463 -6.361413 -1.562899 0
M  V30 28 H 1.649736 -6.657099 0.788466 0
M  V30 29 H 2.476126 -4.604596 1.801978 0
M  V30 30 H 1.346235 -2.519435 1.389568 0
M  V30 31 H 0.389041 -0.745350 1.047472 0
M  V30 32 H -2.140579 2.095686 -0.144337 0
M  V30 33 H 1.418928 1.223896 0.365225 0
M  V30 34 H 2.862670 2.702164 1.591666 0
M  V30 35 H 4.198504 6.387802 2.210754 0
M  V30 36 H 2.900984 6.181557 1.136779 0
M  V30 37 H -0.354752 5.167980 2.798786 0
M  V30 38 H -1.889141 3.687666 1.569177 0
M  V30 39 H -3.037014 -0.123598 -1.353529 0
M  V30 40 H -1.515352 -4.528049 -1.112662 0
M  V30 END ATOM
M  V30 BEGIN BOND
M  V30 1 1 1 2
M  V30 2 1 2 3
M  V30 3 2 3 4
M  V30 4 1 4 5
M  V30 5 2 5 6
M  V30 6 1 6 7
M  V30 7 1 7 8
M  V30 8 1 8 9
M  V30 9 2 9 10
M  V30 10 1 10 11
M  V30 11 1 11 12
M  V30 12 2 12 13
M  V30 13 1 13 14
M  V30 14 2 14 15
M  V30 15 1 15 16
M  V30 16 1 16 17
M  V30 17 2 16 18
M  V30 18 2 16 19
M  V30 19 1 15 20
M  V30 20 2 20 21
M  V30 21 1 10 22
M  V30 22 1 22 23
M  V30 23 2 7 24
M  V30 24 1 24 3
M  V30 25 2 23 8
M  V30 26 1 21 12
M  V30 27 1 1 25
M  V30 28 1 1 26
M  V30 29 1 1 27
M  V30 30 1 4 28
M  V30 31 1 5 29
M  V30 32 1 6 30
M  V30 33 1 9 31
M  V30 34 1 11 32
M  V30 35 1 13 33
M  V30 36 1 14 34
M  V30 37 1 17 35
M  V30 38 1 17 36
M  V30 39 1 20 37
M  V30 40 1 21 38
M  V30 41 1 22 39
M  V30 42 1 24 40
M  V30 END BOND
M  V30 END CTAB
M  END
>  <Dataset>  (803) 
ChEMBL_Kinases

>  <Ligand_Instance>  (803) 
nan

>  <PDB_ID>  (803) 
nan

>  <Standardized_SMILES>  (803) 
COc1cccc(-c2cc(Nc3ccc(S(N)(=O)=O)cc3)[nH]n2)c1

>  <Name>  (803) 
nan

>  <Pocket>  (803) 
nan

>  <ATP_Site>  (803) 
nan

>  <Peripheral>  (803) 
nan

>  <Num_H_Atoms_ProtBoundConf>  (803) 
nan

>  <Num_Resolved_Atoms>  (803) 
nan

>  <Num_Not_Resolved_Atoms>  (803) 
nan

$$$$
CHEMBL3196967
     RDKit          3D

  0  0  0  0  0  0  0  0  0  0999 V3000
M  V30 BEGIN CTAB
M  V30 COUNTS 48 50 0 0 0
M  V30 BEGIN ATOM
M  V30 1 C 1.418458 -2.844044 5.418339 0
M  V30 2 C 0.997860 -2.594949 4.003471 0
M  V30 3 O 1.897580 -1.716723 3.350383 0
M  V30 4 C 1.617312 -1.397133 2.028605 0
M  V30 5 O 1.355726 -2.527140 1.238034 0
M  V30 6 C 1.606085 -0.128370 1.585931 0
M  V30 7 C 1.894865 0.961966 2.507331 0
M  V30 8 C 2.199127 0.676593 3.925533 0
M  V30 9 N 1.868942 2.153838 2.021387 0
M  V30 10 C 1.564930 2.308898 0.644188 0
M  V30 11 N 1.492501 3.486370 -0.041745 0
M  V30 12 C 1.180923 3.236267 -1.325952 0
M  V30 13 C 1.002468 4.236344 -2.419900 0
M  V30 14 N 1.062501 1.888241 -1.421202 0
M  V30 15 N 1.292688 1.336352 -0.241446 0
M  V30 16 C 1.281387 -0.057360 0.147412 0
M  V30 17 C -0.088531 -0.602030 -0.052721 0
M  V30 18 C -1.067127 -0.567972 0.944688 0
M  V30 19 C -2.325735 -1.087154 0.709035 0
M  V30 20 C -2.669860 -1.654019 -0.501444 0
M  V30 21 O -3.925978 -2.182844 -0.765478 0
M  V30 22 C -4.947103 -2.162867 0.233048 0
M  V30 23 C -1.727576 -1.703743 -1.507467 0
M  V30 24 O -2.055530 -2.265808 -2.719950 0
M  V30 25 C -1.132964 -2.344228 -3.784744 0
M  V30 26 C -0.471471 -1.175267 -1.244410 0
M  V30 27 H 1.361618 -3.922498 5.648494 0
M  V30 28 H 2.470075 -2.454791 5.535358 0
M  V30 29 H 0.729275 -2.251288 6.084351 0
M  V30 30 H 0.926771 -3.573601 3.466103 0
M  V30 31 H -0.028870 -2.147926 3.948461 0
M  V30 32 H 2.155762 -3.175122 1.162372 0
M  V30 33 H 1.291479 0.272512 4.415975 0
M  V30 34 H 2.354465 1.676676 4.426915 0
M  V30 35 H 3.122217 0.124844 4.104429 0
M  V30 36 H 0.820258 5.234410 -1.972876 0
M  V30 37 H 1.968803 4.318008 -2.988062 0
M  V30 38 H 0.246668 3.928131 -3.147629 0
M  V30 39 H 2.014269 -0.660438 -0.422028 0
M  V30 40 H -0.813967 -0.125987 1.902487 0
M  V30 41 H -3.047005 -1.040371 1.502601 0
M  V30 42 H -4.905607 -1.122054 0.666130 0
M  V30 43 H -5.946307 -2.291733 -0.242333 0
M  V30 44 H -4.778236 -2.911441 1.015420 0
M  V30 45 H -0.557509 -1.417337 -3.848481 0
M  V30 46 H -0.514273 -3.271724 -3.761028 0
M  V30 47 H -1.740059 -2.432723 -4.725473 0
M  V30 48 H 0.292720 -1.195979 -2.007387 0
M  V30 END ATOM
M  V30 BEGIN BOND
M  V30 1 1 1 2
M  V30 2 1 2 3
M  V30 3 1 3 4
M  V30 4 1 4 5
M  V30 5 2 4 6
M  V30 6 1 6 7
M  V30 7 1 7 8
M  V30 8 2 7 9
M  V30 9 1 9 10
M  V30 10 2 10 11
M  V30 11 1 11 12
M  V30 12 1 12 13
M  V30 13 2 12 14
M  V30 14 1 14 15
M  V30 15 1 15 16
M  V30 16 1 16 17
M  V30 17 2 17 18
M  V30 18 1 18 19
M  V30 19 2 19 20
M  V30 20 1 20 21
M  V30 21 1 21 22
M  V30 22 1 20 23
M  V30 23 1 23 24
M  V30 24 1 24 25
M  V30 25 2 23 26
M  V30 26 1 16 6
M  V30 27 1 26 17
M  V30 28 1 15 10
M  V30 29 1 1 27
M  V30 30 1 1 28
M  V30 31 1 1 29
M  V30 32 1 2 30
M  V30 33 1 2 31
M  V30 34 1 5 32
M  V30 35 1 8 33
M  V30 36 1 8 34
M  V30 37 1 8 35
M  V30 38 1 13 36
M  V30 39 1 13 37
M  V30 40 1 13 38
M  V30 41 1 16 39
M  V30 42 1 18 40
M  V30 43 1 19 41
M  V30 44 1 22 42
M  V30 45 1 22 43
M  V30 46 1 22 44
M  V30 47 1 25 45
M  V30 48 1 25 46
M  V30 49 1 25 47
M  V30 50 1 26 48
M  V30 END BOND
M  V30 END CTAB
M  END
>  <Dataset>  (804) 
ChEMBL_Kinases

>  <Ligand_Instance>  (804) 
nan

>  <PDB_ID>  (804) 
nan

>  <Standardized_SMILES>  (804) 
CCO/C(O)=C1\C(C)=Nc2nc(C)nn2C1c1ccc(OC)c(OC)c1

>  <Name>  (804) 
nan

>  <Pocket>  (804) 
nan

>  <ATP_Site>  (804) 
nan

>  <Peripheral>  (804) 
nan

>  <Num_H_Atoms_ProtBoundConf>  (804) 
nan

>  <Num_Resolved_Atoms>  (804) 
nan

>  <Num_Not_Resolved_Atoms>  (804) 
nan

$$$$
CHEMBL31970
     RDKit          3D

  0  0  0  0  0  0  0  0  0  0999 V3000
M  V30 BEGIN CTAB
M  V30 COUNTS 39 39 0 0 0
M  V30 BEGIN ATOM
M  V30 1 C -2.185055 -4.126025 -0.596688 0
M  V30 2 C -1.100258 -3.065737 -0.540901 0
M  V30 3 C -1.024111 -2.422695 0.822822 0
M  V30 4 N 0.002070 -1.403101 0.924103 0
M  V30 5 C 1.342619 -1.942527 0.853075 0
M  V30 6 C 2.421788 -0.886592 0.957803 0
M  V30 7 C 3.807030 -1.498710 0.878914 0
M  V30 8 C -0.086286 0.001078 1.074774 0
M  V30 9 C -0.136809 0.870973 0.011165 0
M  V30 10 N -0.094078 0.374732 -1.312967 0 CHG=1 VAL=4
M  V30 11 O -0.114113 -0.154499 -2.423027 0
M  V30 12 O 0.467169 1.032563 -2.399239 0 CHG=-1 VAL=1
M  V30 13 C -0.225839 2.245117 0.067555 0
M  V30 14 C -0.270115 2.833413 1.309404 0
M  V30 15 C -0.363826 4.296589 1.515236 0
M  V30 16 F 0.079822 5.008999 0.420640 0
M  V30 17 F -1.648711 4.697729 1.879528 0
M  V30 18 F 0.448408 4.590140 2.610669 0
M  V30 19 C -0.220237 1.976385 2.385151 0
M  V30 20 C -0.131324 0.604135 2.309058 0
M  V30 21 N -0.083699 -0.196332 3.481055 0 CHG=1 VAL=4
M  V30 22 O 0.315943 -0.009210 4.646185 0
M  V30 23 O -0.510064 -1.495388 3.609509 0 CHG=-1 VAL=1
M  V30 24 H -3.099027 -3.825728 -0.051951 0
M  V30 25 H -1.820147 -5.061408 -0.119308 0
M  V30 26 H -2.401966 -4.397210 -1.647640 0
M  V30 27 H -1.398543 -2.271804 -1.259263 0
M  V30 28 H -0.140108 -3.557486 -0.798874 0
M  V30 29 H -0.736859 -3.252195 1.526759 0
M  V30 30 H -2.032978 -2.028577 1.053420 0
M  V30 31 H 1.510642 -2.640008 1.723809 0
M  V30 32 H 1.478322 -2.580549 -0.041581 0
M  V30 33 H 2.312823 -0.261385 0.024397 0
M  V30 34 H 2.354213 -0.295173 1.868189 0
M  V30 35 H 3.751198 -2.273918 0.062750 0
M  V30 36 H 4.085200 -2.035492 1.798571 0
M  V30 37 H 4.548510 -0.768217 0.529658 0
M  V30 38 H -0.263607 2.893715 -0.790310 0
M  V30 39 H -0.251034 2.383595 3.383661 0
M  V30 END ATOM
M  V30 BEGIN BOND
M  V30 1 1 1 2
M  V30 2 1 2 3
M  V30 3 1 3 4
M  V30 4 1 4 5
M  V30 5 1 5 6
M  V30 6 1 6 7
M  V30 7 1 4 8
M  V30 8 2 8 9
M  V30 9 1 9 10
M  V30 10 2 10 11
M  V30 11 1 10 12
M  V30 12 1 9 13
M  V30 13 2 13 14
M  V30 14 1 14 15
M  V30 15 1 15 16
M  V30 16 1 15 17
M  V30 17 1 15 18
M  V30 18 1 14 19
M  V30 19 2 19 20
M  V30 20 1 20 21
M  V30 21 2 21 22
M  V30 22 1 21 23
M  V30 23 1 20 8
M  V30 24 1 1 24
M  V30 25 1 1 25
M  V30 26 1 1 26
M  V30 27 1 2 27
M  V30 28 1 2 28
M  V30 29 1 3 29
M  V30 30 1 3 30
M  V30 31 1 5 31
M  V30 32 1 5 32
M  V30 33 1 6 33
M  V30 34 1 6 34
M  V30 35 1 7 35
M  V30 36 1 7 36
M  V30 37 1 7 37
M  V30 38 1 13 38
M  V30 39 1 19 39
M  V30 END BOND
M  V30 END CTAB
M  END
>  <Dataset>  (805) 
ChEMBL_Kinases

>  <Ligand_Instance>  (805) 
nan

>  <PDB_ID>  (805) 
nan

>  <Standardized_SMILES>  (805) 
CCCN(CCC)c1c([N+](=O)[O-])cc(C(F)(F)F)cc1[N+](=O)[O-]

>  <Name>  (805) 
TRIFLURALIN

>  <Pocket>  (805) 
nan

>  <ATP_Site>  (805) 
nan

>  <Peripheral>  (805) 
nan

>  <Num_H_Atoms_ProtBoundConf>  (805) 
nan

>  <Num_Resolved_Atoms>  (805) 
nan

>  <Num_Not_Resolved_Atoms>  (805) 
nan

$$$$
CHEMBL3196256
     RDKit          3D

  0  0  0  0  0  0  0  0  0  0999 V3000
M  V30 BEGIN CTAB
M  V30 COUNTS 57 60 0 0 0
M  V30 BEGIN ATOM
M  V30 1 C 5.589105 -0.773960 5.137157 0
M  V30 2 O 4.483324 0.094111 5.076294 0
M  V30 3 C 3.576541 -0.064615 4.040523 0
M  V30 4 C 2.464472 0.777826 3.944725 0
M  V30 5 C 1.554606 0.607428 2.892836 0
M  V30 6 C 1.737344 -0.383129 1.943599 0
M  V30 7 N 0.694486 -0.314084 0.988925 0
M  V30 8 C -0.300489 -1.117362 0.915009 0
M  V30 9 C -1.339788 -0.983763 -0.098748 0
M  V30 10 N -1.427769 -0.093803 -1.029829 0
M  V30 11 C -0.399866 0.887956 -1.098751 0
M  V30 12 C 0.668022 0.719958 -1.925840 0
M  V30 13 C 1.683274 1.646595 -2.021294 0
M  V30 14 C 1.672537 2.796542 -1.282746 0
M  V30 15 O 2.590109 3.822046 -1.249448 0
M  V30 16 C 3.774178 3.879268 -2.011677 0
M  V30 17 C 0.581597 2.982695 -0.428564 0
M  V30 18 C -0.442494 2.049881 -0.331074 0
M  V30 19 N -2.246493 -2.048203 0.152985 0
M  V30 20 C -3.437126 -2.356207 -0.564850 0
M  V30 21 C -4.715326 -1.890674 -0.316353 0
M  V30 22 C -5.760022 -2.300855 -1.125250 0
M  V30 23 C -5.574611 -3.170691 -2.188187 0
M  V30 24 O -6.656464 -3.552580 -2.970953 0
M  V30 25 C -6.427743 -4.449921 -4.057309 0
M  V30 26 C -4.287618 -3.625366 -2.420402 0
M  V30 27 C -3.205889 -3.233966 -1.625479 0
M  V30 28 C -1.752609 -2.774142 1.272036 0
M  V30 29 S -2.490598 -4.085749 1.905222 0
M  V30 30 N -0.521983 -2.215526 1.782849 0
M  V30 31 C 0.240076 -2.710712 2.907200 0
M  V30 32 C 2.856402 -1.216475 2.056290 0
M  V30 33 C 3.736751 -1.037877 3.089600 0
M  V30 34 H 6.082998 -0.822098 4.133172 0
M  V30 35 H 5.340143 -1.785947 5.520697 0
M  V30 36 H 6.329339 -0.309051 5.832412 0
M  V30 37 H 2.387164 1.527479 4.720684 0
M  V30 38 H 0.760812 1.338849 2.971785 0
M  V30 39 H 0.734966 -0.171657 -2.538015 0
M  V30 40 H 2.547246 1.544702 -2.668809 0
M  V30 41 H 4.083329 2.848043 -2.247164 0
M  V30 42 H 4.575914 4.446402 -1.504088 0
M  V30 43 H 3.491627 4.371848 -2.978867 0
M  V30 44 H 0.466171 3.857565 0.205656 0
M  V30 45 H -1.284334 2.180747 0.319941 0
M  V30 46 H -4.786112 -1.222850 0.519172 0
M  V30 47 H -6.736456 -1.922783 -0.906688 0
M  V30 48 H -5.808230 -3.879658 -4.791149 0
M  V30 49 H -7.376441 -4.800047 -4.490861 0
M  V30 50 H -5.880325 -5.342965 -3.696351 0
M  V30 51 H -4.129251 -4.309348 -3.252823 0
M  V30 52 H -2.241270 -3.655229 -1.902541 0
M  V30 53 H 1.082505 -3.365585 2.605877 0
M  V30 54 H -0.500671 -3.315423 3.522630 0
M  V30 55 H 0.572326 -1.930835 3.610167 0
M  V30 56 H 2.864894 -1.935362 1.250158 0
M  V30 57 H 4.569731 -1.725195 3.097600 0
M  V30 END ATOM
M  V30 BEGIN BOND
M  V30 1 1 1 2
M  V30 2 1 2 3
M  V30 3 2 3 4
M  V30 4 1 4 5
M  V30 5 2 5 6
M  V30 6 1 6 7
M  V30 7 2 7 8
M  V30 8 1 8 9
M  V30 9 2 9 10
M  V30 10 1 10 11
M  V30 11 2 11 12
M  V30 12 1 12 13
M  V30 13 2 13 14
M  V30 14 1 14 15
M  V30 15 1 15 16
M  V30 16 1 14 17
M  V30 17 2 17 18
M  V30 18 1 9 19
M  V30 19 1 19 20
M  V30 20 2 20 21
M  V30 21 1 21 22
M  V30 22 2 22 23
M  V30 23 1 23 24
M  V30 24 1 24 25
M  V30 25 1 23 26
M  V30 26 2 26 27
M  V30 27 1 19 28
M  V30 28 2 28 29
M  V30 29 1 28 30
M  V30 30 1 30 31
M  V30 31 1 6 32
M  V30 32 2 32 33
M  V30 33 1 33 3
M  V30 34 1 30 8
M  V30 35 1 18 11
M  V30 36 1 27 20
M  V30 37 1 1 34
M  V30 38 1 1 35
M  V30 39 1 1 36
M  V30 40 1 4 37
M  V30 41 1 5 38
M  V30 42 1 12 39
M  V30 43 1 13 40
M  V30 44 1 16 41
M  V30 45 1 16 42
M  V30 46 1 16 43
M  V30 47 1 17 44
M  V30 48 1 18 45
M  V30 49 1 21 46
M  V30 50 1 22 47
M  V30 51 1 25 48
M  V30 52 1 25 49
M  V30 53 1 25 50
M  V30 54 1 26 51
M  V30 55 1 27 52
M  V30 56 1 31 53
M  V30 57 1 31 54
M  V30 58 1 31 55
M  V30 59 1 32 56
M  V30 60 1 33 57
M  V30 END BOND
M  V30 END CTAB
M  END
>  <Dataset>  (806) 
ChEMBL_Kinases

>  <Ligand_Instance>  (806) 
nan

>  <PDB_ID>  (806) 
nan

>  <Standardized_SMILES>  (806) 
COc1ccc(/N=C2C(=N\c3ccc(OC)cc3)/N(c3ccc(OC)cc3)C(=S)N/2C)cc1

>  <Name>  (806) 
nan

>  <Pocket>  (806) 
nan

>  <ATP_Site>  (806) 
nan

>  <Peripheral>  (806) 
nan

>  <Num_H_Atoms_ProtBoundConf>  (806) 
nan

>  <Num_Resolved_Atoms>  (806) 
nan

>  <Num_Not_Resolved_Atoms>  (806) 
nan

$$$$
CHEMBL3094453
     RDKit          3D

  0  0  0  0  0  0  0  0  0  0999 V3000
M  V30 BEGIN CTAB
M  V30 COUNTS 52 56 0 0 0
M  V30 BEGIN ATOM
M  V30 1 C 2.535377 -9.340975 1.646755 0
M  V30 2 O 1.968014 -8.710524 0.505129 0
M  V30 3 C 2.044104 -7.320686 0.446194 0
M  V30 4 N 2.634290 -6.630253 1.440133 0
M  V30 5 C 2.677017 -5.288067 1.326246 0
M  V30 6 C 2.141622 -4.620818 0.238537 0
M  V30 7 C 2.220085 -3.252226 0.187028 0
M  V30 8 C 1.687185 -2.546093 -0.901669 0
M  V30 9 C 1.853348 -1.104010 -0.801324 0
M  V30 10 O 2.427412 -0.515127 0.177364 0
M  V30 11 N 1.432698 -0.113314 -1.723067 0
M  V30 12 C 1.741788 1.239814 -1.345176 0
M  V30 13 C 0.766867 1.879300 -0.595853 0
M  V30 14 C 0.944051 3.197931 -0.164465 0
M  V30 15 C -0.121124 3.818817 0.623459 0
M  V30 16 N -0.111336 4.713969 1.636653 0
M  V30 17 N -1.360765 4.953848 2.007646 0
M  V30 18 N -2.187822 4.254495 1.281176 0
M  V30 19 C -3.639815 4.114596 1.238073 0
M  V30 20 C -4.103059 3.019211 2.143545 0
M  V30 21 C -4.440099 3.206922 3.471029 0
M  V30 22 C -4.854084 2.091700 4.187651 0
M  V30 23 C -4.919192 0.851857 3.577493 0
M  V30 24 C -4.579290 0.673671 2.246290 0
M  V30 25 C -4.166633 1.776190 1.525767 0
M  V30 26 N -1.426613 3.564331 0.438920 0
M  V30 27 C 2.112265 3.843845 -0.503746 0
M  V30 28 C 3.072910 3.176597 -1.256782 0
M  V30 29 C 2.913620 1.873119 -1.691287 0
M  V30 30 Cl 4.088046 1.004889 -2.632661 0
M  V30 31 C 1.103177 -3.332313 -1.870386 0
M  V30 32 O 0.638690 -2.675717 -2.825235 0
M  V30 33 N 1.052864 -4.670378 -1.771123 0
M  V30 34 C 1.550228 -5.380645 -0.747658 0
M  V30 35 N 1.504533 -6.701497 -0.642335 0
M  V30 36 H 2.100762 -8.814109 2.529806 0
M  V30 37 H 3.647693 -9.235201 1.657996 0
M  V30 38 H 2.295433 -10.424840 1.672443 0
M  V30 39 H 3.165492 -4.784744 2.158689 0
M  V30 40 H 2.712591 -2.748046 1.026816 0
M  V30 41 H 0.941367 -0.430954 -2.587518 0
M  V30 42 H -0.169119 1.379091 -0.317172 0
M  V30 43 H -3.992277 3.948791 0.197918 0
M  V30 44 H -4.137608 5.075213 1.549171 0
M  V30 45 H -4.363799 4.214345 3.883493 0
M  V30 46 H -5.118119 2.242009 5.229795 0
M  V30 47 H -5.244006 -0.026108 4.137749 0
M  V30 48 H -4.629959 -0.301259 1.764624 0
M  V30 49 H -3.906123 1.608750 0.484543 0
M  V30 50 H 2.263199 4.862071 -0.177823 0
M  V30 51 H 4.009398 3.661908 -1.541613 0
M  V30 52 H 0.589057 -5.175918 -2.557549 0
M  V30 END ATOM
M  V30 BEGIN BOND
M  V30 1 1 1 2
M  V30 2 1 2 3
M  V30 3 2 3 4
M  V30 4 1 4 5
M  V30 5 2 5 6
M  V30 6 1 6 7
M  V30 7 2 7 8
M  V30 8 1 8 9
M  V30 9 2 9 10
M  V30 10 1 9 11
M  V30 11 1 11 12
M  V30 12 2 12 13
M  V30 13 1 13 14
M  V30 14 1 14 15
M  V30 15 1 15 16
M  V30 16 2 16 17
M  V30 17 1 17 18
M  V30 18 1 18 19
M  V30 19 1 19 20
M  V30 20 2 20 21
M  V30 21 1 21 22
M  V30 22 2 22 23
M  V30 23 1 23 24
M  V30 24 2 24 25
M  V30 25 1 18 26
M  V30 26 2 14 27
M  V30 27 1 27 28
M  V30 28 2 28 29
M  V30 29 1 29 30
M  V30 30 1 8 31
M  V30 31 2 31 32
M  V30 32 1 31 33
M  V30 33 1 33 34
M  V30 34 2 34 35
M  V30 35 1 35 3
M  V30 36 1 34 6
M  V30 37 1 29 12
M  V30 38 2 26 15
M  V30 39 1 25 20
M  V30 40 1 1 36
M  V30 41 1 1 37
M  V30 42 1 1 38
M  V30 43 1 5 39
M  V30 44 1 7 40
M  V30 45 1 11 41
M  V30 46 1 13 42
M  V30 47 1 19 43
M  V30 48 1 19 44
M  V30 49 1 21 45
M  V30 50 1 22 46
M  V30 51 1 23 47
M  V30 52 1 24 48
M  V30 53 1 25 49
M  V30 54 1 27 50
M  V30 55 1 28 51
M  V30 56 1 33 52
M  V30 END BOND
M  V30 END CTAB
M  END
>  <Dataset>  (807) 
ChEMBL_Kinases

>  <Ligand_Instance>  (807) 
nan

>  <PDB_ID>  (807) 
nan

>  <Standardized_SMILES>  (807) 
COc1ncc2cc(C(=O)Nc3cc(-c4nnn(Cc5ccccc5)n4)ccc3Cl)c(=O)[nH]c2n1

>  <Name>  (807) 
nan

>  <Pocket>  (807) 
nan

>  <ATP_Site>  (807) 
nan

>  <Peripheral>  (807) 
nan

>  <Num_H_Atoms_ProtBoundConf>  (807) 
nan

>  <Num_Resolved_Atoms>  (807) 
nan

>  <Num_Not_Resolved_Atoms>  (807) 
nan

$$$$
CHEMBL3094434
     RDKit          3D

  0  0  0  0  0  0  0  0  0  0999 V3000
M  V30 BEGIN CTAB
M  V30 COUNTS 83 87 0 0 0
M  V30 BEGIN ATOM
M  V30 1 C 1.762341 -6.005588 2.600894 0
M  V30 2 N 3.059592 -5.414858 2.538376 0
M  V30 3 C 4.047793 -6.167997 1.832524 0
M  V30 4 C 5.303678 -5.334837 1.730344 0
M  V30 5 N 5.014852 -3.977276 2.069852 0
M  V30 6 C 6.048389 -3.070378 1.738595 0
M  V30 7 C 5.730722 -1.637648 2.098475 0
M  V30 8 C 6.911724 -0.816531 1.638142 0
M  V30 9 N 6.820677 0.578578 1.864448 0
M  V30 10 C 5.517515 0.755678 1.303181 0
M  V30 11 N 5.025231 0.668252 0.047131 0
M  V30 12 C 3.697316 0.894376 -0.182891 0
M  V30 13 C 2.867680 1.211321 0.869891 0
M  V30 14 C 1.529514 1.434012 0.617296 0
M  V30 15 C 0.618507 1.757138 1.605635 0
M  V30 16 C -0.779435 1.987477 1.299403 0
M  V30 17 O -1.073320 1.847054 0.073148 0
M  V30 18 N -1.835641 2.335234 2.138503 0
M  V30 19 C -3.200942 2.549057 1.863563 0
M  V30 20 C -3.851466 2.301151 0.682189 0
M  V30 21 C -5.174269 2.531739 0.411808 0
M  V30 22 C -5.856089 2.233653 -0.831700 0
M  V30 23 O -7.042968 2.609903 -1.048815 0
M  V30 24 N -5.238354 1.505124 -1.871315 0
M  V30 25 C -5.498502 0.995097 -3.196131 0
M  V30 26 C -5.563391 -0.530771 -3.018796 0
M  V30 27 C -5.827043 -1.259593 -4.289917 0
M  V30 28 N -5.866842 -2.694230 -3.988594 0
M  V30 29 C -4.525973 1.388324 -4.213182 0
M  V30 30 C -3.167381 1.373024 -3.998131 0
M  V30 31 C -2.229732 1.744832 -4.965882 0
M  V30 32 C -2.659982 2.152656 -6.210233 0
M  V30 33 C -4.009797 2.178387 -6.455138 0
M  V30 34 C -4.914903 1.801327 -5.468014 0
M  V30 35 C -5.951576 3.069649 1.417106 0
M  V30 36 C -5.372961 3.348168 2.636961 0
M  V30 37 C -4.038779 3.088375 2.833611 0
M  V30 38 Cl -3.386243 3.472348 4.412897 0
M  V30 39 C 1.206818 1.826828 2.847614 0
M  V30 40 O 0.517030 2.109332 3.848970 0
M  V30 41 N 2.499331 1.617355 3.135035 0
M  V30 42 C 3.360075 1.304195 2.154079 0
M  V30 43 N 4.672910 1.072329 2.328999 0
M  V30 44 C 4.613858 -3.862293 3.447788 0
M  V30 45 C 3.577427 -4.927080 3.782770 0
M  V30 46 H 1.282188 -5.717311 3.555256 0
M  V30 47 H 1.778080 -7.115154 2.446900 0
M  V30 48 H 1.113911 -5.588602 1.777203 0
M  V30 49 H 3.657119 -6.462936 0.829383 0
M  V30 50 H 4.271534 -7.103271 2.367768 0
M  V30 51 H 5.624288 -5.332553 0.651420 0
M  V30 52 H 6.145659 -5.794624 2.284202 0
M  V30 53 H 6.349626 -3.151171 0.653648 0
M  V30 54 H 6.977438 -3.422978 2.276514 0
M  V30 55 H 5.529328 -1.539700 3.166997 0
M  V30 56 H 4.812169 -1.356680 1.546479 0
M  V30 57 H 7.815147 -1.267472 2.129627 0
M  V30 58 H 7.059660 -1.016366 0.561388 0
M  V30 59 H 7.400924 1.340886 2.275679 0
M  V30 60 H 3.401790 0.800160 -1.213842 0
M  V30 61 H 1.197798 1.344138 -0.424075 0
M  V30 62 H -1.571737 2.458174 3.142548 0
M  V30 63 H -3.310644 1.884878 -0.131120 0
M  V30 64 H -4.270798 1.181959 -1.730141 0
M  V30 65 H -6.532933 1.310825 -3.523002 0
M  V30 66 H -6.397516 -0.749422 -2.313634 0
M  V30 67 H -4.604022 -0.826571 -2.567355 0
M  V30 68 H -5.136906 -1.046988 -5.104303 0
M  V30 69 H -6.843162 -1.013110 -4.661403 0
M  V30 70 H -5.168277 -3.196756 -4.599573 0
M  V30 71 H -5.523574 -2.872898 -3.018659 0
M  V30 72 H -2.743699 1.067043 -3.054050 0
M  V30 73 H -1.162829 1.713045 -4.737270 0
M  V30 74 H -1.907185 2.429333 -6.923582 0
M  V30 75 H -4.353499 2.499234 -7.437185 0
M  V30 76 H -5.984278 1.822363 -5.664165 0
M  V30 77 H -6.991069 3.281889 1.290831 0
M  V30 78 H -5.982359 3.770402 3.427715 0
M  V30 79 H 2.901229 1.679416 4.082311 0
M  V30 80 H 5.473992 -3.930699 4.145274 0
M  V30 81 H 4.079281 -2.887562 3.560320 0
M  V30 82 H 4.023443 -5.746999 4.368229 0
M  V30 83 H 2.728952 -4.505482 4.342582 0
M  V30 END ATOM
M  V30 BEGIN BOND
M  V30 1 1 1 2
M  V30 2 1 2 3
M  V30 3 1 3 4
M  V30 4 1 4 5
M  V30 5 1 5 6
M  V30 6 1 6 7
M  V30 7 1 7 8
M  V30 8 1 8 9
M  V30 9 1 9 10
M  V30 10 2 10 11
M  V30 11 1 11 12
M  V30 12 2 12 13
M  V30 13 1 13 14
M  V30 14 2 14 15
M  V30 15 1 15 16
M  V30 16 2 16 17
M  V30 17 1 16 18
M  V30 18 1 18 19
M  V30 19 2 19 20
M  V30 20 1 20 21
M  V30 21 1 21 22
M  V30 22 2 22 23
M  V30 23 1 22 24
M  V30 24 1 24 25
M  V30 25 1 25 26
M  V30 26 1 26 27
M  V30 27 1 27 28
M  V30 28 1 25 29
M  V30 29 2 29 30
M  V30 30 1 30 31
M  V30 31 2 31 32
M  V30 32 1 32 33
M  V30 33 2 33 34
M  V30 34 2 21 35
M  V30 35 1 35 36
M  V30 36 2 36 37
M  V30 37 1 37 38
M  V30 38 1 15 39
M  V30 39 2 39 40
M  V30 40 1 39 41
M  V30 41 1 41 42
M  V30 42 2 42 43
M  V30 43 1 5 44
M  V30 44 1 44 45
M  V30 45 1 45 2
M  V30 46 1 43 10
M  V30 47 1 42 13
M  V30 48 1 37 19
M  V30 49 1 34 29
M  V30 50 1 1 46
M  V30 51 1 1 47
M  V30 52 1 1 48
M  V30 53 1 3 49
M  V30 54 1 3 50
M  V30 55 1 4 51
M  V30 56 1 4 52
M  V30 57 1 6 53
M  V30 58 1 6 54
M  V30 59 1 7 55
M  V30 60 1 7 56
M  V30 61 1 8 57
M  V30 62 1 8 58
M  V30 63 1 9 59
M  V30 64 1 12 60
M  V30 65 1 14 61
M  V30 66 1 18 62
M  V30 67 1 20 63
M  V30 68 1 24 64
M  V30 69 1 25 65
M  V30 70 1 26 66
M  V30 71 1 26 67
M  V30 72 1 27 68
M  V30 73 1 27 69
M  V30 74 1 28 70
M  V30 75 1 28 71
M  V30 76 1 30 72
M  V30 77 1 31 73
M  V30 78 1 32 74
M  V30 79 1 33 75
M  V30 80 1 34 76
M  V30 81 1 35 77
M  V30 82 1 36 78
M  V30 83 1 41 79
M  V30 84 1 44 80
M  V30 85 1 44 81
M  V30 86 1 45 82
M  V30 87 1 45 83
M  V30 END BOND
M  V30 END CTAB
M  END
>  <Dataset>  (808) 
ChEMBL_Kinases

>  <Ligand_Instance>  (808) 
nan

>  <PDB_ID>  (808) 
nan

>  <Standardized_SMILES>  (808) 
CN1CCN(CCCNc2ncc3cc(C(=O)Nc4cc(C(=O)NC(CCN)c5ccccc5)ccc4Cl)c(=O)[nH]c3n2)CC1

>  <Name>  (808) 
nan

>  <Pocket>  (808) 
nan

>  <ATP_Site>  (808) 
nan

>  <Peripheral>  (808) 
nan

>  <Num_H_Atoms_ProtBoundConf>  (808) 
nan

>  <Num_Resolved_Atoms>  (808) 
nan

>  <Num_Not_Resolved_Atoms>  (808) 
nan

$$$$
CHEMBL3093261
     RDKit          3D

  0  0  0  0  0  0  0  0  0  0999 V3000
M  V30 BEGIN CTAB
M  V30 COUNTS 62 67 0 0 0
M  V30 BEGIN ATOM
M  V30 1 C 5.254946 0.901273 1.876101 0
M  V30 2 N 4.923846 2.064932 1.066714 0
M  V30 3 C 6.107105 2.725224 0.683149 0
M  V30 4 C 7.302603 2.341177 1.243549 0
M  V30 5 C 8.541294 2.895317 0.889288 0
M  V30 6 C 8.616260 3.879271 -0.065461 0
M  V30 7 C 7.453289 4.307225 -0.665137 0
M  V30 8 C 6.288089 3.707064 -0.255387 0
M  V30 9 C 3.573285 2.327408 0.787417 0
M  V30 10 C 3.009459 3.452858 0.246402 0
M  V30 11 C 1.706759 3.684155 -0.107049 0
M  V30 12 C 0.839293 2.638732 0.113833 0
M  V30 13 O -0.463102 2.551173 -0.118904 0
M  V30 14 C -0.875062 1.349772 0.253749 0
M  V30 15 C -2.254288 0.888779 0.146903 0
M  V30 16 C -2.603038 -0.381533 0.556289 0
M  V30 17 C -3.913392 -0.712604 0.412692 0
M  V30 18 C -4.337697 -2.056036 0.833408 0
M  V30 19 C -5.567570 -2.460012 1.344998 0
M  V30 20 N -5.491593 -3.781696 1.586122 0
M  V30 21 N -4.297872 -4.265463 1.266957 0
M  V30 22 C -3.852836 -5.641523 1.389763 0
M  V30 23 C -5.025568 -6.538378 1.705566 0
M  V30 24 C -5.094507 -7.585591 0.594667 0
M  V30 25 N -5.306321 -6.915481 -0.673367 0
M  V30 26 C -4.142482 -6.171418 -1.057644 0
M  V30 27 C -3.170621 -5.997854 0.086450 0
M  V30 28 C -3.584151 -3.222778 0.806392 0
M  V30 29 C -4.932412 0.073755 -0.094133 0
M  V30 30 N -4.535823 1.319720 -0.484448 0
M  V30 31 C -3.246344 1.702124 -0.364595 0
M  V30 32 N -2.960126 3.022975 -0.804953 0
M  V30 33 N 0.178553 0.685704 0.721627 0
M  V30 34 C 1.314896 1.443411 0.665679 0
M  V30 35 C 2.651951 1.320959 0.983763 0
M  V30 36 H 4.462349 0.201369 2.061128 0
M  V30 37 H 6.081283 0.319097 1.372651 0
M  V30 38 H 5.710497 1.266634 2.847173 0
M  V30 39 H 7.468792 1.598859 2.004059 0
M  V30 40 H 9.481311 2.601743 1.321932 0
M  V30 41 H 9.564495 4.315388 -0.347886 0
M  V30 42 H 7.516361 5.071981 -1.406608 0
M  V30 43 H 5.451890 4.081954 -0.812612 0
M  V30 44 H 3.609104 4.325990 0.089031 0
M  V30 45 H 1.338519 4.603565 -0.532135 0
M  V30 46 H -1.882035 -1.079933 0.968685 0
M  V30 47 H -6.390120 -1.772298 1.493141 0
M  V30 48 H -3.069490 -5.686133 2.170750 0
M  V30 49 H -4.759441 -7.104611 2.638661 0
M  V30 50 H -5.964777 -5.992115 1.801254 0
M  V30 51 H -5.870897 -8.351943 0.783500 0
M  V30 52 H -4.130793 -8.132226 0.588026 0
M  V30 53 H -6.175649 -6.347011 -0.617788 0
M  V30 54 H -3.595145 -6.808730 -1.810123 0
M  V30 55 H -4.347019 -5.228957 -1.594560 0
M  V30 56 H -2.511885 -6.886963 0.176889 0
M  V30 57 H -2.509867 -5.148850 -0.180226 0
M  V30 58 H -2.564576 -3.209161 0.447383 0
M  V30 59 H -5.954020 -0.273061 -0.172460 0
M  V30 60 H -2.856904 2.886878 -1.815780 0
M  V30 61 H -2.792496 4.030675 -0.735826 0
M  V30 62 H 2.782506 0.342980 1.375051 0
M  V30 END ATOM
M  V30 BEGIN BOND
M  V30 1 1 1 2
M  V30 2 1 2 3
M  V30 3 2 3 4
M  V30 4 1 4 5
M  V30 5 2 5 6
M  V30 6 1 6 7
M  V30 7 2 7 8
M  V30 8 1 2 9
M  V30 9 2 9 10
M  V30 10 1 10 11
M  V30 11 2 11 12
M  V30 12 1 12 13
M  V30 13 1 13 14
M  V30 14 1 14 15
M  V30 15 2 15 16
M  V30 16 1 16 17
M  V30 17 1 17 18
M  V30 18 1 18 19
M  V30 19 2 19 20
M  V30 20 1 20 21
M  V30 21 1 21 22
M  V30 22 1 22 23
M  V30 23 1 23 24
M  V30 24 1 24 25
M  V30 25 1 25 26
M  V30 26 1 26 27
M  V30 27 1 21 28
M  V30 28 2 17 29
M  V30 29 1 29 30
M  V30 30 2 30 31
M  V30 31 1 31 32
M  V30 32 2 14 33
M  V30 33 1 33 34
M  V30 34 2 34 35
M  V30 35 1 8 3
M  V30 36 1 35 9
M  V30 37 1 34 12
M  V30 38 1 31 15
M  V30 39 2 28 18
M  V30 40 1 27 22
M  V30 41 1 1 36
M  V30 42 1 1 37
M  V30 43 1 1 38
M  V30 44 1 4 39
M  V30 45 1 5 40
M  V30 46 1 6 41
M  V30 47 1 7 42
M  V30 48 1 8 43
M  V30 49 1 10 44
M  V30 50 1 11 45
M  V30 51 1 16 46
M  V30 52 1 19 47
M  V30 53 1 22 48
M  V30 54 1 23 49
M  V30 55 1 23 50
M  V30 56 1 24 51
M  V30 57 1 24 52
M  V30 58 1 25 53
M  V30 59 1 26 54
M  V30 60 1 26 55
M  V30 61 1 27 56
M  V30 62 1 27 57
M  V30 63 1 28 58
M  V30 64 1 29 59
M  V30 65 1 32 60
M  V30 66 1 32 61
M  V30 67 1 35 62
M  V30 END BOND
M  V30 END CTAB
M  END
>  <Dataset>  (809) 
ChEMBL_Kinases

>  <Ligand_Instance>  (809) 
nan

>  <PDB_ID>  (809) 
nan

>  <Standardized_SMILES>  (809) 
CN(c1ccccc1)c1ccc2oc(-c3cc(-c4cnn(C5CCNCC5)c4)cnc3N)nc2c1

>  <Name>  (809) 
nan

>  <Pocket>  (809) 
nan

>  <ATP_Site>  (809) 
nan

>  <Peripheral>  (809) 
nan

>  <Num_H_Atoms_ProtBoundConf>  (809) 
nan

>  <Num_Resolved_Atoms>  (809) 
nan

>  <Num_Not_Resolved_Atoms>  (809) 
nan

$$$$
CHEMBL3093256
     RDKit          3D

  0  0  0  0  0  0  0  0  0  0999 V3000
M  V30 BEGIN CTAB
M  V30 COUNTS 54 58 0 0 0
M  V30 BEGIN ATOM
M  V30 1 C 2.291589 -7.073826 4.940216 0
M  V30 2 C 3.066305 -5.778786 4.960622 0
M  V30 3 C 2.529942 -4.741310 4.073560 0
M  V30 4 C 1.812541 -3.659345 4.533741 0
M  V30 5 C 1.289870 -2.657451 3.719928 0
M  V30 6 C 1.529581 -2.793511 2.355334 0
M  V30 7 N 1.155770 -2.000327 1.360238 0
M  V30 8 C 1.622385 -2.543078 0.196374 0
M  V30 9 C 1.413578 -1.958095 -1.125569 0
M  V30 10 C 0.706547 -0.783160 -1.267390 0
M  V30 11 C 0.439917 -0.134446 -2.434066 0
M  V30 12 C -0.329116 1.119689 -2.437787 0
M  V30 13 C -0.283741 2.219480 -3.269719 0
M  V30 14 N -1.217388 3.110328 -2.825504 0
M  V30 15 N -1.820079 2.576413 -1.752730 0
M  V30 16 C -2.861218 3.165777 -0.971537 0
M  V30 17 C -2.400398 3.616583 0.383134 0
M  V30 18 C -3.643561 3.979436 1.170617 0
M  V30 19 N -4.463831 4.938228 0.477793 0
M  V30 20 C -4.823622 4.560628 -0.856054 0
M  V30 21 C -3.523224 4.339604 -1.642385 0
M  V30 22 C -1.314907 1.363887 -1.475259 0
M  V30 23 C 0.945446 -0.744123 -3.580526 0
M  V30 24 N 1.643350 -1.893349 -3.496976 0
M  V30 25 C 1.893332 -2.517937 -2.314013 0
M  V30 26 N 2.629528 -3.732466 -2.214048 0
M  V30 27 O 2.263665 -3.642788 0.500093 0
M  V30 28 C 2.247198 -3.855579 1.787919 0
M  V30 29 C 2.702633 -4.768504 2.709656 0
M  V30 30 O 3.429347 -5.852717 2.179350 0
M  V30 31 H 2.364858 -7.589002 3.955839 0
M  V30 32 H 1.234733 -6.894402 5.134262 0
M  V30 33 H 2.793295 -7.753922 5.660838 0
M  V30 34 H 4.139320 -6.009728 4.818427 0
M  V30 35 H 2.980259 -5.406025 6.023855 0
M  V30 36 H 1.619912 -3.544181 5.599395 0
M  V30 37 H 0.729727 -1.815831 4.096163 0
M  V30 38 H 0.313515 -0.312440 -0.354159 0
M  V30 39 H 0.402024 2.262609 -4.090688 0
M  V30 40 H -3.687114 2.422095 -0.776403 0
M  V30 41 H -1.671599 4.436490 0.344915 0
M  V30 42 H -1.928977 2.755212 0.899826 0
M  V30 43 H -3.390226 4.439174 2.150776 0
M  V30 44 H -4.183690 3.043954 1.415283 0
M  V30 45 H -5.344962 5.037316 1.028337 0
M  V30 46 H -5.301872 3.557892 -0.829262 0
M  V30 47 H -5.428630 5.352838 -1.294196 0
M  V30 48 H -2.906721 5.239749 -1.451275 0
M  V30 49 H -3.732685 4.162578 -2.705278 0
M  V30 50 H -1.605471 0.694922 -0.666306 0
M  V30 51 H 0.752435 -0.255341 -4.532761 0
M  V30 52 H 3.575540 -3.985870 -1.834084 0
M  V30 53 H 2.399214 -4.719067 -2.507715 0
M  V30 54 H 2.836634 -6.501726 1.637897 0
M  V30 END ATOM
M  V30 BEGIN BOND
M  V30 1 1 1 2
M  V30 2 1 2 3
M  V30 3 2 3 4
M  V30 4 1 4 5
M  V30 5 2 5 6
M  V30 6 1 6 7
M  V30 7 2 7 8
M  V30 8 1 8 9
M  V30 9 2 9 10
M  V30 10 1 10 11
M  V30 11 1 11 12
M  V30 12 1 12 13
M  V30 13 2 13 14
M  V30 14 1 14 15
M  V30 15 1 15 16
M  V30 16 1 16 17
M  V30 17 1 17 18
M  V30 18 1 18 19
M  V30 19 1 19 20
M  V30 20 1 20 21
M  V30 21 1 15 22
M  V30 22 2 11 23
M  V30 23 1 23 24
M  V30 24 2 24 25
M  V30 25 1 25 26
M  V30 26 1 8 27
M  V30 27 1 27 28
M  V30 28 2 28 29
M  V30 29 1 29 30
M  V30 30 1 29 3
M  V30 31 1 28 6
M  V30 32 1 25 9
M  V30 33 2 22 12
M  V30 34 1 21 16
M  V30 35 1 1 31
M  V30 36 1 1 32
M  V30 37 1 1 33
M  V30 38 1 2 34
M  V30 39 1 2 35
M  V30 40 1 4 36
M  V30 41 1 5 37
M  V30 42 1 10 38
M  V30 43 1 13 39
M  V30 44 1 16 40
M  V30 45 1 17 41
M  V30 46 1 17 42
M  V30 47 1 18 43
M  V30 48 1 18 44
M  V30 49 1 19 45
M  V30 50 1 20 46
M  V30 51 1 20 47
M  V30 52 1 21 48
M  V30 53 1 21 49
M  V30 54 1 22 50
M  V30 55 1 23 51
M  V30 56 1 26 52
M  V30 57 1 26 53
M  V30 58 1 30 54
M  V30 END BOND
M  V30 END CTAB
M  END
>  <Dataset>  (810) 
ChEMBL_Kinases

>  <Ligand_Instance>  (810) 
nan

>  <PDB_ID>  (810) 
nan

>  <Standardized_SMILES>  (810) 
CCc1ccc2nc(-c3cc(-c4cnn(C5CCNCC5)c4)cnc3N)oc2c1O

>  <Name>  (810) 
nan

>  <Pocket>  (810) 
nan

>  <ATP_Site>  (810) 
nan

>  <Peripheral>  (810) 
nan

>  <Num_H_Atoms_ProtBoundConf>  (810) 
nan

>  <Num_Resolved_Atoms>  (810) 
nan

>  <Num_Not_Resolved_Atoms>  (810) 
nan

$$$$
CHEMBL3093255
     RDKit          3D

  0  0  0  0  0  0  0  0  0  0999 V3000
M  V30 BEGIN CTAB
M  V30 COUNTS 62 67 0 0 0
M  V30 BEGIN ATOM
M  V30 1 C 3.149958 -4.780794 1.622096 0
M  V30 2 O 3.184063 -3.542646 2.262793 0
M  V30 3 C 3.195532 -2.333613 1.620912 0
M  V30 4 C 3.230978 -1.240217 2.492307 0
M  V30 5 C 3.246367 0.057354 1.980022 0
M  V30 6 C 3.227424 0.307869 0.610770 0
M  V30 7 C 3.245760 1.704984 0.187284 0
M  V30 8 C 4.382600 2.446270 -0.062053 0
M  V30 9 O 5.598074 1.792775 0.109290 0
M  V30 10 C 4.281607 3.772853 -0.461572 0
M  V30 11 C 3.023803 4.337901 -0.605194 0
M  V30 12 C 1.868960 3.629438 -0.365429 0
M  V30 13 N 0.533163 3.881827 -0.412694 0
M  V30 14 C -0.126073 2.763396 -0.059606 0
M  V30 15 C -1.576022 2.605639 0.019817 0
M  V30 16 C -2.112398 1.391861 0.399041 0
M  V30 17 C -3.449034 1.164105 0.497152 0
M  V30 18 C -3.929436 -0.156071 0.907222 0
M  V30 19 C -5.041679 -0.579593 1.603407 0
M  V30 20 N -5.011442 -1.931613 1.715730 0
M  V30 21 N -3.910764 -2.388579 1.111132 0
M  V30 22 C -3.426281 -3.760950 0.958179 0
M  V30 23 C -2.047948 -3.926958 1.526142 0
M  V30 24 C -1.090632 -4.583058 0.562963 0
M  V30 25 N -1.652986 -5.708609 -0.134899 0
M  V30 26 C -2.898234 -5.459906 -0.787341 0
M  V30 27 C -3.346419 -4.048865 -0.527123 0
M  V30 28 C -3.236143 -1.336789 0.612350 0
M  V30 29 C -4.271131 2.229776 0.192357 0
M  V30 30 N -3.768173 3.422052 -0.179639 0
M  V30 31 C -2.433020 3.643305 -0.275714 0
M  V30 32 N -1.929711 4.911212 -0.670699 0
M  V30 33 O 0.764403 1.857674 0.195232 0
M  V30 34 C 1.991899 2.295600 0.035801 0
M  V30 35 C 3.192572 -0.780447 -0.231256 0
M  V30 36 C 3.177696 -2.054574 0.285954 0
M  V30 37 H 3.558429 -4.679639 0.611380 0
M  V30 38 H 2.110754 -5.187040 1.643817 0
M  V30 39 H 3.765046 -5.536224 2.156848 0
M  V30 40 H 3.247886 -1.336043 3.577931 0
M  V30 41 H 3.274248 0.897915 2.683884 0
M  V30 42 H 5.759522 0.992661 -0.479147 0
M  V30 43 H 5.194012 4.315274 -0.645852 0
M  V30 44 H 2.954860 5.352501 -0.910854 0
M  V30 45 H -1.413608 0.598335 0.624068 0
M  V30 46 H -5.773616 0.120341 1.967319 0
M  V30 47 H -4.162280 -4.405861 1.473670 0
M  V30 48 H -1.623807 -2.907646 1.756201 0
M  V30 49 H -2.048935 -4.444565 2.519712 0
M  V30 50 H -0.259876 -4.994434 1.197198 0
M  V30 51 H -0.625440 -3.880274 -0.145917 0
M  V30 52 H -1.577631 -6.615767 0.368172 0
M  V30 53 H -3.733623 -6.134227 -0.441863 0
M  V30 54 H -2.818652 -5.578716 -1.895098 0
M  V30 55 H -4.307412 -3.813851 -1.022187 0
M  V30 56 H -2.604544 -3.364107 -0.961429 0
M  V30 57 H -2.290618 -1.377949 0.059074 0
M  V30 58 H -5.353718 2.073864 0.263159 0
M  V30 59 H -1.334462 5.639887 -0.214912 0
M  V30 60 H -2.103305 5.367705 -1.604587 0
M  V30 61 H 3.177998 -0.596726 -1.277674 0
M  V30 62 H 3.150258 -2.930264 -0.353939 0
M  V30 END ATOM
M  V30 BEGIN BOND
M  V30 1 1 1 2
M  V30 2 1 2 3
M  V30 3 2 3 4
M  V30 4 1 4 5
M  V30 5 2 5 6
M  V30 6 1 6 7
M  V30 7 2 7 8
M  V30 8 1 8 9
M  V30 9 1 8 10
M  V30 10 2 10 11
M  V30 11 1 11 12
M  V30 12 1 12 13
M  V30 13 2 13 14
M  V30 14 1 14 15
M  V30 15 2 15 16
M  V30 16 1 16 17
M  V30 17 1 17 18
M  V30 18 1 18 19
M  V30 19 2 19 20
M  V30 20 1 20 21
M  V30 21 1 21 22
M  V30 22 1 22 23
M  V30 23 1 23 24
M  V30 24 1 24 25
M  V30 25 1 25 26
M  V30 26 1 26 27
M  V30 27 1 21 28
M  V30 28 2 17 29
M  V30 29 1 29 30
M  V30 30 2 30 31
M  V30 31 1 31 32
M  V30 32 1 14 33
M  V30 33 1 33 34
M  V30 34 1 6 35
M  V30 35 2 35 36
M  V30 36 1 36 3
M  V30 37 1 34 7
M  V30 38 2 34 12
M  V30 39 1 31 15
M  V30 40 2 28 18
M  V30 41 1 27 22
M  V30 42 1 1 37
M  V30 43 1 1 38
M  V30 44 1 1 39
M  V30 45 1 4 40
M  V30 46 1 5 41
M  V30 47 1 9 42
M  V30 48 1 10 43
M  V30 49 1 11 44
M  V30 50 1 16 45
M  V30 51 1 19 46
M  V30 52 1 22 47
M  V30 53 1 23 48
M  V30 54 1 23 49
M  V30 55 1 24 50
M  V30 56 1 24 51
M  V30 57 1 25 52
M  V30 58 1 26 53
M  V30 59 1 26 54
M  V30 60 1 27 55
M  V30 61 1 27 56
M  V30 62 1 28 57
M  V30 63 1 29 58
M  V30 64 1 32 59
M  V30 65 1 32 60
M  V30 66 1 35 61
M  V30 67 1 36 62
M  V30 END BOND
M  V30 END CTAB
M  END
>  <Dataset>  (811) 
ChEMBL_Kinases

>  <Ligand_Instance>  (811) 
nan

>  <PDB_ID>  (811) 
nan

>  <Standardized_SMILES>  (811) 
COc1ccc(-c2c(O)ccc3nc(-c4cc(-c5cnn(C6CCNCC6)c5)cnc4N)oc23)cc1

>  <Name>  (811) 
nan

>  <Pocket>  (811) 
nan

>  <ATP_Site>  (811) 
nan

>  <Peripheral>  (811) 
nan

>  <Num_H_Atoms_ProtBoundConf>  (811) 
nan

>  <Num_Resolved_Atoms>  (811) 
nan

>  <Num_Not_Resolved_Atoms>  (811) 
nan

$$$$
CHEMBL3093253
     RDKit          3D

  0  0  0  0  0  0  0  0  0  0999 V3000
M  V30 BEGIN CTAB
M  V30 COUNTS 67 72 0 0 0
M  V30 BEGIN ATOM
M  V30 1 N 1.537008 -4.822970 4.648192 0
M  V30 2 C 1.731565 -3.459927 4.249113 0
M  V30 3 N 2.101894 -2.613305 5.254708 0
M  V30 4 C 2.294408 -1.317549 4.910182 0
M  V30 5 C 2.131762 -0.845865 3.613556 0
M  V30 6 C 2.380214 0.578624 3.433066 0
M  V30 7 C 3.314848 1.181463 4.221051 0
M  V30 8 C 3.509882 2.533608 4.015175 0
M  V30 9 C 2.812971 3.283952 3.065144 0
M  V30 10 C 1.868759 2.649489 2.276650 0
M  V30 11 C 1.148009 3.441825 1.292589 0
M  V30 12 O 1.427067 4.666930 1.236569 0
M  V30 13 N 0.174648 2.864763 0.434356 0
M  V30 14 C -0.400666 3.882080 -0.457757 0
M  V30 15 C -1.427264 3.284957 -1.372590 0
M  V30 16 N -2.535511 2.674024 -0.710479 0
M  V30 17 C -3.401488 3.580537 -0.025079 0
M  V30 18 C -4.710262 2.821263 0.223339 0
M  V30 19 O -5.398140 2.831169 -0.984233 0
M  V30 20 C -4.599071 2.489689 -2.056593 0
M  V30 21 C -3.284148 1.881149 -1.662940 0
M  V30 22 C 1.676373 1.300608 2.484202 0
M  V30 23 C 1.758198 -1.701781 2.600689 0
M  V30 24 C 1.562682 -3.020589 2.953401 0
M  V30 25 C 1.162555 -4.002929 1.951878 0
M  V30 26 N 0.952604 -5.309386 2.244696 0
M  V30 27 C 0.594463 -5.989360 1.141196 0
M  V30 28 C 0.274466 -7.307012 0.894362 0
M  V30 29 C -0.052161 -7.641781 -0.405237 0
M  V30 30 C -0.050756 -6.669733 -1.407319 0
M  V30 31 C 0.269284 -5.353422 -1.158497 0
M  V30 32 C 0.241675 -4.422853 -2.275684 0
M  V30 33 C 0.533958 -3.080470 -2.214003 0
M  V30 34 C 0.484196 -2.264209 -3.331661 0
M  V30 35 C 0.134176 -2.771013 -4.571483 0
M  V30 36 C -0.149362 -4.117823 -4.582778 0
M  V30 37 N -0.097833 -4.914468 -3.477731 0
M  V30 38 C 0.589990 -5.049305 0.144869 0
M  V30 39 O 0.930212 -3.902544 0.674521 0
M  V30 40 H 0.689837 -5.100110 5.228159 0
M  V30 41 H 2.028992 -5.757719 4.535532 0
M  V30 42 H 2.589605 -0.661675 5.731428 0
M  V30 43 H 3.911201 0.702516 4.984606 0
M  V30 44 H 4.246120 3.055731 4.622343 0
M  V30 45 H 3.046871 4.353742 2.985220 0
M  V30 46 H -0.062505 1.849779 0.473834 0
M  V30 47 H -0.727342 4.776714 0.087995 0
M  V30 48 H 0.452110 4.203968 -1.116502 0
M  V30 49 H -0.940014 2.562362 -2.034898 0
M  V30 50 H -1.838905 4.128619 -1.975983 0
M  V30 51 H -3.007121 3.921977 0.966382 0
M  V30 52 H -3.625281 4.446534 -0.687195 0
M  V30 53 H -5.321357 3.259797 1.009647 0
M  V30 54 H -4.481253 1.740717 0.446809 0
M  V30 55 H -4.500715 3.345537 -2.735405 0
M  V30 56 H -5.144787 1.698517 -2.631466 0
M  V30 57 H -3.494434 0.898551 -1.187369 0
M  V30 58 H -2.717050 1.681459 -2.589833 0
M  V30 59 H 0.945178 0.780682 1.882557 0
M  V30 60 H 1.637204 -1.329505 1.614713 0
M  V30 61 H 0.303625 -7.982420 1.738773 0
M  V30 62 H -0.303870 -8.674930 -0.601334 0
M  V30 63 H -0.327822 -7.072432 -2.390579 0
M  V30 64 H 0.807112 -2.657586 -1.273058 0
M  V30 65 H 0.718016 -1.206830 -3.264323 0
M  V30 66 H 0.072012 -2.216114 -5.478261 0
M  V30 67 H -0.435869 -4.615933 -5.506456 0
M  V30 END ATOM
M  V30 BEGIN BOND
M  V30 1 1 1 2
M  V30 2 2 2 3
M  V30 3 1 3 4
M  V30 4 2 4 5
M  V30 5 1 5 6
M  V30 6 2 6 7
M  V30 7 1 7 8
M  V30 8 2 8 9
M  V30 9 1 9 10
M  V30 10 1 10 11
M  V30 11 2 11 12
M  V30 12 1 11 13
M  V30 13 1 13 14
M  V30 14 1 14 15
M  V30 15 1 15 16
M  V30 16 1 16 17
M  V30 17 1 17 18
M  V30 18 1 18 19
M  V30 19 1 19 20
M  V30 20 1 20 21
M  V30 21 2 10 22
M  V30 22 1 5 23
M  V30 23 2 23 24
M  V30 24 1 24 25
M  V30 25 2 25 26
M  V30 26 1 26 27
M  V30 27 2 27 28
M  V30 28 1 28 29
M  V30 29 2 29 30
M  V30 30 1 30 31
M  V30 31 1 31 32
M  V30 32 2 32 33
M  V30 33 1 33 34
M  V30 34 2 34 35
M  V30 35 1 35 36
M  V30 36 2 36 37
M  V30 37 2 31 38
M  V30 38 1 38 39
M  V30 39 1 24 2
M  V30 40 1 39 25
M  V30 41 1 22 6
M  V30 42 1 38 27
M  V30 43 1 21 16
M  V30 44 1 37 32
M  V30 45 1 1 40
M  V30 46 1 1 41
M  V30 47 1 4 42
M  V30 48 1 7 43
M  V30 49 1 8 44
M  V30 50 1 9 45
M  V30 51 1 13 46
M  V30 52 1 14 47
M  V30 53 1 14 48
M  V30 54 1 15 49
M  V30 55 1 15 50
M  V30 56 1 17 51
M  V30 57 1 17 52
M  V30 58 1 18 53
M  V30 59 1 18 54
M  V30 60 1 20 55
M  V30 61 1 20 56
M  V30 62 1 21 57
M  V30 63 1 21 58
M  V30 64 1 22 59
M  V30 65 1 23 60
M  V30 66 1 28 61
M  V30 67 1 29 62
M  V30 68 1 30 63
M  V30 69 1 33 64
M  V30 70 1 34 65
M  V30 71 1 35 66
M  V30 72 1 36 67
M  V30 END BOND
M  V30 END CTAB
M  END
>  <Dataset>  (812) 
ChEMBL_Kinases

>  <Ligand_Instance>  (812) 
nan

>  <PDB_ID>  (812) 
nan

>  <Standardized_SMILES>  (812) 
Nc1ncc(-c2cccc(C(=O)NCCN3CCOCC3)c2)cc1-c1nc2cccc(-c3ccccn3)c2o1

>  <Name>  (812) 
nan

>  <Pocket>  (812) 
nan

>  <ATP_Site>  (812) 
nan

>  <Peripheral>  (812) 
nan

>  <Num_H_Atoms_ProtBoundConf>  (812) 
nan

>  <Num_Resolved_Atoms>  (812) 
nan

>  <Num_Not_Resolved_Atoms>  (812) 
nan

$$$$
CHEMBL3093252
     RDKit          3D

  0  0  0  0  0  0  0  0  0  0999 V3000
M  V30 BEGIN CTAB
M  V30 COUNTS 56 60 0 0 0
M  V30 BEGIN ATOM
M  V30 1 C 5.718560 -1.270936 2.232436 0
M  V30 2 N 5.106973 -2.223979 1.383128 0
M  V30 3 C 4.039754 -2.907546 2.080667 0
M  V30 4 C 4.682737 -1.674938 0.127892 0
M  V30 5 O 3.705349 -0.751684 0.080927 0
M  V30 6 C 3.502079 0.476235 0.499495 0
M  V30 7 C 4.063686 1.534594 1.163793 0
M  V30 8 C 3.520880 2.761167 1.447565 0
M  V30 9 C 2.233897 2.965991 1.006802 0
M  V30 10 C 1.543134 1.996966 0.325618 0
M  V30 11 C 0.197950 2.398182 -0.060950 0
M  V30 12 C -0.069891 3.715722 -0.360396 0
M  V30 13 N -1.359648 3.950323 -0.704151 0
M  V30 14 C -2.302917 2.984448 -0.751141 0
M  V30 15 N -3.655407 3.318705 -1.127508 0
M  V30 16 C -2.021713 1.668566 -0.448907 0
M  V30 17 C -3.042979 0.627210 -0.501227 0
M  V30 18 N -4.337313 0.778470 -0.832190 0
M  V30 19 C -4.889222 -0.443459 -0.741704 0
M  V30 20 C -6.145092 -0.974915 -0.940754 0
M  V30 21 C -6.471532 -2.310829 -0.776809 0
M  V30 22 C -5.430357 -3.138655 -0.383378 0
M  V30 23 C -4.148823 -2.685893 -0.164177 0
M  V30 24 C -3.034425 -3.523743 0.249599 0
M  V30 25 C -3.134174 -4.867820 0.474071 0
M  V30 26 C -2.086578 -5.686699 0.870521 0
M  V30 27 C -0.842733 -5.122722 1.057820 0
M  V30 28 C -0.756802 -3.766753 0.827966 0
M  V30 29 N -1.795491 -3.008788 0.444886 0
M  V30 30 C -3.914693 -1.333324 -0.352829 0
M  V30 31 O -2.826874 -0.634185 -0.223482 0
M  V30 32 C -0.731328 1.382262 -0.095674 0
M  V30 33 C 2.180951 0.766937 0.079618 0
M  V30 34 H 6.425218 -0.617491 1.661784 0
M  V30 35 H 6.387092 -1.806374 2.967558 0
M  V30 36 H 5.023758 -0.643274 2.805113 0
M  V30 37 H 3.048661 -2.435895 1.956887 0
M  V30 38 H 4.001783 -3.968530 1.769136 0
M  V30 39 H 4.232471 -2.916454 3.191834 0
M  V30 40 H 4.462856 -2.586192 -0.541504 0
M  V30 41 H 5.583563 -1.242807 -0.426763 0
M  V30 42 H 5.069183 1.313838 1.459284 0
M  V30 43 H 4.150461 3.450023 1.987698 0
M  V30 44 H 1.834729 3.944700 1.247809 0
M  V30 45 H 0.671004 4.502589 -0.328548 0
M  V30 46 H -4.170631 3.353209 -2.035598 0
M  V30 47 H -4.393936 3.611659 -0.423981 0
M  V30 48 H -6.968075 -0.323219 -1.250931 0
M  V30 49 H -7.455949 -2.706712 -0.936771 0
M  V30 50 H -5.636775 -4.185811 -0.242824 0
M  V30 51 H -4.082875 -5.367736 0.343531 0
M  V30 52 H -2.196737 -6.743549 1.039856 0
M  V30 53 H 0.009138 -5.710865 1.366126 0
M  V30 54 H 0.188371 -3.256525 0.955112 0
M  V30 55 H -0.495150 0.365937 0.143236 0
M  V30 56 H 1.437384 0.164706 -0.472724 0
M  V30 END ATOM
M  V30 BEGIN BOND
M  V30 1 1 1 2
M  V30 2 1 2 3
M  V30 3 1 2 4
M  V30 4 1 4 5
M  V30 5 1 5 6
M  V30 6 2 6 7
M  V30 7 1 7 8
M  V30 8 2 8 9
M  V30 9 1 9 10
M  V30 10 1 10 11
M  V30 11 2 11 12
M  V30 12 1 12 13
M  V30 13 2 13 14
M  V30 14 1 14 15
M  V30 15 1 14 16
M  V30 16 1 16 17
M  V30 17 2 17 18
M  V30 18 1 18 19
M  V30 19 2 19 20
M  V30 20 1 20 21
M  V30 21 2 21 22
M  V30 22 1 22 23
M  V30 23 1 23 24
M  V30 24 2 24 25
M  V30 25 1 25 26
M  V30 26 2 26 27
M  V30 27 1 27 28
M  V30 28 2 28 29
M  V30 29 2 23 30
M  V30 30 1 30 31
M  V30 31 2 16 32
M  V30 32 2 10 33
M  V30 33 1 33 6
M  V30 34 1 32 11
M  V30 35 1 31 17
M  V30 36 1 30 19
M  V30 37 1 29 24
M  V30 38 1 1 34
M  V30 39 1 1 35
M  V30 40 1 1 36
M  V30 41 1 3 37
M  V30 42 1 3 38
M  V30 43 1 3 39
M  V30 44 1 4 40
M  V30 45 1 4 41
M  V30 46 1 7 42
M  V30 47 1 8 43
M  V30 48 1 9 44
M  V30 49 1 12 45
M  V30 50 1 15 46
M  V30 51 1 15 47
M  V30 52 1 20 48
M  V30 53 1 21 49
M  V30 54 1 22 50
M  V30 55 1 25 51
M  V30 56 1 26 52
M  V30 57 1 27 53
M  V30 58 1 28 54
M  V30 59 1 32 55
M  V30 60 1 33 56
M  V30 END BOND
M  V30 END CTAB
M  END
>  <Dataset>  (813) 
ChEMBL_Kinases

>  <Ligand_Instance>  (813) 
nan

>  <PDB_ID>  (813) 
nan

>  <Standardized_SMILES>  (813) 
CN(C)COc1cccc(-c2cnc(N)c(-c3nc4cccc(-c5ccccn5)c4o3)c2)c1

>  <Name>  (813) 
nan

>  <Pocket>  (813) 
nan

>  <ATP_Site>  (813) 
nan

>  <Peripheral>  (813) 
nan

>  <Num_H_Atoms_ProtBoundConf>  (813) 
nan

>  <Num_Resolved_Atoms>  (813) 
nan

>  <Num_Not_Resolved_Atoms>  (813) 
nan

$$$$
CHEMBL3093249
     RDKit          3D

  0  0  0  0  0  0  0  0  0  0999 V3000
M  V30 BEGIN CTAB
M  V30 COUNTS 54 58 0 0 0
M  V30 BEGIN ATOM
M  V30 1 C 7.757303 -0.849174 0.466048 0
M  V30 2 S 7.861402 -1.931258 -0.938382 0
M  V30 3 O 7.719365 -3.333195 -0.410017 0
M  V30 4 O 9.264619 -1.804766 -1.488709 0
M  V30 5 O 6.726360 -1.550647 -2.120216 0
M  V30 6 C 5.814354 -0.528453 -2.066040 0
M  V30 7 C 6.045371 0.754423 -2.533452 0
M  V30 8 C 5.069220 1.743890 -2.444716 0
M  V30 9 C 3.836278 1.473955 -1.885430 0
M  V30 10 N 2.675786 2.129879 -1.626861 0
M  V30 11 C 1.793039 1.301955 -1.039687 0
M  V30 12 C 0.431874 1.612453 -0.601438 0
M  V30 13 C -0.320528 0.615165 -0.015426 0
M  V30 14 C -1.603475 0.859150 0.411554 0
M  V30 15 C -2.363660 -0.229888 1.027172 0
M  V30 16 C -1.699935 -1.211479 1.769149 0
M  V30 17 N -2.682049 -2.048890 2.186965 0
M  V30 18 N -3.854459 -1.624564 1.743170 0
M  V30 19 C -5.121674 -2.302702 2.015727 0
M  V30 20 C -5.708641 -1.869334 3.334590 0
M  V30 21 C -6.384388 -3.071870 3.930315 0
M  V30 22 N -7.109455 -3.821924 2.922512 0
M  V30 23 C -6.198686 -4.531054 2.076157 0
M  V30 24 C -4.896335 -3.799940 2.034646 0
M  V30 25 C -3.718489 -0.499422 1.017312 0
M  V30 26 C -2.073639 2.142917 0.216593 0
M  V30 27 N -1.320792 3.099602 -0.357616 0
M  V30 28 C -0.062283 2.887291 -0.784464 0
M  V30 29 N 0.685262 3.938379 -1.384555 0
M  V30 30 O 2.410422 0.148652 -0.940547 0
M  V30 31 C 3.627691 0.182510 -1.424211 0
M  V30 32 C 4.585870 -0.812216 -1.504399 0
M  V30 33 H 8.642463 -0.964997 1.102459 0
M  V30 34 H 6.871328 -1.169206 1.069414 0
M  V30 35 H 7.574808 0.186705 0.155521 0
M  V30 36 H 7.009372 0.978117 -2.974444 0
M  V30 37 H 5.229061 2.746761 -2.801984 0
M  V30 38 H 0.104832 -0.371258 0.109432 0
M  V30 39 H -0.651119 -1.355312 2.010148 0
M  V30 40 H -5.882612 -2.093119 1.232789 0
M  V30 41 H -4.900503 -1.576394 4.051019 0
M  V30 42 H -6.438361 -1.066477 3.222297 0
M  V30 43 H -7.119706 -2.826063 4.720960 0
M  V30 44 H -5.672335 -3.776919 4.391042 0
M  V30 45 H -7.744875 -4.512107 3.372873 0
M  V30 46 H -6.627617 -4.562520 1.049636 0
M  V30 47 H -5.991821 -5.567003 2.419856 0
M  V30 48 H -4.267796 -4.008918 2.929802 0
M  V30 49 H -4.286707 -4.039056 1.136811 0
M  V30 50 H -4.449345 0.098818 0.519790 0
M  V30 51 H -3.091241 2.341084 0.553908 0
M  V30 52 H 1.179788 3.854900 -2.295608 0
M  V30 53 H 0.847340 4.904794 -1.027268 0
M  V30 54 H 4.370273 -1.814730 -1.125496 0
M  V30 END ATOM
M  V30 BEGIN BOND
M  V30 1 1 1 2
M  V30 2 2 2 3
M  V30 3 2 2 4
M  V30 4 1 2 5
M  V30 5 1 5 6
M  V30 6 2 6 7
M  V30 7 1 7 8
M  V30 8 2 8 9
M  V30 9 1 9 10
M  V30 10 2 10 11
M  V30 11 1 11 12
M  V30 12 2 12 13
M  V30 13 1 13 14
M  V30 14 1 14 15
M  V30 15 1 15 16
M  V30 16 2 16 17
M  V30 17 1 17 18
M  V30 18 1 18 19
M  V30 19 1 19 20
M  V30 20 1 20 21
M  V30 21 1 21 22
M  V30 22 1 22 23
M  V30 23 1 23 24
M  V30 24 1 18 25
M  V30 25 2 14 26
M  V30 26 1 26 27
M  V30 27 2 27 28
M  V30 28 1 28 29
M  V30 29 1 11 30
M  V30 30 1 30 31
M  V30 31 2 31 32
M  V30 32 1 32 6
M  V30 33 1 31 9
M  V30 34 1 28 12
M  V30 35 2 25 15
M  V30 36 1 24 19
M  V30 37 1 1 33
M  V30 38 1 1 34
M  V30 39 1 1 35
M  V30 40 1 7 36
M  V30 41 1 8 37
M  V30 42 1 13 38
M  V30 43 1 16 39
M  V30 44 1 19 40
M  V30 45 1 20 41
M  V30 46 1 20 42
M  V30 47 1 21 43
M  V30 48 1 21 44
M  V30 49 1 22 45
M  V30 50 1 23 46
M  V30 51 1 23 47
M  V30 52 1 24 48
M  V30 53 1 24 49
M  V30 54 1 25 50
M  V30 55 1 26 51
M  V30 56 1 29 52
M  V30 57 1 29 53
M  V30 58 1 32 54
M  V30 END BOND
M  V30 END CTAB
M  END
>  <Dataset>  (814) 
ChEMBL_Kinases

>  <Ligand_Instance>  (814) 
nan

>  <PDB_ID>  (814) 
nan

>  <Standardized_SMILES>  (814) 
CS(=O)(=O)Oc1ccc2nc(-c3cc(-c4cnn(C5CCNCC5)c4)cnc3N)oc2c1

>  <Name>  (814) 
nan

>  <Pocket>  (814) 
nan

>  <ATP_Site>  (814) 
nan

>  <Peripheral>  (814) 
nan

>  <Num_H_Atoms_ProtBoundConf>  (814) 
nan

>  <Num_Resolved_Atoms>  (814) 
nan

>  <Num_Not_Resolved_Atoms>  (814) 
nan

$$$$
CHEMBL3093162
     RDKit          3D

  0  0  0  0  0  0  0  0  0  0999 V3000
M  V30 BEGIN CTAB
M  V30 COUNTS 57 62 0 0 0
M  V30 BEGIN ATOM
M  V30 1 N 0.090019 -3.581983 5.010181 0
M  V30 2 C 0.778237 -2.367206 4.505770 0
M  V30 3 N 1.691518 -1.631752 5.093872 0
M  V30 4 C 2.234872 -0.567633 4.490409 0
M  V30 5 C 1.696189 -0.404046 3.229606 0
M  V30 6 C 2.277360 0.739829 2.476486 0
M  V30 7 C 3.572417 1.139211 2.638861 0
M  V30 8 N 3.661044 2.146987 1.754676 0
M  V30 9 N 2.530836 2.351013 1.109044 0
M  V30 10 C 2.320795 3.350878 0.070228 0
M  V30 11 C 2.778136 4.666912 0.555595 0
M  V30 12 C 1.619547 5.648818 0.614579 0
M  V30 13 N 1.118865 5.708685 -0.748722 0
M  V30 14 C 0.460593 4.519912 -1.171361 0
M  V30 15 C 0.964615 3.260180 -0.546405 0
M  V30 16 C 1.601702 1.474873 1.532062 0
M  V30 17 C 0.700424 -1.332116 2.782532 0
M  V30 18 C 0.059061 -2.548572 3.434836 0
M  V30 19 C -0.721751 -2.745375 2.271987 0
M  V30 20 N -1.333190 -3.918076 2.595701 0
M  V30 21 C -2.163271 -4.333615 1.620859 0
M  V30 22 C -3.055829 -5.334004 1.243998 0
M  V30 23 C -3.720925 -5.310044 0.046108 0
M  V30 24 C -3.517381 -4.277809 -0.821550 0
M  V30 25 O -4.158853 -4.173804 -2.064800 0
M  V30 26 C -3.586834 -4.508712 -3.261583 0
M  V30 27 C -2.293180 -4.962917 -3.207521 0
M  V30 28 C -1.569604 -5.335073 -4.297730 0
M  V30 29 Cl 0.096905 -5.916514 -4.258826 0
M  V30 30 C -2.228386 -5.233773 -5.539701 0
M  V30 31 C -3.541129 -4.773514 -5.590012 0
M  V30 32 N -4.215397 -4.412697 -4.458748 0
M  V30 33 C -2.645466 -3.236948 -0.533276 0
M  V30 34 C -2.021092 -3.338176 0.681700 0
M  V30 35 O -1.177444 -2.457099 1.113300 0
M  V30 36 H 0.366587 -3.911630 5.951206 0
M  V30 37 H 0.303159 -3.974999 5.933422 0
M  V30 38 H 2.957462 -0.054929 5.062153 0
M  V30 39 H 4.300649 0.722129 3.310897 0
M  V30 40 H 3.047164 3.024095 -0.739903 0
M  V30 41 H 3.531013 5.105448 -0.154770 0
M  V30 42 H 3.286565 4.582512 1.541069 0
M  V30 43 H 2.065245 6.650088 0.825241 0
M  V30 44 H 0.863570 5.322758 1.351058 0
M  V30 45 H 0.480187 6.518527 -0.843638 0
M  V30 46 H -0.643743 4.664974 -0.994222 0
M  V30 47 H 0.520019 4.484766 -2.286421 0
M  V30 48 H 0.241954 2.994898 0.251548 0
M  V30 49 H 0.933063 2.444963 -1.284440 0
M  V30 50 H 0.592278 1.301727 1.268875 0
M  V30 51 H 0.572831 -0.822059 1.760823 0
M  V30 52 H -3.155132 -6.118414 2.012938 0
M  V30 53 H -4.398707 -6.113170 -0.199738 0
M  V30 54 H -1.769968 -5.047740 -2.260693 0
M  V30 55 H -1.754749 -5.496818 -6.461847 0
M  V30 56 H -4.098273 -4.666951 -6.502189 0
M  V30 57 H -2.482564 -2.429767 -1.222434 0
M  V30 END ATOM
M  V30 BEGIN BOND
M  V30 1 1 1 2
M  V30 2 2 2 3
M  V30 3 1 3 4
M  V30 4 2 4 5
M  V30 5 1 5 6
M  V30 6 1 6 7
M  V30 7 2 7 8
M  V30 8 1 8 9
M  V30 9 1 9 10
M  V30 10 1 10 11
M  V30 11 1 11 12
M  V30 12 1 12 13
M  V30 13 1 13 14
M  V30 14 1 14 15
M  V30 15 1 9 16
M  V30 16 1 5 17
M  V30 17 2 17 18
M  V30 18 1 18 19
M  V30 19 2 19 20
M  V30 20 1 20 21
M  V30 21 2 21 22
M  V30 22 1 22 23
M  V30 23 2 23 24
M  V30 24 1 24 25
M  V30 25 1 25 26
M  V30 26 2 26 27
M  V30 27 1 27 28
M  V30 28 1 28 29
M  V30 29 2 28 30
M  V30 30 1 30 31
M  V30 31 2 31 32
M  V30 32 1 24 33
M  V30 33 2 33 34
M  V30 34 1 34 35
M  V30 35 1 18 2
M  V30 36 1 35 19
M  V30 37 2 16 6
M  V30 38 1 34 21
M  V30 39 1 15 10
M  V30 40 1 32 26
M  V30 41 1 1 36
M  V30 42 1 1 37
M  V30 43 1 4 38
M  V30 44 1 7 39
M  V30 45 1 10 40
M  V30 46 1 11 41
M  V30 47 1 11 42
M  V30 48 1 12 43
M  V30 49 1 12 44
M  V30 50 1 13 45
M  V30 51 1 14 46
M  V30 52 1 14 47
M  V30 53 1 15 48
M  V30 54 1 15 49
M  V30 55 1 16 50
M  V30 56 1 17 51
M  V30 57 1 22 52
M  V30 58 1 23 53
M  V30 59 1 27 54
M  V30 60 1 30 55
M  V30 61 1 31 56
M  V30 62 1 33 57
M  V30 END BOND
M  V30 END CTAB
M  END
>  <Dataset>  (815) 
ChEMBL_Kinases

>  <Ligand_Instance>  (815) 
nan

>  <PDB_ID>  (815) 
nan

>  <Standardized_SMILES>  (815) 
Nc1ncc(-c2cnn(C3CCNCC3)c2)cc1-c1nc2ccc(Oc3cc(Cl)ccn3)cc2o1

>  <Name>  (815) 
nan

>  <Pocket>  (815) 
nan

>  <ATP_Site>  (815) 
nan

>  <Peripheral>  (815) 
nan

>  <Num_H_Atoms_ProtBoundConf>  (815) 
nan

>  <Num_Resolved_Atoms>  (815) 
nan

>  <Num_Not_Resolved_Atoms>  (815) 
nan

$$$$
CHEMBL3093161
     RDKit          3D

  0  0  0  0  0  0  0  0  0  0999 V3000
M  V30 BEGIN CTAB
M  V30 COUNTS 58 63 0 0 0
M  V30 BEGIN ATOM
M  V30 1 N -1.739975 -1.916700 5.744967 0
M  V30 2 C -0.775540 -1.164928 5.021736 0
M  V30 3 N -0.004696 -0.253351 5.651252 0
M  V30 4 C 0.927106 0.491115 5.027647 0
M  V30 5 C 1.121269 0.329788 3.672735 0
M  V30 6 C 2.099640 1.061734 2.835247 0
M  V30 7 C 3.354025 1.567632 3.146967 0
M  V30 8 N 3.799353 2.129367 2.032638 0
M  V30 9 N 2.954098 2.030462 1.047072 0
M  V30 10 C 3.022311 2.494424 -0.337076 0
M  V30 11 C 3.786058 3.769921 -0.444894 0
M  V30 12 C 2.961684 4.986250 -0.738576 0
M  V30 13 N 2.077296 4.851566 -1.859779 0
M  V30 14 C 1.843233 3.469253 -2.227470 0
M  V30 15 C 1.638702 2.706027 -0.918911 0
M  V30 16 C 1.859471 1.365529 1.491314 0
M  V30 17 C 0.318324 -0.612122 3.046206 0
M  V30 18 C -0.628961 -1.372281 3.666812 0
M  V30 19 C -1.442394 -2.354457 2.920752 0
M  V30 20 N -2.387453 -3.146275 3.408382 0
M  V30 21 C -2.857476 -3.874829 2.353627 0
M  V30 22 C -3.811266 -4.856801 2.138520 0
M  V30 23 C -4.032704 -5.393130 0.894498 0
M  V30 24 C -3.304810 -4.972231 -0.214125 0
M  V30 25 O -3.460930 -5.459753 -1.515091 0
M  V30 26 C -2.683230 -4.958716 -2.574791 0
M  V30 27 C -1.459177 -5.439553 -2.980402 0
M  V30 28 C -0.831577 -4.826530 -4.042888 0
M  V30 29 C -1.361007 -3.752082 -4.729143 0
M  V30 30 F -0.709737 -3.178295 -5.769877 0
M  V30 31 C -2.582503 -3.321001 -4.275921 0
M  V30 32 C -3.268085 -3.879467 -3.225553 0
M  V30 33 C -2.358621 -3.997792 0.000203 0
M  V30 34 C -2.147843 -3.468966 1.256290 0
M  V30 35 O -1.311688 -2.560148 1.632046 0
M  V30 36 H -2.722234 -1.788290 6.068494 0
M  V30 37 H -1.370741 -2.863561 6.038241 0
M  V30 38 H 1.555282 1.225436 5.505518 0
M  V30 39 H 3.798951 1.474482 4.131105 0
M  V30 40 H 3.481586 1.694630 -0.990257 0
M  V30 41 H 4.534573 3.692596 -1.282453 0
M  V30 42 H 4.346824 3.988686 0.492891 0
M  V30 43 H 3.707164 5.784758 -1.023510 0
M  V30 44 H 2.472642 5.400266 0.169926 0
M  V30 45 H 1.168296 5.315007 -1.636486 0
M  V30 46 H 0.923952 3.410924 -2.821335 0
M  V30 47 H 2.748424 3.115800 -2.763398 0
M  V30 48 H 1.080919 3.344269 -0.227403 0
M  V30 49 H 1.133324 1.744563 -1.141528 0
M  V30 50 H 0.949879 1.104191 0.926808 0
M  V30 51 H 0.444354 -0.767282 1.971138 0
M  V30 52 H -4.378038 -5.186932 2.993332 0
M  V30 53 H -4.767948 -6.153027 0.716960 0
M  V30 54 H -1.066198 -6.281161 -2.426735 0
M  V30 55 H 0.134153 -5.205361 -4.364426 0
M  V30 56 H -3.042575 -2.474165 -4.786689 0
M  V30 57 H -4.226251 -3.466528 -2.944722 0
M  V30 58 H -1.764629 -3.640809 -0.852617 0
M  V30 END ATOM
M  V30 BEGIN BOND
M  V30 1 1 1 2
M  V30 2 2 2 3
M  V30 3 1 3 4
M  V30 4 2 4 5
M  V30 5 1 5 6
M  V30 6 1 6 7
M  V30 7 2 7 8
M  V30 8 1 8 9
M  V30 9 1 9 10
M  V30 10 1 10 11
M  V30 11 1 11 12
M  V30 12 1 12 13
M  V30 13 1 13 14
M  V30 14 1 14 15
M  V30 15 1 9 16
M  V30 16 1 5 17
M  V30 17 2 17 18
M  V30 18 1 18 19
M  V30 19 2 19 20
M  V30 20 1 20 21
M  V30 21 2 21 22
M  V30 22 1 22 23
M  V30 23 2 23 24
M  V30 24 1 24 25
M  V30 25 1 25 26
M  V30 26 2 26 27
M  V30 27 1 27 28
M  V30 28 2 28 29
M  V30 29 1 29 30
M  V30 30 1 29 31
M  V30 31 2 31 32
M  V30 32 1 24 33
M  V30 33 2 33 34
M  V30 34 1 34 35
M  V30 35 1 18 2
M  V30 36 1 35 19
M  V30 37 2 16 6
M  V30 38 1 34 21
M  V30 39 1 15 10
M  V30 40 1 32 26
M  V30 41 1 1 36
M  V30 42 1 1 37
M  V30 43 1 4 38
M  V30 44 1 7 39
M  V30 45 1 10 40
M  V30 46 1 11 41
M  V30 47 1 11 42
M  V30 48 1 12 43
M  V30 49 1 12 44
M  V30 50 1 13 45
M  V30 51 1 14 46
M  V30 52 1 14 47
M  V30 53 1 15 48
M  V30 54 1 15 49
M  V30 55 1 16 50
M  V30 56 1 17 51
M  V30 57 1 22 52
M  V30 58 1 23 53
M  V30 59 1 27 54
M  V30 60 1 28 55
M  V30 61 1 31 56
M  V30 62 1 32 57
M  V30 63 1 33 58
M  V30 END BOND
M  V30 END CTAB
M  END
>  <Dataset>  (816) 
ChEMBL_Kinases

>  <Ligand_Instance>  (816) 
nan

>  <PDB_ID>  (816) 
nan

>  <Standardized_SMILES>  (816) 
Nc1ncc(-c2cnn(C3CCNCC3)c2)cc1-c1nc2ccc(Oc3ccc(F)cc3)cc2o1

>  <Name>  (816) 
nan

>  <Pocket>  (816) 
nan

>  <ATP_Site>  (816) 
nan

>  <Peripheral>  (816) 
nan

>  <Num_H_Atoms_ProtBoundConf>  (816) 
nan

>  <Num_Resolved_Atoms>  (816) 
nan

>  <Num_Not_Resolved_Atoms>  (816) 
nan

$$$$
CHEMBL3093160
     RDKit          3D

  0  0  0  0  0  0  0  0  0  0999 V3000
M  V30 BEGIN CTAB
M  V30 COUNTS 61 66 0 0 0
M  V30 BEGIN ATOM
M  V30 1 N 1.588651 -3.645765 1.145713 0
M  V30 2 C 1.792613 -2.247748 1.241878 0
M  V30 3 N 3.043300 -1.748383 1.281771 0
M  V30 4 C 3.317000 -0.434126 1.372637 0
M  V30 5 C 2.242011 0.442458 1.427385 0
M  V30 6 C 2.559657 1.879687 1.525871 0
M  V30 7 C 1.782320 2.822696 2.173317 0
M  V30 8 N 2.409503 3.995903 2.035018 0
M  V30 9 N 3.523811 3.862646 1.348820 0
M  V30 10 C 4.599168 4.715949 0.880798 0
M  V30 11 C 4.407742 6.116271 1.410733 0
M  V30 12 C 3.236484 6.741773 0.686200 0
M  V30 13 N 3.595789 6.875307 -0.708182 0
M  V30 14 C 3.669471 5.561245 -1.286263 0
M  V30 15 C 4.716753 4.695571 -0.626237 0
M  V30 16 C 3.664169 2.549030 1.004897 0
M  V30 17 C 0.927174 0.009865 1.391741 0
M  V30 18 C 0.717348 -1.356614 1.297544 0
M  V30 19 C -0.655893 -1.847244 1.256096 0
M  V30 20 N -1.820717 -1.151548 1.297869 0
M  V30 21 C -2.876334 -1.983893 1.234456 0
M  V30 22 C -4.247306 -1.842952 1.236401 0
M  V30 23 C -5.031979 -2.985532 1.152685 0
M  V30 24 C -4.478356 -4.275305 1.066377 0
M  V30 25 O -5.504784 -5.150035 1.000091 0
M  V30 26 C -5.556430 -6.530440 0.898714 0
M  V30 27 C -4.922870 -7.082710 -0.321303 0
M  V30 28 C -3.669241 -7.583605 -0.590509 0
M  V30 29 C -3.359302 -8.021445 -1.857898 0
M  V30 30 C -4.239922 -7.997212 -2.920028 0
M  V30 31 F -3.792506 -8.461959 -4.110988 0
M  V30 32 C -5.505766 -7.494392 -2.657625 0
M  V30 33 C -5.835794 -7.048335 -1.385958 0
M  V30 34 C -3.108971 -4.337719 1.070148 0
M  V30 35 C -2.298837 -3.230207 1.151386 0
M  V30 36 O -0.992294 -3.134055 1.165275 0
M  V30 37 H 1.083743 -4.388487 1.658050 0
M  V30 38 H 2.073073 -4.087917 0.335315 0
M  V30 39 H 4.320544 -0.050362 1.403268 0
M  V30 40 H 0.848131 2.661512 2.694450 0
M  V30 41 H 5.561599 4.336789 1.286815 0
M  V30 42 H 5.306785 6.715670 1.139638 0
M  V30 43 H 4.249733 6.020073 2.497325 0
M  V30 44 H 2.933723 7.704104 1.150540 0
M  V30 45 H 2.364096 6.032910 0.702145 0
M  V30 46 H 4.400566 7.488783 -0.897778 0
M  V30 47 H 3.911991 5.659428 -2.356215 0
M  V30 48 H 2.661490 5.113881 -1.216334 0
M  V30 49 H 5.728075 5.011807 -0.951479 0
M  V30 50 H 4.579012 3.650857 -0.977974 0
M  V30 51 H 4.411272 1.968138 0.447076 0
M  V30 52 H 0.098958 0.713896 1.436068 0
M  V30 53 H -4.564947 -0.825125 1.305243 0
M  V30 54 H -6.088743 -2.671344 1.168639 0
M  V30 55 H -6.596916 -6.932959 1.032134 0
M  V30 56 H -4.999843 -6.963820 1.779443 0
M  V30 57 H -3.055355 -7.576253 0.274420 0
M  V30 58 H -2.328445 -8.388045 -1.907590 0
M  V30 59 H -6.172086 -7.486849 -3.502761 0
M  V30 60 H -6.874055 -6.685285 -1.359953 0
M  V30 61 H -2.775878 -5.359195 1.006116 0
M  V30 END ATOM
M  V30 BEGIN BOND
M  V30 1 1 1 2
M  V30 2 2 2 3
M  V30 3 1 3 4
M  V30 4 2 4 5
M  V30 5 1 5 6
M  V30 6 1 6 7
M  V30 7 2 7 8
M  V30 8 1 8 9
M  V30 9 1 9 10
M  V30 10 1 10 11
M  V30 11 1 11 12
M  V30 12 1 12 13
M  V30 13 1 13 14
M  V30 14 1 14 15
M  V30 15 1 9 16
M  V30 16 1 5 17
M  V30 17 2 17 18
M  V30 18 1 18 19
M  V30 19 2 19 20
M  V30 20 1 20 21
M  V30 21 2 21 22
M  V30 22 1 22 23
M  V30 23 2 23 24
M  V30 24 1 24 25
M  V30 25 1 25 26
M  V30 26 1 26 27
M  V30 27 2 27 28
M  V30 28 1 28 29
M  V30 29 2 29 30
M  V30 30 1 30 31
M  V30 31 1 30 32
M  V30 32 2 32 33
M  V30 33 1 24 34
M  V30 34 2 34 35
M  V30 35 1 35 36
M  V30 36 1 18 2
M  V30 37 1 36 19
M  V30 38 2 16 6
M  V30 39 1 35 21
M  V30 40 1 15 10
M  V30 41 1 33 27
M  V30 42 1 1 37
M  V30 43 1 1 38
M  V30 44 1 4 39
M  V30 45 1 7 40
M  V30 46 1 10 41
M  V30 47 1 11 42
M  V30 48 1 11 43
M  V30 49 1 12 44
M  V30 50 1 12 45
M  V30 51 1 13 46
M  V30 52 1 14 47
M  V30 53 1 14 48
M  V30 54 1 15 49
M  V30 55 1 15 50
M  V30 56 1 16 51
M  V30 57 1 17 52
M  V30 58 1 22 53
M  V30 59 1 23 54
M  V30 60 1 26 55
M  V30 61 1 26 56
M  V30 62 1 28 57
M  V30 63 1 29 58
M  V30 64 1 32 59
M  V30 65 1 33 60
M  V30 66 1 34 61
M  V30 END BOND
M  V30 END CTAB
M  END
>  <Dataset>  (817) 
ChEMBL_Kinases

>  <Ligand_Instance>  (817) 
nan

>  <PDB_ID>  (817) 
nan

>  <Standardized_SMILES>  (817) 
Nc1ncc(-c2cnn(C3CCNCC3)c2)cc1-c1nc2ccc(OCc3ccc(F)cc3)cc2o1

>  <Name>  (817) 
nan

>  <Pocket>  (817) 
nan

>  <ATP_Site>  (817) 
nan

>  <Peripheral>  (817) 
nan

>  <Num_H_Atoms_ProtBoundConf>  (817) 
nan

>  <Num_Resolved_Atoms>  (817) 
nan

>  <Num_Not_Resolved_Atoms>  (817) 
nan

$$$$
CHEMBL3093158
     RDKit          3D

  0  0  0  0  0  0  0  0  0  0999 V3000
M  V30 BEGIN CTAB
M  V30 COUNTS 58 63 0 0 0
M  V30 BEGIN ATOM
M  V30 1 N -1.319698 3.128369 3.925637 0
M  V30 2 C -0.327288 2.260762 3.398815 0
M  V30 3 N 0.634783 1.849550 4.273570 0
M  V30 4 C 1.626799 1.014196 3.850774 0
M  V30 5 C 1.655937 0.585709 2.537065 0
M  V30 6 C 2.675606 -0.309180 1.981590 0
M  V30 7 C 4.021046 -0.480475 2.279455 0
M  V30 8 N 4.514841 -1.452062 1.458145 0
M  V30 9 N 3.546044 -1.888035 0.670840 0
M  V30 10 C 3.597995 -2.906470 -0.356182 0
M  V30 11 C 4.907523 -2.946212 -1.104089 0
M  V30 12 C 4.646754 -3.683395 -2.412672 0
M  V30 13 N 3.436664 -4.438871 -2.325033 0
M  V30 14 C 3.251024 -5.175666 -1.112118 0
M  V30 15 C 3.329042 -4.293940 0.141096 0
M  V30 16 C 2.411322 -1.222493 0.953361 0
M  V30 17 C 0.645379 1.036937 1.680362 0
M  V30 18 C -0.364587 1.880686 2.089237 0
M  V30 19 C -1.396102 2.325533 1.158265 0
M  V30 20 N -2.428697 3.126145 1.367339 0
M  V30 21 C -3.154302 3.293840 0.246045 0
M  V30 22 C -4.265179 3.946023 -0.200940 0
M  V30 23 C -4.714696 3.860242 -1.504615 0
M  V30 24 C -4.048127 3.095598 -2.435190 0
M  V30 25 O -4.454759 2.975421 -3.751946 0
M  V30 26 C -5.337153 1.995947 -4.205893 0
M  V30 27 C -5.878048 1.052876 -3.325039 0
M  V30 28 C -6.732565 0.134615 -3.866637 0
M  V30 29 C -7.052187 0.129957 -5.214625 0
M  V30 30 C -6.524785 1.055140 -6.092396 0
M  V30 31 C -5.650286 1.996449 -5.543754 0
M  V30 32 C -2.929266 2.433590 -2.001504 0
M  V30 33 C -2.479227 2.518433 -0.699762 0
M  V30 34 O -1.463504 1.979706 -0.106555 0
M  V30 35 H -2.335839 3.249036 3.740612 0
M  V30 36 H -1.263971 3.869709 4.642009 0
M  V30 37 H 2.400071 0.671001 4.513264 0
M  V30 38 H 4.517915 0.098855 3.047526 0
M  V30 39 H 2.818804 -2.715555 -1.150761 0
M  V30 40 H 5.621666 -3.619562 -0.548079 0
M  V30 41 H 5.384354 -1.973155 -1.237132 0
M  V30 42 H 5.488729 -4.309383 -2.719812 0
M  V30 43 H 4.457040 -2.879729 -3.182632 0
M  V30 44 H 2.594956 -4.002924 -2.724164 0
M  V30 45 H 2.201700 -5.563019 -1.139563 0
M  V30 46 H 4.000727 -5.988801 -1.071799 0
M  V30 47 H 2.393226 -4.295509 0.717257 0
M  V30 48 H 4.210520 -4.656050 0.739039 0
M  V30 49 H 1.434009 -1.349474 0.479705 0
M  V30 50 H 0.670058 0.701027 0.654351 0
M  V30 51 H -4.788862 4.546192 0.529477 0
M  V30 52 H -5.602238 4.386772 -1.843326 0
M  V30 53 H -5.557398 1.155954 -2.306200 0
M  V30 54 H -7.135208 -0.580212 -3.169244 0
M  V30 55 H -7.747243 -0.664452 -5.496096 0
M  V30 56 H -6.824615 0.978666 -7.114771 0
M  V30 57 H -5.251043 2.710048 -6.253987 0
M  V30 58 H -2.354863 1.806826 -2.698572 0
M  V30 END ATOM
M  V30 BEGIN BOND
M  V30 1 1 1 2
M  V30 2 2 2 3
M  V30 3 1 3 4
M  V30 4 2 4 5
M  V30 5 1 5 6
M  V30 6 1 6 7
M  V30 7 2 7 8
M  V30 8 1 8 9
M  V30 9 1 9 10
M  V30 10 1 10 11
M  V30 11 1 11 12
M  V30 12 1 12 13
M  V30 13 1 13 14
M  V30 14 1 14 15
M  V30 15 1 9 16
M  V30 16 1 5 17
M  V30 17 2 17 18
M  V30 18 1 18 19
M  V30 19 2 19 20
M  V30 20 1 20 21
M  V30 21 2 21 22
M  V30 22 1 22 23
M  V30 23 2 23 24
M  V30 24 1 24 25
M  V30 25 1 25 26
M  V30 26 2 26 27
M  V30 27 1 27 28
M  V30 28 2 28 29
M  V30 29 1 29 30
M  V30 30 2 30 31
M  V30 31 1 24 32
M  V30 32 2 32 33
M  V30 33 1 33 34
M  V30 34 1 18 2
M  V30 35 1 34 19
M  V30 36 2 16 6
M  V30 37 1 33 21
M  V30 38 1 15 10
M  V30 39 1 31 26
M  V30 40 1 1 35
M  V30 41 1 1 36
M  V30 42 1 4 37
M  V30 43 1 7 38
M  V30 44 1 10 39
M  V30 45 1 11 40
M  V30 46 1 11 41
M  V30 47 1 12 42
M  V30 48 1 12 43
M  V30 49 1 13 44
M  V30 50 1 14 45
M  V30 51 1 14 46
M  V30 52 1 15 47
M  V30 53 1 15 48
M  V30 54 1 16 49
M  V30 55 1 17 50
M  V30 56 1 22 51
M  V30 57 1 23 52
M  V30 58 1 27 53
M  V30 59 1 28 54
M  V30 60 1 29 55
M  V30 61 1 30 56
M  V30 62 1 31 57
M  V30 63 1 32 58
M  V30 END BOND
M  V30 END CTAB
M  END
>  <Dataset>  (818) 
ChEMBL_Kinases

>  <Ligand_Instance>  (818) 
nan

>  <PDB_ID>  (818) 
nan

>  <Standardized_SMILES>  (818) 
Nc1ncc(-c2cnn(C3CCNCC3)c2)cc1-c1nc2ccc(Oc3ccccc3)cc2o1

>  <Name>  (818) 
nan

>  <Pocket>  (818) 
nan

>  <ATP_Site>  (818) 
nan

>  <Peripheral>  (818) 
nan

>  <Num_H_Atoms_ProtBoundConf>  (818) 
nan

>  <Num_Resolved_Atoms>  (818) 
nan

>  <Num_Not_Resolved_Atoms>  (818) 
nan

$$$$
CHEMBL3093157
     RDKit          3D

  0  0  0  0  0  0  0  0  0  0999 V3000
M  V30 BEGIN CTAB
M  V30 COUNTS 61 66 0 0 0
M  V30 BEGIN ATOM
M  V30 1 N 2.615071 -3.092784 1.389583 0
M  V30 2 C 2.457414 -1.675219 1.581296 0
M  V30 3 N 3.122923 -0.976999 2.518117 0
M  V30 4 C 2.927626 0.345734 2.642748 0
M  V30 5 C 2.050513 1.031218 1.828066 0
M  V30 6 C 1.958366 2.465555 2.097803 0
M  V30 7 C 2.993995 3.252791 2.560510 0
M  V30 8 N 2.487369 4.513261 2.674496 0
M  V30 9 N 1.227586 4.528507 2.312892 0
M  V30 10 C 0.321772 5.661965 2.284822 0
M  V30 11 C 0.566109 6.577735 3.433812 0
M  V30 12 C -0.636780 7.353478 3.887986 0
M  V30 13 N -1.489758 7.580039 2.736867 0
M  V30 14 C -2.096007 6.309889 2.380607 0
M  V30 15 C -1.116146 5.205763 2.181933 0
M  V30 16 C 0.848986 3.272121 1.943349 0
M  V30 17 C 1.356391 0.335751 0.859578 0
M  V30 18 C 1.567449 -1.041028 0.738576 0
M  V30 19 C 0.801205 -1.715371 -0.308583 0
M  V30 20 N -0.096453 -1.281590 -1.212362 0
M  V30 21 C -0.520278 -2.329633 -1.970101 0
M  V30 22 C -1.403299 -2.492293 -3.015148 0
M  V30 23 C -1.576608 -3.777740 -3.551322 0
M  V30 24 C -0.885206 -4.901205 -3.063463 0
M  V30 25 O -1.285462 -5.966505 -3.799477 0
M  V30 26 C -0.933667 -7.309649 -3.747194 0
M  V30 27 C -1.232477 -8.004669 -2.474750 0
M  V30 28 C -0.469137 -8.263568 -1.366017 0
M  V30 29 C -0.990748 -8.929654 -0.278581 0
M  V30 30 C -2.293945 -9.376540 -0.226897 0
M  V30 31 C -3.075109 -9.124294 -1.334655 0
M  V30 32 C -2.558454 -8.457809 -2.426093 0
M  V30 33 C -0.031303 -4.659283 -2.030936 0
M  V30 34 C 0.167750 -3.416233 -1.476565 0
M  V30 35 O 0.930848 -3.027494 -0.508049 0
M  V30 36 H 1.700313 -3.491399 1.741094 0
M  V30 37 H 1.749661 -3.616908 1.709164 0
M  V30 38 H 3.526610 0.776905 3.434099 0
M  V30 39 H 3.989827 2.866769 2.769343 0
M  V30 40 H 0.524708 6.226557 1.342949 0
M  V30 41 H 1.410859 7.275350 3.164622 0
M  V30 42 H 0.934669 5.968695 4.300026 0
M  V30 43 H -0.301398 8.339291 4.249103 0
M  V30 44 H -1.177192 6.767723 4.653156 0
M  V30 45 H -0.882795 7.908740 1.949162 0
M  V30 46 H -2.873832 6.061647 3.117887 0
M  V30 47 H -2.638418 6.479677 1.421424 0
M  V30 48 H -1.277846 4.690879 1.220000 0
M  V30 49 H -1.296116 4.441391 2.975516 0
M  V30 50 H -0.094770 2.888541 1.590735 0
M  V30 51 H 0.688829 0.942380 0.261998 0
M  V30 52 H -1.882121 -1.597374 -3.322173 0
M  V30 53 H -2.313545 -3.704218 -4.368123 0
M  V30 54 H -1.463880 -7.800190 -4.610480 0
M  V30 55 H 0.156147 -7.477241 -3.954628 0
M  V30 56 H 0.536720 -7.901081 -1.465064 0
M  V30 57 H -0.262756 -9.060332 0.524953 0
M  V30 58 H -2.568244 -9.883320 0.687832 0
M  V30 59 H -4.094340 -9.481278 -1.278398 0
M  V30 60 H -3.290062 -8.331681 -3.222520 0
M  V30 61 H 0.460625 -5.564385 -1.719096 0
M  V30 END ATOM
M  V30 BEGIN BOND
M  V30 1 1 1 2
M  V30 2 2 2 3
M  V30 3 1 3 4
M  V30 4 2 4 5
M  V30 5 1 5 6
M  V30 6 1 6 7
M  V30 7 2 7 8
M  V30 8 1 8 9
M  V30 9 1 9 10
M  V30 10 1 10 11
M  V30 11 1 11 12
M  V30 12 1 12 13
M  V30 13 1 13 14
M  V30 14 1 14 15
M  V30 15 1 9 16
M  V30 16 1 5 17
M  V30 17 2 17 18
M  V30 18 1 18 19
M  V30 19 2 19 20
M  V30 20 1 20 21
M  V30 21 2 21 22
M  V30 22 1 22 23
M  V30 23 2 23 24
M  V30 24 1 24 25
M  V30 25 1 25 26
M  V30 26 1 26 27
M  V30 27 2 27 28
M  V30 28 1 28 29
M  V30 29 2 29 30
M  V30 30 1 30 31
M  V30 31 2 31 32
M  V30 32 1 24 33
M  V30 33 2 33 34
M  V30 34 1 34 35
M  V30 35 1 18 2
M  V30 36 1 35 19
M  V30 37 2 16 6
M  V30 38 1 34 21
M  V30 39 1 15 10
M  V30 40 1 32 27
M  V30 41 1 1 36
M  V30 42 1 1 37
M  V30 43 1 4 38
M  V30 44 1 7 39
M  V30 45 1 10 40
M  V30 46 1 11 41
M  V30 47 1 11 42
M  V30 48 1 12 43
M  V30 49 1 12 44
M  V30 50 1 13 45
M  V30 51 1 14 46
M  V30 52 1 14 47
M  V30 53 1 15 48
M  V30 54 1 15 49
M  V30 55 1 16 50
M  V30 56 1 17 51
M  V30 57 1 22 52
M  V30 58 1 23 53
M  V30 59 1 26 54
M  V30 60 1 26 55
M  V30 61 1 28 56
M  V30 62 1 29 57
M  V30 63 1 30 58
M  V30 64 1 31 59
M  V30 65 1 32 60
M  V30 66 1 33 61
M  V30 END BOND
M  V30 END CTAB
M  END
>  <Dataset>  (819) 
ChEMBL_Kinases

>  <Ligand_Instance>  (819) 
nan

>  <PDB_ID>  (819) 
nan

>  <Standardized_SMILES>  (819) 
Nc1ncc(-c2cnn(C3CCNCC3)c2)cc1-c1nc2ccc(OCc3ccccc3)cc2o1

>  <Name>  (819) 
nan

>  <Pocket>  (819) 
nan

>  <ATP_Site>  (819) 
nan

>  <Peripheral>  (819) 
nan

>  <Num_H_Atoms_ProtBoundConf>  (819) 
nan

>  <Num_Resolved_Atoms>  (819) 
nan

>  <Num_Not_Resolved_Atoms>  (819) 
nan

$$$$
CHEMBL3093154
     RDKit          3D

  0  0  0  0  0  0  0  0  0  0999 V3000
M  V30 BEGIN CTAB
M  V30 COUNTS 59 64 0 0 0
M  V30 BEGIN ATOM
M  V30 1 N 0.667942 -3.057508 4.907849 0
M  V30 2 C 1.144954 -1.824233 4.398603 0
M  V30 3 N 1.977385 -1.018648 5.098068 0
M  V30 4 C 2.439869 0.155090 4.630709 0
M  V30 5 C 2.074512 0.612010 3.368559 0
M  V30 6 C 2.536648 1.882745 2.786347 0
M  V30 7 C 2.844670 3.075024 3.446041 0
M  V30 8 N 3.214436 3.925881 2.476471 0
M  V30 9 N 3.168057 3.387852 1.287245 0
M  V30 10 C 3.486784 3.969705 -0.007354 0
M  V30 11 C 4.069068 5.338238 0.136926 0
M  V30 12 C 3.386829 6.308081 -0.776206 0
M  V30 13 N 3.279127 5.757518 -2.121012 0
M  V30 14 C 2.280830 4.721813 -2.093227 0
M  V30 15 C 2.166612 4.019106 -0.782280 0
M  V30 16 C 2.749572 2.114592 1.442565 0
M  V30 17 C 1.214176 -0.198326 2.619495 0
M  V30 18 C 0.765733 -1.395487 3.142146 0
M  V30 19 C -0.130359 -2.177981 2.289871 0
M  V30 20 N -0.592650 -1.909508 1.057767 0
M  V30 21 C -1.401133 -2.886702 0.608779 0
M  V30 22 C -2.081251 -3.016140 -0.585556 0
M  V30 23 C -2.839465 -4.171821 -0.724317 0
M  V30 24 C -2.906389 -5.129579 0.272797 0
M  V30 25 N -3.706343 -6.297997 0.065920 0
M  V30 26 C -4.387988 -6.374944 -1.191138 0
M  V30 27 C -3.616490 -7.006045 -2.159762 0
M  V30 28 F -2.359512 -7.501851 -1.962309 0
M  V30 29 C -4.142576 -7.155892 -3.433792 0
M  V30 30 C -5.405070 -6.704622 -3.787887 0
M  V30 31 C -6.125385 -6.087051 -2.788748 0
M  V30 32 C -5.649473 -5.909710 -1.496579 0
M  V30 33 F -6.300241 -5.321336 -0.492637 0
M  V30 34 C -2.195754 -4.938061 1.454324 0
M  V30 35 C -1.420831 -3.809783 1.658301 0
M  V30 36 O -0.659473 -3.350325 2.624152 0
M  V30 37 H 1.165795 -3.977793 4.720163 0
M  V30 38 H -0.205324 -3.150765 5.503110 0
M  V30 39 H 3.107040 0.784592 5.209769 0
M  V30 40 H 2.768144 3.183906 4.515173 0
M  V30 41 H 4.141871 3.293317 -0.606452 0
M  V30 42 H 5.144941 5.282022 -0.157491 0
M  V30 43 H 3.945557 5.725155 1.171526 0
M  V30 44 H 3.974392 7.258186 -0.885233 0
M  V30 45 H 2.351505 6.491313 -0.402366 0
M  V30 46 H 4.166425 5.336901 -2.450289 0
M  V30 47 H 1.293923 5.206131 -2.295395 0
M  V30 48 H 2.415068 3.983827 -2.933136 0
M  V30 49 H 1.843291 2.969552 -0.978733 0
M  V30 50 H 1.362601 4.448393 -0.119526 0
M  V30 51 H 2.595686 1.370739 0.661961 0
M  V30 52 H 0.931717 0.163329 1.634839 0
M  V30 53 H -1.998426 -2.240792 -1.335850 0
M  V30 54 H -3.379296 -4.275790 -1.670932 0
M  V30 55 H -3.752723 -7.020090 0.824811 0
M  V30 56 H -3.563663 -7.648121 -4.224190 0
M  V30 57 H -5.803907 -6.827029 -4.783212 0
M  V30 58 H -7.131770 -5.704100 -2.993088 0
M  V30 59 H -2.250799 -5.691923 2.233957 0
M  V30 END ATOM
M  V30 BEGIN BOND
M  V30 1 1 1 2
M  V30 2 2 2 3
M  V30 3 1 3 4
M  V30 4 2 4 5
M  V30 5 1 5 6
M  V30 6 1 6 7
M  V30 7 2 7 8
M  V30 8 1 8 9
M  V30 9 1 9 10
M  V30 10 1 10 11
M  V30 11 1 11 12
M  V30 12 1 12 13
M  V30 13 1 13 14
M  V30 14 1 14 15
M  V30 15 1 9 16
M  V30 16 1 5 17
M  V30 17 2 17 18
M  V30 18 1 18 19
M  V30 19 2 19 20
M  V30 20 1 20 21
M  V30 21 2 21 22
M  V30 22 1 22 23
M  V30 23 2 23 24
M  V30 24 1 24 25
M  V30 25 1 25 26
M  V30 26 2 26 27
M  V30 27 1 27 28
M  V30 28 1 27 29
M  V30 29 2 29 30
M  V30 30 1 30 31
M  V30 31 2 31 32
M  V30 32 1 32 33
M  V30 33 1 24 34
M  V30 34 2 34 35
M  V30 35 1 35 36
M  V30 36 1 18 2
M  V30 37 1 36 19
M  V30 38 2 16 6
M  V30 39 1 35 21
M  V30 40 1 15 10
M  V30 41 1 32 26
M  V30 42 1 1 37
M  V30 43 1 1 38
M  V30 44 1 4 39
M  V30 45 1 7 40
M  V30 46 1 10 41
M  V30 47 1 11 42
M  V30 48 1 11 43
M  V30 49 1 12 44
M  V30 50 1 12 45
M  V30 51 1 13 46
M  V30 52 1 14 47
M  V30 53 1 14 48
M  V30 54 1 15 49
M  V30 55 1 15 50
M  V30 56 1 16 51
M  V30 57 1 17 52
M  V30 58 1 22 53
M  V30 59 1 23 54
M  V30 60 1 25 55
M  V30 61 1 29 56
M  V30 62 1 30 57
M  V30 63 1 31 58
M  V30 64 1 34 59
M  V30 END BOND
M  V30 END CTAB
M  END
>  <Dataset>  (820) 
ChEMBL_Kinases

>  <Ligand_Instance>  (820) 
nan

>  <PDB_ID>  (820) 
nan

>  <Standardized_SMILES>  (820) 
Nc1ncc(-c2cnn(C3CCNCC3)c2)cc1-c1nc2ccc(Nc3c(F)cccc3F)cc2o1

>  <Name>  (820) 
nan

>  <Pocket>  (820) 
nan

>  <ATP_Site>  (820) 
nan

>  <Peripheral>  (820) 
nan

>  <Num_H_Atoms_ProtBoundConf>  (820) 
nan

>  <Num_Resolved_Atoms>  (820) 
nan

>  <Num_Not_Resolved_Atoms>  (820) 
nan

$$$$
CHEMBL3093148
     RDKit          3D

  0  0  0  0  0  0  0  0  0  0999 V3000
M  V30 BEGIN CTAB
M  V30 COUNTS 57 62 0 0 0
M  V30 BEGIN ATOM
M  V30 1 N 0.286246 -4.627916 2.978787 0
M  V30 2 C 0.904626 -3.340935 3.014351 0
M  V30 3 N 1.834543 -3.033215 3.939287 0
M  V30 4 C 2.396956 -1.800522 3.938278 0
M  V30 5 C 1.991358 -0.895419 2.979353 0
M  V30 6 C 2.515461 0.462055 2.866384 0
M  V30 7 C 2.970311 1.322685 3.869247 0
M  V30 8 N 3.365175 2.482188 3.300323 0
M  V30 9 N 3.194106 2.425562 1.988251 0
M  V30 10 C 3.488057 3.453992 0.993777 0
M  V30 11 C 4.496287 4.425120 1.541936 0
M  V30 12 C 3.911417 5.769304 1.894677 0
M  V30 13 N 3.254948 6.406225 0.795581 0
M  V30 14 C 2.572487 5.475364 -0.076528 0
M  V30 15 C 2.225236 4.198461 0.676086 0
M  V30 16 C 2.683444 1.216109 1.711632 0
M  V30 17 C 1.036898 -1.214666 2.032370 0
M  V30 18 C 0.462510 -2.477773 2.035054 0
M  V30 19 C -0.544303 -2.840590 1.046027 0
M  V30 20 N -1.188528 -3.993067 0.902722 0
M  V30 21 C -2.043455 -3.895901 -0.153153 0
M  V30 22 C -2.972766 -4.698693 -0.816988 0
M  V30 23 C -3.651837 -4.164873 -1.898100 0
M  V30 24 C -4.621261 -5.005036 -2.588135 0
M  V30 25 C -5.390801 -5.982011 -2.005717 0
M  V30 26 C -6.306331 -6.779230 -2.643155 0
M  V30 27 C -6.429152 -6.536492 -4.003861 0
M  V30 28 C -5.720027 -5.589808 -4.709410 0
M  V30 29 C -4.824744 -4.844075 -3.961424 0
M  V30 30 C -3.466123 -2.879255 -2.363384 0
M  V30 31 C -2.546088 -2.050705 -1.724033 0
M  V30 32 C -1.871571 -2.610540 -0.634629 0
M  V30 33 O -0.979083 -2.033239 0.106197 0
M  V30 34 H -0.629204 -4.528663 3.458177 0
M  V30 35 H -0.641565 -4.732475 3.408436 0
M  V30 36 H 3.150917 -1.483510 4.651349 0
M  V30 37 H 2.996147 1.085289 4.914243 0
M  V30 38 H 3.814979 2.959574 0.053944 0
M  V30 39 H 4.906015 4.013352 2.495379 0
M  V30 40 H 5.278831 4.531151 0.783034 0
M  V30 41 H 3.228950 5.679844 2.752297 0
M  V30 42 H 4.775709 6.415132 2.176278 0
M  V30 43 H 3.857606 7.033727 0.253756 0
M  V30 44 H 3.170359 5.233535 -0.958682 0
M  V30 45 H 1.621618 5.997639 -0.374963 0
M  V30 46 H 1.523712 3.630545 0.033888 0
M  V30 47 H 1.672540 4.510540 1.589399 0
M  V30 48 H 2.413798 0.812344 0.743183 0
M  V30 49 H 0.698991 -0.509743 1.259132 0
M  V30 50 H -3.095668 -5.688130 -0.435602 0
M  V30 51 H -5.250692 -6.126995 -0.937114 0
M  V30 52 H -6.883808 -7.532523 -2.133158 0
M  V30 53 H -7.140445 -7.127514 -4.601249 0
M  V30 54 H -5.839168 -5.427838 -5.762097 0
M  V30 55 H -4.230688 -4.076957 -4.457574 0
M  V30 56 H -4.000646 -2.472818 -3.206426 0
M  V30 57 H -2.370269 -1.052366 -2.046343 0
M  V30 END ATOM
M  V30 BEGIN BOND
M  V30 1 1 1 2
M  V30 2 2 2 3
M  V30 3 1 3 4
M  V30 4 2 4 5
M  V30 5 1 5 6
M  V30 6 1 6 7
M  V30 7 2 7 8
M  V30 8 1 8 9
M  V30 9 1 9 10
M  V30 10 1 10 11
M  V30 11 1 11 12
M  V30 12 1 12 13
M  V30 13 1 13 14
M  V30 14 1 14 15
M  V30 15 1 9 16
M  V30 16 1 5 17
M  V30 17 2 17 18
M  V30 18 1 18 19
M  V30 19 2 19 20
M  V30 20 1 20 21
M  V30 21 2 21 22
M  V30 22 1 22 23
M  V30 23 1 23 24
M  V30 24 2 24 25
M  V30 25 1 25 26
M  V30 26 2 26 27
M  V30 27 1 27 28
M  V30 28 2 28 29
M  V30 29 2 23 30
M  V30 30 1 30 31
M  V30 31 2 31 32
M  V30 32 1 32 33
M  V30 33 1 18 2
M  V30 34 1 33 19
M  V30 35 2 16 6
M  V30 36 1 32 21
M  V30 37 1 15 10
M  V30 38 1 29 24
M  V30 39 1 1 34
M  V30 40 1 1 35
M  V30 41 1 4 36
M  V30 42 1 7 37
M  V30 43 1 10 38
M  V30 44 1 11 39
M  V30 45 1 11 40
M  V30 46 1 12 41
M  V30 47 1 12 42
M  V30 48 1 13 43
M  V30 49 1 14 44
M  V30 50 1 14 45
M  V30 51 1 15 46
M  V30 52 1 15 47
M  V30 53 1 16 48
M  V30 54 1 17 49
M  V30 55 1 22 50
M  V30 56 1 25 51
M  V30 57 1 26 52
M  V30 58 1 27 53
M  V30 59 1 28 54
M  V30 60 1 29 55
M  V30 61 1 30 56
M  V30 62 1 31 57
M  V30 END BOND
M  V30 END CTAB
M  END
>  <Dataset>  (821) 
ChEMBL_Kinases

>  <Ligand_Instance>  (821) 
nan

>  <PDB_ID>  (821) 
nan

>  <Standardized_SMILES>  (821) 
Nc1ncc(-c2cnn(C3CCNCC3)c2)cc1-c1nc2cc(-c3ccccc3)ccc2o1

>  <Name>  (821) 
nan

>  <Pocket>  (821) 
nan

>  <ATP_Site>  (821) 
nan

>  <Peripheral>  (821) 
nan

>  <Num_H_Atoms_ProtBoundConf>  (821) 
nan

>  <Num_Resolved_Atoms>  (821) 
nan

>  <Num_Not_Resolved_Atoms>  (821) 
nan

$$$$
CHEMBL3113146
     RDKit          3D

  0  0  0  0  0  0  0  0  0  0999 V3000
M  V30 BEGIN CTAB
M  V30 COUNTS 50 53 0 0 0
M  V30 BEGIN ATOM
M  V30 1 Cl 0.771788 -7.318005 1.759244 0
M  V30 2 C 0.834569 -5.559946 1.598991 0
M  V30 3 C 2.010556 -4.985578 1.160577 0
M  V30 4 C 2.082181 -3.611714 1.027677 0
M  V30 5 C 0.967893 -2.860100 1.340369 0
M  V30 6 C 1.029018 -1.362736 1.200636 0
M  V30 7 N 1.656314 -1.080160 -0.059078 0
M  V30 8 C 1.791256 0.334415 -0.355884 0
M  V30 9 C 2.439742 0.555741 -1.665594 0
M  V30 10 C 3.508945 1.582433 -1.752741 0
M  V30 11 C 4.305242 1.763176 -0.485474 0
M  V30 12 C 3.268067 2.174893 0.557978 0
M  V30 13 C 2.460705 0.954138 0.829871 0
M  V30 14 C -0.359699 -0.870249 1.158694 0
M  V30 15 C -0.901394 -0.143750 2.203728 0
M  V30 16 C -2.197070 0.331728 2.199810 0
M  V30 17 C -3.006233 0.079683 1.108098 0
M  V30 18 C -4.401526 0.521552 0.963074 0
M  V30 19 C -5.047511 0.842658 -0.234293 0
M  V30 20 N -6.311552 1.199077 0.060305 0
M  V30 21 N -6.514925 1.126572 1.367303 0
M  V30 22 C -5.373887 0.718848 1.935292 0
M  V30 23 C -2.505528 -0.650539 0.025550 0
M  V30 24 C -1.184532 -1.108617 0.082825 0
M  V30 25 C -0.201855 -3.473462 1.779806 0
M  V30 26 C -0.297675 -4.842862 1.920344 0
M  V30 27 H 2.856601 -5.632687 0.929058 0
M  V30 28 H 2.993563 -3.134592 0.685135 0
M  V30 29 H 1.603124 -0.926720 2.036572 0
M  V30 30 H 1.167720 -1.595953 -0.819991 0
M  V30 31 H 0.753501 0.744216 -0.392900 0
M  V30 32 H 1.706630 0.756284 -2.479637 0
M  V30 33 H 2.916568 -0.418025 -1.979401 0
M  V30 34 H 3.116605 2.583569 -2.029783 0
M  V30 35 H 4.257005 1.324918 -2.537613 0
M  V30 36 H 4.826310 0.832804 -0.206375 0
M  V30 37 H 5.022563 2.587691 -0.672005 0
M  V30 38 H 2.637675 2.966579 0.091553 0
M  V30 39 H 3.737352 2.490741 1.495331 0
M  V30 40 H 1.733427 1.218250 1.630282 0
M  V30 41 H 3.169184 0.218182 1.312218 0
M  V30 42 H -0.313644 0.091475 3.099706 0
M  V30 43 H -2.636548 0.901320 3.008521 0
M  V30 44 H -4.553358 0.791325 -1.201916 0
M  V30 45 H -7.426536 1.356308 1.844294 0
M  V30 46 H -5.222971 0.564626 2.986106 0
M  V30 47 H -3.126844 -0.865306 -0.855148 0
M  V30 48 H -0.860162 -1.665668 -0.782904 0
M  V30 49 H -1.062350 -2.879788 2.020083 0
M  V30 50 H -1.216780 -5.268182 2.260973 0
M  V30 END ATOM
M  V30 BEGIN BOND
M  V30 1 1 1 2
M  V30 2 2 2 3
M  V30 3 1 3 4
M  V30 4 2 4 5
M  V30 5 1 5 6
M  V30 6 1 6 7
M  V30 7 1 7 8
M  V30 8 1 8 9
M  V30 9 1 9 10
M  V30 10 1 10 11
M  V30 11 1 11 12
M  V30 12 1 12 13
M  V30 13 1 6 14
M  V30 14 2 14 15
M  V30 15 1 15 16
M  V30 16 2 16 17
M  V30 17 1 17 18
M  V30 18 1 18 19
M  V30 19 2 19 20
M  V30 20 1 20 21
M  V30 21 1 21 22
M  V30 22 1 17 23
M  V30 23 2 23 24
M  V30 24 1 5 25
M  V30 25 2 25 26
M  V30 26 1 26 2
M  V30 27 1 13 8
M  V30 28 1 24 14
M  V30 29 2 22 18
M  V30 30 1 3 27
M  V30 31 1 4 28
M  V30 32 1 6 29
M  V30 33 1 7 30
M  V30 34 1 8 31
M  V30 35 1 9 32
M  V30 36 1 9 33
M  V30 37 1 10 34
M  V30 38 1 10 35
M  V30 39 1 11 36
M  V30 40 1 11 37
M  V30 41 1 12 38
M  V30 42 1 12 39
M  V30 43 1 13 40
M  V30 44 1 13 41
M  V30 45 1 15 42
M  V30 46 1 16 43
M  V30 47 1 19 44
M  V30 48 1 21 45
M  V30 49 1 22 46
M  V30 50 1 23 47
M  V30 51 1 24 48
M  V30 52 1 25 49
M  V30 53 1 26 50
M  V30 END BOND
M  V30 END CTAB
M  END
>  <Dataset>  (822) 
ChEMBL_Kinases

>  <Ligand_Instance>  (822) 
nan

>  <PDB_ID>  (822) 
nan

>  <Standardized_SMILES>  (822) 
Clc1ccc(C(NC2CCCCC2)c2ccc(-c3cn[nH]c3)cc2)cc1

>  <Name>  (822) 
nan

>  <Pocket>  (822) 
nan

>  <ATP_Site>  (822) 
nan

>  <Peripheral>  (822) 
nan

>  <Num_H_Atoms_ProtBoundConf>  (822) 
nan

>  <Num_Resolved_Atoms>  (822) 
nan

>  <Num_Not_Resolved_Atoms>  (822) 
nan

$$$$
CHEMBL3093064
     RDKit          3D

  0  0  0  0  0  0  0  0  0  0999 V3000
M  V30 BEGIN CTAB
M  V30 COUNTS 35 38 0 0 0
M  V30 BEGIN ATOM
M  V30 1 F 1.347546 -1.154685 3.515506 0
M  V30 2 C 1.247092 -1.910396 2.378761 0
M  V30 3 C 0.280192 -2.883070 2.269572 0
M  V30 4 C 0.236388 -3.612558 1.085981 0
M  V30 5 C 1.100661 -3.415347 0.027611 0
M  V30 6 C 2.042971 -2.417293 0.220232 0
M  V30 7 C 3.038524 -2.113798 -0.868216 0
M  V30 8 N 2.500436 -1.091557 -1.763411 0
M  V30 9 C 2.204229 0.143453 -1.106628 0
M  V30 10 N 2.878359 1.299949 -0.837154 0
M  V30 11 N 2.013435 2.068882 -0.181068 0
M  V30 12 C 0.839884 1.425744 -0.040847 0
M  V30 13 C -0.361656 1.929410 0.619716 0
M  V30 14 C -0.576944 3.149732 1.239886 0
M  V30 15 N -1.832006 3.147063 1.695606 0
M  V30 16 C -2.485796 2.001591 1.425027 0
M  V30 17 N -3.736307 1.561944 1.685168 0
M  V30 18 C -4.073551 0.313178 1.253597 0
M  V30 19 C -3.196417 -0.505234 0.570883 0
M  V30 20 C -1.908882 -0.049549 0.304373 0
M  V30 21 C -1.545579 1.229331 0.739859 0
M  V30 22 O 0.990201 0.246176 -0.620027 0
M  V30 23 C 2.141189 -1.654640 1.372871 0
M  V30 24 H -0.411085 -3.059950 3.083287 0
M  V30 25 H -0.529619 -4.367429 1.026458 0
M  V30 26 H 1.042689 -3.996855 -0.878549 0
M  V30 27 H 3.328083 -3.024157 -1.396457 0
M  V30 28 H 3.960201 -1.678114 -0.425636 0
M  V30 29 H 2.324058 -1.192334 -2.802639 0
M  V30 30 H 0.158422 3.943420 1.324694 0
M  V30 31 H -2.234927 3.977504 2.210970 0
M  V30 32 H -5.072876 -0.115967 1.427047 0
M  V30 33 H -3.507893 -1.499628 0.242902 0
M  V30 34 H -1.213657 -0.681866 -0.229511 0
M  V30 35 H 2.906798 -0.884406 1.459429 0
M  V30 END ATOM
M  V30 BEGIN BOND
M  V30 1 1 1 2
M  V30 2 2 2 3
M  V30 3 1 3 4
M  V30 4 2 4 5
M  V30 5 1 5 6
M  V30 6 1 6 7
M  V30 7 1 7 8
M  V30 8 1 8 9
M  V30 9 2 9 10
M  V30 10 1 10 11
M  V30 11 2 11 12
M  V30 12 1 12 13
M  V30 13 2 13 14
M  V30 14 1 14 15
M  V30 15 1 15 16
M  V30 16 2 16 17
M  V30 17 1 17 18
M  V30 18 2 18 19
M  V30 19 1 19 20
M  V30 20 2 20 21
M  V30 21 1 12 22
M  V30 22 2 6 23
M  V30 23 1 23 2
M  V30 24 1 22 9
M  V30 25 1 21 13
M  V30 26 1 21 16
M  V30 27 1 3 24
M  V30 28 1 4 25
M  V30 29 1 5 26
M  V30 30 1 7 27
M  V30 31 1 7 28
M  V30 32 1 8 29
M  V30 33 1 14 30
M  V30 34 1 15 31
M  V30 35 1 18 32
M  V30 36 1 19 33
M  V30 37 1 20 34
M  V30 38 1 23 35
M  V30 END BOND
M  V30 END CTAB
M  END
>  <Dataset>  (823) 
ChEMBL_Kinases

>  <Ligand_Instance>  (823) 
nan

>  <PDB_ID>  (823) 
nan

>  <Standardized_SMILES>  (823) 
Fc1cccc(CNc2nnc(-c3c[nH]c4ncccc34)o2)c1

>  <Name>  (823) 
nan

>  <Pocket>  (823) 
nan

>  <ATP_Site>  (823) 
nan

>  <Peripheral>  (823) 
nan

>  <Num_H_Atoms_ProtBoundConf>  (823) 
nan

>  <Num_Resolved_Atoms>  (823) 
nan

>  <Num_Not_Resolved_Atoms>  (823) 
nan

$$$$
CHEMBL3093065
     RDKit          3D

  0  0  0  0  0  0  0  0  0  0999 V3000
M  V30 BEGIN CTAB
M  V30 COUNTS 35 38 0 0 0
M  V30 BEGIN ATOM
M  V30 1 F 1.408652 -2.405185 5.287811 0
M  V30 2 C 1.496630 -2.646862 3.940266 0
M  V30 3 C 2.559864 -3.281650 3.322874 0
M  V30 4 C 2.524036 -3.462376 1.958019 0
M  V30 5 C 1.448905 -3.026319 1.171435 0
M  V30 6 C 1.644264 -3.338455 -0.262500 0
M  V30 7 N 2.337523 -2.296863 -0.995825 0
M  V30 8 C 1.885146 -0.960101 -1.179191 0
M  V30 9 N 2.568241 0.006954 -1.863212 0
M  V30 10 N 1.832991 1.102558 -1.815275 0
M  V30 11 C 0.692904 0.841166 -1.109449 0
M  V30 12 C -0.289515 1.908110 -0.917940 0
M  V30 13 C -0.270055 3.240483 -1.350779 0
M  V30 14 N -1.403818 3.820942 -0.925514 0
M  V30 15 C -2.185240 2.971848 -0.236435 0
M  V30 16 N -3.382661 3.175245 0.342258 0
M  V30 17 C -3.998740 2.171429 0.991101 0
M  V30 18 C -3.371931 0.944057 1.043206 0
M  V30 19 C -2.135959 0.748431 0.441395 0
M  V30 20 C -1.491226 1.767950 -0.227741 0
M  V30 21 O 0.762337 -0.416191 -0.742152 0
M  V30 22 C 0.397227 -2.396155 1.798290 0
M  V30 23 C 0.422448 -2.209917 3.163256 0
M  V30 24 H 3.371412 -3.605820 3.951932 0
M  V30 25 H 3.417412 -3.975791 1.576552 0
M  V30 26 H 0.606483 -3.406180 -0.708750 0
M  V30 27 H 2.111468 -4.311799 -0.403179 0
M  V30 28 H 3.253387 -2.572751 -1.422010 0
M  V30 29 H 0.544649 3.659759 -1.921435 0
M  V30 30 H -1.636442 4.831475 -1.120905 0
M  V30 31 H -4.963872 2.212406 1.496495 0
M  V30 32 H -3.801319 0.066805 1.551748 0
M  V30 33 H -1.665703 -0.210707 0.491762 0
M  V30 34 H -0.360171 -2.110427 1.108013 0
M  V30 35 H -0.435161 -1.707523 3.595169 0
M  V30 END ATOM
M  V30 BEGIN BOND
M  V30 1 1 1 2
M  V30 2 2 2 3
M  V30 3 1 3 4
M  V30 4 2 4 5
M  V30 5 1 5 6
M  V30 6 1 6 7
M  V30 7 1 7 8
M  V30 8 2 8 9
M  V30 9 1 9 10
M  V30 10 2 10 11
M  V30 11 1 11 12
M  V30 12 2 12 13
M  V30 13 1 13 14
M  V30 14 1 14 15
M  V30 15 2 15 16
M  V30 16 1 16 17
M  V30 17 2 17 18
M  V30 18 1 18 19
M  V30 19 2 19 20
M  V30 20 1 11 21
M  V30 21 1 5 22
M  V30 22 2 22 23
M  V30 23 1 23 2
M  V30 24 1 21 8
M  V30 25 1 20 12
M  V30 26 1 20 15
M  V30 27 1 3 24
M  V30 28 1 4 25
M  V30 29 1 6 26
M  V30 30 1 6 27
M  V30 31 1 7 28
M  V30 32 1 13 29
M  V30 33 1 14 30
M  V30 34 1 17 31
M  V30 35 1 18 32
M  V30 36 1 19 33
M  V30 37 1 22 34
M  V30 38 1 23 35
M  V30 END BOND
M  V30 END CTAB
M  END
>  <Dataset>  (824) 
ChEMBL_Kinases

>  <Ligand_Instance>  (824) 
nan

>  <PDB_ID>  (824) 
nan

>  <Standardized_SMILES>  (824) 
Fc1ccc(CNc2nnc(-c3c[nH]c4ncccc34)o2)cc1

>  <Name>  (824) 
nan

>  <Pocket>  (824) 
nan

>  <ATP_Site>  (824) 
nan

>  <Peripheral>  (824) 
nan

>  <Num_H_Atoms_ProtBoundConf>  (824) 
nan

>  <Num_Resolved_Atoms>  (824) 
nan

>  <Num_Not_Resolved_Atoms>  (824) 
nan

$$$$
CHEMBL3093066
     RDKit          3D

  0  0  0  0  0  0  0  0  0  0999 V3000
M  V30 BEGIN CTAB
M  V30 COUNTS 34 37 0 0 0
M  V30 BEGIN ATOM
M  V30 1 C -0.550998 -1.506676 3.379085 0
M  V30 2 C -0.718884 -2.834231 2.973287 0
M  V30 3 C 0.266218 -3.412430 2.180039 0
M  V30 4 C 1.394312 -2.693745 1.795047 0
M  V30 5 C 2.462057 -3.307321 0.942747 0
M  V30 6 N 2.105679 -3.149108 -0.476202 0
M  V30 7 C 1.902721 -1.856255 -1.042726 0
M  V30 8 N 2.625394 -1.245263 -1.999334 0
M  V30 9 N 2.081521 -0.056305 -2.217259 0
M  V30 10 C 1.015604 0.102254 -1.411238 0
M  V30 11 C 0.087262 1.227327 -1.274623 0
M  V30 12 C 0.149444 2.440877 -1.975030 0
M  V30 13 N -0.875447 3.253206 -1.588479 0
M  V30 14 C -1.590902 2.567923 -0.648037 0
M  V30 15 N -2.701662 2.866607 0.079549 0
M  V30 16 C -3.193264 1.948082 0.964271 0
M  V30 17 C -2.639278 0.702500 1.186959 0
M  V30 18 C -1.507352 0.391327 0.447675 0
M  V30 19 C -1.010608 1.336213 -0.453695 0
M  V30 20 O 0.952028 -1.022522 -0.717530 0
M  V30 21 N 1.489051 -1.407200 2.227696 0
M  V30 22 C 0.576668 -0.822943 2.980668 0
M  V30 23 H -1.293718 -0.991719 4.004090 0
M  V30 24 H -1.598618 -3.386812 3.272530 0
M  V30 25 H 0.134856 -4.446011 1.863957 0
M  V30 26 H 3.372624 -2.694726 1.098934 0
M  V30 27 H 2.715775 -4.326814 1.204021 0
M  V30 28 H 2.022599 -4.039079 -1.011524 0
M  V30 29 H 0.912745 2.707215 -2.727652 0
M  V30 30 H -1.078607 4.221410 -1.945007 0
M  V30 31 H -4.092076 2.201406 1.548239 0
M  V30 32 H -3.106347 0.047373 1.913545 0
M  V30 33 H -1.078192 -0.575444 0.620657 0
M  V30 34 H 0.767789 0.217402 3.263581 0
M  V30 END ATOM
M  V30 BEGIN BOND
M  V30 1 2 1 2
M  V30 2 1 2 3
M  V30 3 2 3 4
M  V30 4 1 4 5
M  V30 5 1 5 6
M  V30 6 1 6 7
M  V30 7 2 7 8
M  V30 8 1 8 9
M  V30 9 2 9 10
M  V30 10 1 10 11
M  V30 11 2 11 12
M  V30 12 1 12 13
M  V30 13 1 13 14
M  V30 14 2 14 15
M  V30 15 1 15 16
M  V30 16 2 16 17
M  V30 17 1 17 18
M  V30 18 2 18 19
M  V30 19 1 10 20
M  V30 20 1 4 21
M  V30 21 2 21 22
M  V30 22 1 22 1
M  V30 23 1 20 7
M  V30 24 1 19 11
M  V30 25 1 19 14
M  V30 26 1 1 23
M  V30 27 1 2 24
M  V30 28 1 3 25
M  V30 29 1 5 26
M  V30 30 1 5 27
M  V30 31 1 6 28
M  V30 32 1 12 29
M  V30 33 1 13 30
M  V30 34 1 16 31
M  V30 35 1 17 32
M  V30 36 1 18 33
M  V30 37 1 22 34
M  V30 END BOND
M  V30 END CTAB
M  END
>  <Dataset>  (825) 
ChEMBL_Kinases

>  <Ligand_Instance>  (825) 
nan

>  <PDB_ID>  (825) 
nan

>  <Standardized_SMILES>  (825) 
c1ccc(CNc2nnc(-c3c[nH]c4ncccc34)o2)nc1

>  <Name>  (825) 
nan

>  <Pocket>  (825) 
nan

>  <ATP_Site>  (825) 
nan

>  <Peripheral>  (825) 
nan

>  <Num_H_Atoms_ProtBoundConf>  (825) 
nan

>  <Num_Resolved_Atoms>  (825) 
nan

>  <Num_Not_Resolved_Atoms>  (825) 
nan

$$$$
CHEMBL3093067
     RDKit          3D

  0  0  0  0  0  0  0  0  0  0999 V3000
M  V30 BEGIN CTAB
M  V30 COUNTS 34 37 0 0 0
M  V30 BEGIN ATOM
M  V30 1 C 0.115053 -2.745971 2.964259 0
M  V30 2 C 1.122949 -3.266666 3.769988 0
M  V30 3 N 2.250030 -3.755432 3.227110 0
M  V30 4 C 2.435140 -3.753939 1.876622 0
M  V30 5 C 1.450448 -3.242141 1.042877 0
M  V30 6 C 1.845359 -3.335858 -0.379751 0
M  V30 7 N 2.576107 -2.176516 -0.855769 0
M  V30 8 C 2.073609 -0.847511 -0.897183 0
M  V30 9 N 2.802430 0.220155 -1.341159 0
M  V30 10 N 2.027963 1.284982 -1.239962 0
M  V30 11 C 0.819190 0.904113 -0.737849 0
M  V30 12 C -0.229710 1.897468 -0.525604 0
M  V30 13 C -0.213766 3.279211 -0.756953 0
M  V30 14 N -1.412581 3.770007 -0.410911 0
M  V30 15 C -2.240737 2.810710 0.040218 0
M  V30 16 N -3.509696 2.860738 0.482815 0
M  V30 17 C -4.149284 1.750518 0.890988 0
M  V30 18 C -3.480673 0.524160 0.853415 0
M  V30 19 C -2.180886 0.520446 0.392329 0
M  V30 20 C -1.493630 1.636550 -0.033685 0
M  V30 21 O 0.917060 -0.386852 -0.555719 0
M  V30 22 C 0.294617 -2.740826 1.596619 0
M  V30 23 H -0.804647 -2.343418 3.353061 0
M  V30 24 H 0.959409 -3.260918 4.854009 0
M  V30 25 H 3.403499 -4.185026 1.581917 0
M  V30 26 H 2.359826 -4.278797 -0.616495 0
M  V30 27 H 0.862914 -3.412669 -0.938004 0
M  V30 28 H 3.564654 -2.375575 -1.192829 0
M  V30 29 H 0.637403 3.807695 -1.146003 0
M  V30 30 H -1.634211 4.786133 -0.498150 0
M  V30 31 H -5.176000 1.731957 1.258861 0
M  V30 32 H -3.934646 -0.411074 1.167263 0
M  V30 33 H -1.671610 -0.430792 0.365574 0
M  V30 34 H -0.387189 -2.378348 0.866347 0
M  V30 END ATOM
M  V30 BEGIN BOND
M  V30 1 2 1 2
M  V30 2 1 2 3
M  V30 3 2 3 4
M  V30 4 1 4 5
M  V30 5 1 5 6
M  V30 6 1 6 7
M  V30 7 1 7 8
M  V30 8 2 8 9
M  V30 9 1 9 10
M  V30 10 2 10 11
M  V30 11 1 11 12
M  V30 12 2 12 13
M  V30 13 1 13 14
M  V30 14 1 14 15
M  V30 15 2 15 16
M  V30 16 1 16 17
M  V30 17 2 17 18
M  V30 18 1 18 19
M  V30 19 2 19 20
M  V30 20 1 11 21
M  V30 21 2 5 22
M  V30 22 1 22 1
M  V30 23 1 21 8
M  V30 24 1 20 12
M  V30 25 1 20 15
M  V30 26 1 1 23
M  V30 27 1 2 24
M  V30 28 1 4 25
M  V30 29 1 6 26
M  V30 30 1 6 27
M  V30 31 1 7 28
M  V30 32 1 13 29
M  V30 33 1 14 30
M  V30 34 1 17 31
M  V30 35 1 18 32
M  V30 36 1 19 33
M  V30 37 1 22 34
M  V30 END BOND
M  V30 END CTAB
M  END
>  <Dataset>  (826) 
ChEMBL_Kinases

>  <Ligand_Instance>  (826) 
nan

>  <PDB_ID>  (826) 
nan

>  <Standardized_SMILES>  (826) 
c1cncc(CNc2nnc(-c3c[nH]c4ncccc34)o2)c1

>  <Name>  (826) 
nan

>  <Pocket>  (826) 
nan

>  <ATP_Site>  (826) 
nan

>  <Peripheral>  (826) 
nan

>  <Num_H_Atoms_ProtBoundConf>  (826) 
nan

>  <Num_Resolved_Atoms>  (826) 
nan

>  <Num_Not_Resolved_Atoms>  (826) 
nan

$$$$
CHEMBL3093068
     RDKit          3D

  0  0  0  0  0  0  0  0  0  0999 V3000
M  V30 BEGIN CTAB
M  V30 COUNTS 34 37 0 0 0
M  V30 BEGIN ATOM
M  V30 1 C 1.692386 -2.146365 3.478428 0
M  V30 2 C 1.123597 -3.218925 4.167451 0
M  V30 3 N 0.178397 -3.994239 3.587554 0
M  V30 4 C -0.264851 -3.780288 2.326412 0
M  V30 5 N -1.147801 -4.360685 1.514544 0
M  V30 6 C -1.201384 -3.727862 0.305069 0
M  V30 7 C -0.318350 -2.693301 0.330712 0
M  V30 8 C 0.068667 -1.693404 -0.682887 0
M  V30 9 N -0.332743 -1.646950 -1.965651 0
M  V30 10 N 0.213147 -0.616917 -2.586316 0
M  V30 11 C 0.982611 0.011046 -1.677576 0
M  V30 12 N 1.878616 1.115565 -1.426101 0
M  V30 13 C 1.053913 2.287102 -1.396200 0
M  V30 14 C -0.119646 2.199875 -0.498579 0
M  V30 15 C -0.191566 2.464542 0.860722 0
M  V30 16 C -1.385493 2.345174 1.538349 0
M  V30 17 N -2.524773 1.963139 0.886699 0
M  V30 18 C -2.520606 1.691951 -0.432820 0
M  V30 19 C -1.320565 1.813215 -1.110751 0
M  V30 20 O 0.873993 -0.659348 -0.548525 0
M  V30 21 C 0.257310 -2.740677 1.600886 0
M  V30 22 C 1.231681 -1.928496 2.176952 0
M  V30 23 H 2.448611 -1.532073 3.945572 0
M  V30 24 H 1.462529 -3.416898 5.189917 0
M  V30 25 H -1.728686 -5.196419 1.773299 0
M  V30 26 H -1.813072 -3.959651 -0.546967 0
M  V30 27 H 2.909439 0.983887 -1.302729 0
M  V30 28 H 1.665198 3.163144 -1.048258 0
M  V30 29 H 0.674126 2.537785 -2.432433 0
M  V30 30 H 0.756736 2.756317 1.279589 0
M  V30 31 H -1.383275 2.561844 2.596494 0
M  V30 32 H -3.447765 1.396887 -0.901628 0
M  V30 33 H -1.438311 1.573927 -2.171217 0
M  V30 34 H 1.666327 -1.096385 1.628231 0
M  V30 END ATOM
M  V30 BEGIN BOND
M  V30 1 2 1 2
M  V30 2 1 2 3
M  V30 3 2 3 4
M  V30 4 1 4 5
M  V30 5 1 5 6
M  V30 6 2 6 7
M  V30 7 1 7 8
M  V30 8 2 8 9
M  V30 9 1 9 10
M  V30 10 2 10 11
M  V30 11 1 11 12
M  V30 12 1 12 13
M  V30 13 1 13 14
M  V30 14 2 14 15
M  V30 15 1 15 16
M  V30 16 2 16 17
M  V30 17 1 17 18
M  V30 18 2 18 19
M  V30 19 1 11 20
M  V30 20 1 7 21
M  V30 21 2 21 22
M  V30 22 1 22 1
M  V30 23 1 21 4
M  V30 24 1 20 8
M  V30 25 1 19 14
M  V30 26 1 1 23
M  V30 27 1 2 24
M  V30 28 1 5 25
M  V30 29 1 6 26
M  V30 30 1 12 27
M  V30 31 1 13 28
M  V30 32 1 13 29
M  V30 33 1 15 30
M  V30 34 1 16 31
M  V30 35 1 18 32
M  V30 36 1 19 33
M  V30 37 1 22 34
M  V30 END BOND
M  V30 END CTAB
M  END
>  <Dataset>  (827) 
ChEMBL_Kinases

>  <Ligand_Instance>  (827) 
nan

>  <PDB_ID>  (827) 
nan

>  <Standardized_SMILES>  (827) 
c1cnc2[nH]cc(-c3nnc(NCc4ccncc4)o3)c2c1

>  <Name>  (827) 
nan

>  <Pocket>  (827) 
nan

>  <ATP_Site>  (827) 
nan

>  <Peripheral>  (827) 
nan

>  <Num_H_Atoms_ProtBoundConf>  (827) 
nan

>  <Num_Resolved_Atoms>  (827) 
nan

>  <Num_Not_Resolved_Atoms>  (827) 
nan

$$$$
CHEMBL3093069
     RDKit          3D

  0  0  0  0  0  0  0  0  0  0999 V3000
M  V30 BEGIN CTAB
M  V30 COUNTS 38 41 0 0 0
M  V30 BEGIN ATOM
M  V30 1 C 0.258500 -4.839098 2.667781 0
M  V30 2 C 0.428690 -3.542399 1.954556 0 CFG=2
M  V30 3 N 1.288037 -2.608545 2.685111 0
M  V30 4 C 1.553863 -1.305554 2.127773 0
M  V30 5 N 2.311806 -0.323761 2.650273 0
M  V30 6 N 2.274186 0.705037 1.791907 0
M  V30 7 C 1.504789 0.361905 0.756653 0
M  V30 8 C 1.141171 1.114854 -0.439601 0
M  V30 9 C 0.326053 0.621103 -1.435880 0
M  V30 10 N 0.209550 1.584521 -2.377152 0
M  V30 11 C 0.928442 2.665577 -1.997276 0
M  V30 12 N 1.117477 3.857759 -2.598871 0
M  V30 13 C 1.890566 4.811130 -2.028751 0
M  V30 14 C 2.510573 4.573124 -0.796890 0
M  V30 15 C 2.314900 3.336894 -0.172479 0
M  V30 16 C 1.512619 2.393554 -0.799692 0
M  V30 17 O 1.089645 -0.858391 0.997764 0
M  V30 18 C -0.887611 -2.868638 1.803695 0
M  V30 19 C -1.536074 -2.900097 0.571820 0
M  V30 20 C -2.766410 -2.303587 0.324905 0
M  V30 21 C -3.384031 -1.641712 1.355491 0
M  V30 22 C -2.756202 -1.595581 2.598098 0
M  V30 23 C -1.537408 -2.196542 2.810687 0
M  V30 24 H 1.187586 -5.298758 3.003851 0
M  V30 25 H -0.478199 -4.669696 3.478676 0
M  V30 26 H -0.223908 -5.540436 1.948383 0
M  V30 27 H 0.892944 -3.650946 0.946934 0
M  V30 28 H 1.736189 -2.826229 3.610380 0
M  V30 29 H -0.160096 -0.352416 -1.505433 0
M  V30 30 H -0.353175 1.513729 -3.273601 0
M  V30 31 H 2.004932 5.744995 -2.556981 0
M  V30 32 H 3.128671 5.332349 -0.338737 0
M  V30 33 H 2.763113 3.098936 0.768972 0
M  V30 34 H -1.029348 -3.433125 -0.241840 0
M  V30 35 H -3.205316 -2.371282 -0.656733 0
M  V30 36 H -4.347538 -1.159073 1.211464 0
M  V30 37 H -3.206736 -1.080289 3.453324 0
M  V30 38 H -1.027532 -2.170447 3.783602 0
M  V30 END ATOM
M  V30 BEGIN BOND
M  V30 1 1 1 2
M  V30 2 1 2 3
M  V30 3 1 3 4
M  V30 4 2 4 5
M  V30 5 1 5 6
M  V30 6 2 6 7
M  V30 7 1 7 8
M  V30 8 2 8 9
M  V30 9 1 9 10
M  V30 10 1 10 11
M  V30 11 2 11 12
M  V30 12 1 12 13
M  V30 13 2 13 14
M  V30 14 1 14 15
M  V30 15 2 15 16
M  V30 16 1 7 17
M  V30 17 1 2 18
M  V30 18 2 18 19
M  V30 19 1 19 20
M  V30 20 2 20 21
M  V30 21 1 21 22
M  V30 22 2 22 23
M  V30 23 1 17 4
M  V30 24 1 23 18
M  V30 25 1 16 8
M  V30 26 1 16 11
M  V30 27 1 1 24
M  V30 28 1 1 25
M  V30 29 1 1 26
M  V30 30 1 2 27 CFG=3
M  V30 31 1 3 28
M  V30 32 1 9 29
M  V30 33 1 10 30
M  V30 34 1 13 31
M  V30 35 1 14 32
M  V30 36 1 15 33
M  V30 37 1 19 34
M  V30 38 1 20 35
M  V30 39 1 21 36
M  V30 40 1 22 37
M  V30 41 1 23 38
M  V30 END BOND
M  V30 END CTAB
M  END
>  <Dataset>  (828) 
ChEMBL_Kinases

>  <Ligand_Instance>  (828) 
nan

>  <PDB_ID>  (828) 
nan

>  <Standardized_SMILES>  (828) 
C[C@H](Nc1nnc(-c2c[nH]c3ncccc23)o1)c1ccccc1

>  <Name>  (828) 
nan

>  <Pocket>  (828) 
nan

>  <ATP_Site>  (828) 
nan

>  <Peripheral>  (828) 
nan

>  <Num_H_Atoms_ProtBoundConf>  (828) 
nan

>  <Num_Resolved_Atoms>  (828) 
nan

>  <Num_Not_Resolved_Atoms>  (828) 
nan

$$$$
CHEMBL3093070
     RDKit          3D

  0  0  0  0  0  0  0  0  0  0999 V3000
M  V30 BEGIN CTAB
M  V30 COUNTS 38 41 0 0 0
M  V30 BEGIN ATOM
M  V30 1 C 0.447595 -5.088717 2.040793 0
M  V30 2 C 0.301111 -3.635703 2.313566 0 CFG=1
M  V30 3 N 1.338730 -2.861041 1.663621 0
M  V30 4 C 1.683048 -1.488818 1.531479 0
M  V30 5 N 2.391236 -0.563034 2.236133 0
M  V30 6 N 2.320182 0.561079 1.539622 0
M  V30 7 C 1.595608 0.383612 0.422235 0
M  V30 8 C 1.238878 1.309125 -0.650708 0
M  V30 9 C 0.486584 0.928449 -1.742977 0
M  V30 10 N 0.325052 1.991867 -2.549111 0
M  V30 11 C 0.969763 3.007284 -1.957138 0
M  V30 12 N 1.123764 4.305003 -2.340864 0
M  V30 13 C 1.802999 5.189704 -1.623448 0
M  V30 14 C 2.391956 4.797469 -0.424013 0
M  V30 15 C 2.281420 3.509198 0.028829 0
M  V30 16 C 1.568432 2.644498 -0.756094 0
M  V30 17 O 1.226542 -0.885310 0.459653 0
M  V30 18 C -1.013938 -3.051411 2.148994 0
M  V30 19 C -2.148562 -3.746181 1.791681 0
M  V30 20 C -3.403298 -3.149100 1.645561 0
M  V30 21 C -3.535574 -1.800799 1.864701 0
M  V30 22 C -2.390473 -1.075830 2.229604 0
M  V30 23 C -1.179861 -1.699228 2.361954 0
M  V30 24 H 0.102222 -5.450003 1.062140 0
M  V30 25 H -0.066632 -5.700018 2.809179 0
M  V30 26 H 1.526492 -5.337901 2.101005 0
M  V30 27 H 0.545512 -3.519563 3.416004 0
M  V30 28 H 2.078939 -3.399313 1.118078 0
M  V30 29 H 0.041444 -0.041496 -2.018257 0
M  V30 30 H -0.186268 2.089505 -3.470912 0
M  V30 31 H 1.877100 6.198847 -2.000186 0
M  V30 32 H 2.941748 5.537398 0.145147 0
M  V30 33 H 2.721002 3.156902 0.951323 0
M  V30 34 H -2.079220 -4.804427 1.613115 0
M  V30 35 H -4.269086 -3.732955 1.363501 0
M  V30 36 H -4.525126 -1.374797 1.741091 0
M  V30 37 H -2.616540 -0.027752 2.374102 0
M  V30 38 H -0.438062 -0.997678 2.642776 0
M  V30 END ATOM
M  V30 BEGIN BOND
M  V30 1 1 1 2
M  V30 2 1 2 3
M  V30 3 1 3 4
M  V30 4 2 4 5
M  V30 5 1 5 6
M  V30 6 2 6 7
M  V30 7 1 7 8
M  V30 8 2 8 9
M  V30 9 1 9 10
M  V30 10 1 10 11
M  V30 11 2 11 12
M  V30 12 1 12 13
M  V30 13 2 13 14
M  V30 14 1 14 15
M  V30 15 2 15 16
M  V30 16 1 7 17
M  V30 17 1 2 18
M  V30 18 2 18 19
M  V30 19 1 19 20
M  V30 20 2 20 21
M  V30 21 1 21 22
M  V30 22 2 22 23
M  V30 23 1 17 4
M  V30 24 1 23 18
M  V30 25 1 16 8
M  V30 26 1 16 11
M  V30 27 1 1 24
M  V30 28 1 1 25
M  V30 29 1 1 26
M  V30 30 1 2 27 CFG=1
M  V30 31 1 3 28
M  V30 32 1 9 29
M  V30 33 1 10 30
M  V30 34 1 13 31
M  V30 35 1 14 32
M  V30 36 1 15 33
M  V30 37 1 19 34
M  V30 38 1 20 35
M  V30 39 1 21 36
M  V30 40 1 22 37
M  V30 41 1 23 38
M  V30 END BOND
M  V30 END CTAB
M  END
>  <Dataset>  (829) 
ChEMBL_Kinases

>  <Ligand_Instance>  (829) 
nan

>  <PDB_ID>  (829) 
nan

>  <Standardized_SMILES>  (829) 
C[C@@H](Nc1nnc(-c2c[nH]c3ncccc23)o1)c1ccccc1

>  <Name>  (829) 
nan

>  <Pocket>  (829) 
nan

>  <ATP_Site>  (829) 
nan

>  <Peripheral>  (829) 
nan

>  <Num_H_Atoms_ProtBoundConf>  (829) 
nan

>  <Num_Resolved_Atoms>  (829) 
nan

>  <Num_Not_Resolved_Atoms>  (829) 
nan

$$$$
CHEMBL3093080
     RDKit          3D

  0  0  0  0  0  0  0  0  0  0999 V3000
M  V30 BEGIN CTAB
M  V30 COUNTS 41 45 0 0 0
M  V30 BEGIN ATOM
M  V30 1 F 2.342895 -2.845392 3.743547 0
M  V30 2 C 2.027094 -3.598749 2.670427 0
M  V30 3 C 2.266542 -4.946295 2.742943 0
M  V30 4 N 1.971538 -5.743873 1.706301 0
M  V30 5 C 1.437949 -5.230732 0.584683 0
M  V30 6 N 1.048803 -5.768878 -0.584965 0
M  V30 7 C 0.569701 -4.811003 -1.400670 0
M  V30 8 C 0.630444 -3.580212 -0.776124 0
M  V30 9 C 0.223881 -2.282192 -1.284522 0
M  V30 10 N -0.294383 -2.063292 -2.497541 0
M  V30 11 N -0.545474 -0.780003 -2.622444 0
M  V30 12 C -0.158992 -0.220133 -1.432809 0
M  V30 13 N -0.242780 1.166054 -1.106932 0
M  V30 14 C -0.038632 2.032641 0.011137 0 CFG=1
M  V30 15 C -1.122083 2.017441 1.007153 0
M  V30 16 C -1.254627 3.205332 1.739408 0
M  V30 17 C -2.192472 3.438716 2.721068 0
M  V30 18 C -3.092355 2.445077 3.036979 0
M  V30 19 N -2.983702 1.297627 2.346403 0
M  V30 20 C -2.060806 1.099142 1.395959 0
M  V30 21 F -2.024492 -0.065981 0.740585 0
M  V30 22 C 1.199411 1.468832 0.739863 0
M  V30 23 C 1.716118 2.127056 1.963920 0
M  V30 24 C 2.469759 2.191232 0.667311 0
M  V30 25 O 0.306826 -1.177679 -0.641108 0
M  V30 26 C 1.180239 -3.864028 0.474068 0
M  V30 27 C 1.476017 -3.022705 1.529367 0
M  V30 28 H 2.697834 -5.407335 3.631857 0
M  V30 29 H 1.116438 -6.791119 -0.811652 0
M  V30 30 H 0.192642 -4.957458 -2.391123 0
M  V30 31 H -0.556750 1.770360 -1.934451 0
M  V30 32 H 0.176578 3.075466 -0.301266 0
M  V30 33 H -0.616272 4.086527 1.586700 0
M  V30 34 H -2.284771 4.356920 3.276319 0
M  V30 35 H -3.880985 2.463321 3.773251 0
M  V30 36 H 1.141739 0.359155 0.824033 0
M  V30 37 H 1.298946 3.024719 2.412649 0
M  V30 38 H 2.219601 1.478900 2.739630 0
M  V30 39 H 3.450677 1.702155 0.588641 0
M  V30 40 H 2.441977 3.198297 0.179896 0
M  V30 41 H 1.298762 -1.943959 1.506591 0
M  V30 END ATOM
M  V30 BEGIN BOND
M  V30 1 1 1 2
M  V30 2 2 2 3
M  V30 3 1 3 4
M  V30 4 2 4 5
M  V30 5 1 5 6
M  V30 6 1 6 7
M  V30 7 2 7 8
M  V30 8 1 8 9
M  V30 9 2 9 10
M  V30 10 1 10 11
M  V30 11 2 11 12
M  V30 12 1 12 13
M  V30 13 1 13 14
M  V30 14 1 14 15
M  V30 15 2 15 16
M  V30 16 1 16 17
M  V30 17 2 17 18
M  V30 18 1 18 19
M  V30 19 2 19 20
M  V30 20 1 20 21
M  V30 21 1 14 22
M  V30 22 1 22 23
M  V30 23 1 23 24
M  V30 24 1 12 25
M  V30 25 1 8 26
M  V30 26 2 26 27
M  V30 27 1 27 2
M  V30 28 1 26 5
M  V30 29 1 25 9
M  V30 30 1 20 15
M  V30 31 1 24 22
M  V30 32 1 3 28
M  V30 33 1 6 29
M  V30 34 1 7 30
M  V30 35 1 13 31
M  V30 36 1 14 32 CFG=3
M  V30 37 1 16 33
M  V30 38 1 17 34
M  V30 39 1 18 35
M  V30 40 1 22 36
M  V30 41 1 23 37
M  V30 42 1 23 38
M  V30 43 1 24 39
M  V30 44 1 24 40
M  V30 45 1 27 41
M  V30 END BOND
M  V30 END CTAB
M  END
>  <Dataset>  (830) 
ChEMBL_Kinases

>  <Ligand_Instance>  (830) 
nan

>  <PDB_ID>  (830) 
nan

>  <Standardized_SMILES>  (830) 
Fc1cnc2[nH]cc(-c3nnc(N[C@@H](c4cccnc4F)C4CC4)o3)c2c1

>  <Name>  (830) 
nan

>  <Pocket>  (830) 
nan

>  <ATP_Site>  (830) 
nan

>  <Peripheral>  (830) 
nan

>  <Num_H_Atoms_ProtBoundConf>  (830) 
nan

>  <Num_Resolved_Atoms>  (830) 
nan

>  <Num_Not_Resolved_Atoms>  (830) 
nan

$$$$
CHEMBL3093072
     RDKit          3D

  0  0  0  0  0  0  0  0  0  0999 V3000
M  V30 BEGIN CTAB
M  V30 COUNTS 41 44 0 0 0
M  V30 BEGIN ATOM
M  V30 1 C -1.370075 -5.565261 0.411039 0
M  V30 2 C -1.392159 -4.437126 1.396063 0
M  V30 3 C -0.205954 -3.495272 1.264782 0 CFG=1
M  V30 4 N -0.162806 -2.897862 -0.058413 0
M  V30 5 C 0.887610 -1.923588 -0.299798 0
M  V30 6 N 2.206293 -1.739209 -0.504837 0
M  V30 7 N 2.402422 -0.430710 -0.656144 0
M  V30 8 C 1.205989 0.217222 -0.546493 0
M  V30 9 C 0.884830 1.648984 -0.636187 0
M  V30 10 C -0.418006 2.084029 -0.512788 0
M  V30 11 N -0.419637 3.427681 -0.633543 0
M  V30 12 C 0.866133 3.851619 -0.832600 0
M  V30 13 N 1.378522 5.090308 -1.005004 0
M  V30 14 C 2.706578 5.281598 -1.186137 0
M  V30 15 C 3.490430 4.160340 -1.181772 0
M  V30 16 C 3.043112 2.844805 -1.009422 0
M  V30 17 C 1.685369 2.743195 -0.834408 0
M  V30 18 O 0.319339 -0.730171 -0.330738 0
M  V30 19 C -0.313778 -2.515177 2.358490 0
M  V30 20 C -1.265606 -1.495945 2.353416 0
M  V30 21 C -1.342471 -0.577553 3.405317 0
M  V30 22 C -0.445089 -0.693543 4.473200 0
M  V30 23 C 0.523525 -1.688282 4.530072 0
M  V30 24 C 0.543602 -2.564922 3.453995 0
M  V30 25 H -2.255118 -6.214894 0.677483 0
M  V30 26 H -1.605208 -5.200717 -0.633043 0
M  V30 27 H -0.476240 -6.191317 0.430013 0
M  V30 28 H -1.371732 -4.849348 2.412513 0
M  V30 29 H -2.305174 -3.817249 1.192047 0
M  V30 30 H 0.747686 -4.058440 1.404985 0
M  V30 31 H -0.842246 -3.143158 -0.801108 0
M  V30 32 H -1.367183 1.548198 -0.345781 0
M  V30 33 H -1.214756 4.120038 -0.598713 0
M  V30 34 H 3.174611 6.223506 -1.327888 0
M  V30 35 H 4.578148 4.270751 -1.323347 0
M  V30 36 H 3.672247 1.967606 -1.007296 0
M  V30 37 H -1.970336 -1.408649 1.509812 0
M  V30 38 H -2.069517 0.214405 3.420243 0
M  V30 39 H -0.492889 0.015393 5.305251 0
M  V30 40 H 1.234461 -1.814325 5.329172 0
M  V30 41 H 1.307908 -3.353010 3.492650 0
M  V30 END ATOM
M  V30 BEGIN BOND
M  V30 1 1 1 2
M  V30 2 1 2 3
M  V30 3 1 3 4
M  V30 4 1 4 5
M  V30 5 2 5 6
M  V30 6 1 6 7
M  V30 7 2 7 8
M  V30 8 1 8 9
M  V30 9 2 9 10
M  V30 10 1 10 11
M  V30 11 1 11 12
M  V30 12 2 12 13
M  V30 13 1 13 14
M  V30 14 2 14 15
M  V30 15 1 15 16
M  V30 16 2 16 17
M  V30 17 1 8 18
M  V30 18 1 3 19
M  V30 19 2 19 20
M  V30 20 1 20 21
M  V30 21 2 21 22
M  V30 22 1 22 23
M  V30 23 2 23 24
M  V30 24 1 18 5
M  V30 25 1 24 19
M  V30 26 1 17 9
M  V30 27 1 17 12
M  V30 28 1 1 25
M  V30 29 1 1 26
M  V30 30 1 1 27
M  V30 31 1 2 28
M  V30 32 1 2 29
M  V30 33 1 3 30 CFG=1
M  V30 34 1 4 31
M  V30 35 1 10 32
M  V30 36 1 11 33
M  V30 37 1 14 34
M  V30 38 1 15 35
M  V30 39 1 16 36
M  V30 40 1 20 37
M  V30 41 1 21 38
M  V30 42 1 22 39
M  V30 43 1 23 40
M  V30 44 1 24 41
M  V30 END BOND
M  V30 END CTAB
M  END
>  <Dataset>  (831) 
ChEMBL_Kinases

>  <Ligand_Instance>  (831) 
nan

>  <PDB_ID>  (831) 
nan

>  <Standardized_SMILES>  (831) 
CC[C@@H](Nc1nnc(-c2c[nH]c3ncccc23)o1)c1ccccc1

>  <Name>  (831) 
nan

>  <Pocket>  (831) 
nan

>  <ATP_Site>  (831) 
nan

>  <Peripheral>  (831) 
nan

>  <Num_H_Atoms_ProtBoundConf>  (831) 
nan

>  <Num_Resolved_Atoms>  (831) 
nan

>  <Num_Not_Resolved_Atoms>  (831) 
nan

$$$$
CHEMBL3093073
     RDKit          3D

  0  0  0  0  0  0  0  0  0  0999 V3000
M  V30 BEGIN CTAB
M  V30 COUNTS 44 47 0 0 0
M  V30 BEGIN ATOM
M  V30 1 C -1.760047 -3.367567 2.576210 0
M  V30 2 C -2.101600 -2.130257 1.829917 0
M  V30 3 C -3.447821 -2.355260 1.127921 0
M  V30 4 C -1.126295 -1.651993 0.820963 0 CFG=1
M  V30 5 N 0.190329 -1.335280 1.373513 0
M  V30 6 C 1.331275 -0.824977 0.690737 0
M  V30 7 N 2.300518 -1.199488 -0.201514 0
M  V30 8 N 3.058555 -0.128308 -0.366941 0
M  V30 9 C 2.614179 0.896021 0.372752 0
M  V30 10 C 3.132591 2.279717 0.515683 0
M  V30 11 C 4.242769 2.781862 -0.128297 0
M  V30 12 N 4.330911 4.048255 0.314180 0
M  V30 13 C 3.347930 4.342933 1.180756 0
M  V30 14 N 3.000268 5.462033 1.888919 0
M  V30 15 C 1.896218 5.363367 2.684286 0
M  V30 16 C 1.059952 4.292344 2.890224 0
M  V30 17 C 1.423511 3.153358 2.162416 0
M  V30 18 C 2.553662 3.230819 1.338066 0
M  V30 19 O 1.582386 0.420356 0.982304 0
M  V30 20 C -0.929794 -2.534232 -0.358201 0
M  V30 21 C 0.166606 -3.397640 -0.190878 0
M  V30 22 C 0.587659 -4.342252 -1.130776 0
M  V30 23 C -0.141281 -4.421140 -2.308251 0
M  V30 24 C -1.201325 -3.585815 -2.466722 0
M  V30 25 C -1.615891 -2.657149 -1.546165 0
M  V30 26 H -2.605752 -4.106559 2.588424 0
M  V30 27 H -0.870318 -3.911965 2.264213 0
M  V30 28 H -1.634117 -3.099604 3.659627 0
M  V30 29 H -2.301241 -1.260244 2.510942 0
M  V30 30 H -3.423836 -3.298857 0.565107 0
M  V30 31 H -3.713730 -1.459622 0.534793 0
M  V30 32 H -4.203837 -2.470137 1.963419 0
M  V30 33 H -1.509097 -0.642086 0.467882 0
M  V30 34 H 0.299188 -1.511069 2.414207 0
M  V30 35 H 4.912736 2.294887 -0.834255 0
M  V30 36 H 5.081346 4.724489 0.020143 0
M  V30 37 H 1.662314 6.285552 3.227165 0
M  V30 38 H 0.203027 4.322317 3.542905 0
M  V30 39 H 0.849728 2.256695 2.245570 0
M  V30 40 H 0.815634 -3.415413 0.695194 0
M  V30 41 H 1.429716 -4.992186 -0.981893 0
M  V30 42 H 0.156923 -5.141496 -3.060828 0
M  V30 43 H -1.802435 -3.617980 -3.388600 0
M  V30 44 H -2.443628 -1.967246 -1.607531 0
M  V30 END ATOM
M  V30 BEGIN BOND
M  V30 1 1 1 2
M  V30 2 1 2 3
M  V30 3 1 2 4
M  V30 4 1 4 5
M  V30 5 1 5 6
M  V30 6 2 6 7
M  V30 7 1 7 8
M  V30 8 2 8 9
M  V30 9 1 9 10
M  V30 10 2 10 11
M  V30 11 1 11 12
M  V30 12 1 12 13
M  V30 13 2 13 14
M  V30 14 1 14 15
M  V30 15 2 15 16
M  V30 16 1 16 17
M  V30 17 2 17 18
M  V30 18 1 9 19
M  V30 19 1 4 20
M  V30 20 2 20 21
M  V30 21 1 21 22
M  V30 22 2 22 23
M  V30 23 1 23 24
M  V30 24 2 24 25
M  V30 25 1 19 6
M  V30 26 1 25 20
M  V30 27 1 18 10
M  V30 28 1 18 13
M  V30 29 1 1 26
M  V30 30 1 1 27
M  V30 31 1 1 28
M  V30 32 1 2 29
M  V30 33 1 3 30
M  V30 34 1 3 31
M  V30 35 1 3 32
M  V30 36 1 4 33 CFG=3
M  V30 37 1 5 34
M  V30 38 1 11 35
M  V30 39 1 12 36
M  V30 40 1 15 37
M  V30 41 1 16 38
M  V30 42 1 17 39
M  V30 43 1 21 40
M  V30 44 1 22 41
M  V30 45 1 23 42
M  V30 46 1 24 43
M  V30 47 1 25 44
M  V30 END BOND
M  V30 END CTAB
M  END
>  <Dataset>  (832) 
ChEMBL_Kinases

>  <Ligand_Instance>  (832) 
nan

>  <PDB_ID>  (832) 
nan

>  <Standardized_SMILES>  (832) 
CC(C)[C@@H](Nc1nnc(-c2c[nH]c3ncccc23)o1)c1ccccc1

>  <Name>  (832) 
nan

>  <Pocket>  (832) 
nan

>  <ATP_Site>  (832) 
nan

>  <Peripheral>  (832) 
nan

>  <Num_H_Atoms_ProtBoundConf>  (832) 
nan

>  <Num_Resolved_Atoms>  (832) 
nan

>  <Num_Not_Resolved_Atoms>  (832) 
nan

$$$$
CHEMBL3093074
     RDKit          3D

  0  0  0  0  0  0  0  0  0  0999 V3000
M  V30 BEGIN CTAB
M  V30 COUNTS 42 46 0 0 0
M  V30 BEGIN ATOM
M  V30 1 C 0.443171 -5.318394 0.244393 0
M  V30 2 C -0.416788 -4.607583 1.055504 0
M  V30 3 C 0.113469 -3.609657 1.866544 0
M  V30 4 C 1.459817 -3.313299 1.883172 0
M  V30 5 C 1.800243 -2.205149 2.828688 0 CFG=2
M  V30 6 N 0.835473 -1.184136 2.615047 0
M  V30 7 C 0.701642 -0.684945 1.275663 0
M  V30 8 N 1.396433 -1.124492 0.203480 0
M  V30 9 N 0.968667 -0.402598 -0.820491 0
M  V30 10 C 0.028300 0.473012 -0.417586 0
M  V30 11 C -0.649814 1.419650 -1.304287 0
M  V30 12 C -0.491951 1.616477 -2.669212 0
M  V30 13 N -1.321946 2.594659 -3.073805 0
M  V30 14 C -2.040396 3.067844 -2.017008 0
M  V30 15 N -2.972593 4.037765 -1.985505 0
M  V30 16 C -3.552786 4.331663 -0.798601 0
M  V30 17 C -3.192859 3.646602 0.359543 0
M  V30 18 C -2.227176 2.655657 0.274961 0
M  V30 19 C -1.614702 2.332302 -0.928722 0
M  V30 20 O -0.115983 0.274527 0.887176 0
M  V30 21 C 3.226681 -1.818045 2.750158 0
M  V30 22 C 3.628689 -0.668723 3.728838 0
M  V30 23 C 3.765575 -0.573863 2.218656 0
M  V30 24 C 2.303922 -4.024942 1.074272 0
M  V30 25 C 1.800939 -5.013904 0.266198 0
M  V30 26 H 0.108678 -6.106966 -0.412463 0
M  V30 27 H -1.472421 -4.854021 1.029973 0
M  V30 28 H -0.646754 -3.113009 2.463425 0
M  V30 29 H 1.584374 -2.627465 3.856878 0
M  V30 30 H 0.228077 -0.782364 3.363650 0
M  V30 31 H 0.218453 1.020053 -3.231036 0
M  V30 32 H -1.377042 2.920105 -4.082547 0
M  V30 33 H -4.309106 5.100758 -0.706878 0
M  V30 34 H -3.636937 3.854096 1.334477 0
M  V30 35 H -1.930420 2.110209 1.155438 0
M  V30 36 H 3.945889 -2.683714 2.794663 0
M  V30 37 H 4.571950 -0.811575 4.301053 0
M  V30 38 H 2.801993 -0.134887 4.217275 0
M  V30 39 H 4.825098 -0.588866 1.823998 0
M  V30 40 H 3.195656 0.260824 1.800229 0
M  V30 41 H 3.344873 -3.730567 1.146289 0
M  V30 42 H 2.536505 -5.525584 -0.339786 0
M  V30 END ATOM
M  V30 BEGIN BOND
M  V30 1 2 1 2
M  V30 2 1 2 3
M  V30 3 2 3 4
M  V30 4 1 4 5
M  V30 5 1 5 6
M  V30 6 1 6 7
M  V30 7 2 7 8
M  V30 8 1 8 9
M  V30 9 2 9 10
M  V30 10 1 10 11
M  V30 11 2 11 12
M  V30 12 1 12 13
M  V30 13 1 13 14
M  V30 14 2 14 15
M  V30 15 1 15 16
M  V30 16 2 16 17
M  V30 17 1 17 18
M  V30 18 2 18 19
M  V30 19 1 10 20
M  V30 20 1 5 21
M  V30 21 1 21 22
M  V30 22 1 22 23
M  V30 23 1 4 24
M  V30 24 2 24 25
M  V30 25 1 25 1
M  V30 26 1 20 7
M  V30 27 1 23 21
M  V30 28 1 19 11
M  V30 29 1 19 14
M  V30 30 1 1 26
M  V30 31 1 2 27
M  V30 32 1 3 28
M  V30 33 1 5 29 CFG=1
M  V30 34 1 6 30
M  V30 35 1 12 31
M  V30 36 1 13 32
M  V30 37 1 16 33
M  V30 38 1 17 34
M  V30 39 1 18 35
M  V30 40 1 21 36
M  V30 41 1 22 37
M  V30 42 1 22 38
M  V30 43 1 23 39
M  V30 44 1 23 40
M  V30 45 1 24 41
M  V30 46 1 25 42
M  V30 END BOND
M  V30 END CTAB
M  END
>  <Dataset>  (833) 
ChEMBL_Kinases

>  <Ligand_Instance>  (833) 
nan

>  <PDB_ID>  (833) 
nan

>  <Standardized_SMILES>  (833) 
c1ccc([C@H](Nc2nnc(-c3c[nH]c4ncccc34)o2)C2CC2)cc1

>  <Name>  (833) 
nan

>  <Pocket>  (833) 
nan

>  <ATP_Site>  (833) 
nan

>  <Peripheral>  (833) 
nan

>  <Num_H_Atoms_ProtBoundConf>  (833) 
nan

>  <Num_Resolved_Atoms>  (833) 
nan

>  <Num_Not_Resolved_Atoms>  (833) 
nan

$$$$
CHEMBL3093075
     RDKit          3D

  0  0  0  0  0  0  0  0  0  0999 V3000
M  V30 BEGIN CTAB
M  V30 COUNTS 42 46 0 0 0
M  V30 BEGIN ATOM
M  V30 1 F -0.879163 -4.538422 0.022224 0
M  V30 2 C 0.016503 -4.761198 0.995061 0
M  V30 3 C 0.303372 -6.081575 1.271524 0
M  V30 4 C 1.223828 -6.372664 2.270234 0
M  V30 5 C 1.835395 -5.356062 2.968032 0
M  V30 6 C 1.498377 -4.065699 2.635851 0
M  V30 7 C 0.582008 -3.687064 1.644078 0
M  V30 8 C 0.278405 -2.281307 1.350957 0 CFG=2
M  V30 9 N -1.140682 -2.033656 1.129229 0
M  V30 10 C -1.598929 -0.706343 0.830939 0
M  V30 11 N -2.892525 -0.342865 0.603614 0
M  V30 12 N -2.858861 0.954857 0.372033 0
M  V30 13 C -1.586334 1.421046 0.445995 0
M  V30 14 C -1.246863 2.825209 0.233204 0
M  V30 15 C -2.105772 3.887379 -0.067002 0
M  V30 16 N -1.364472 5.004857 -0.177524 0
M  V30 17 C -0.064756 4.730018 0.034646 0
M  V30 18 N 1.024103 5.540096 0.023363 0
M  V30 19 C 2.242467 5.027837 0.268525 0
M  V30 20 C 2.423830 3.667372 0.538376 0
M  V30 21 C 1.280209 2.888367 0.537174 0
M  V30 22 C 0.018574 3.389854 0.288560 0
M  V30 23 O -0.861909 0.374550 0.726449 0
M  V30 24 C 1.143544 -1.630805 0.321593 0
M  V30 25 C 1.249222 -2.102291 -1.056801 0
M  V30 26 C 2.401944 -2.392991 -0.123806 0
M  V30 27 H -0.171017 -6.888526 0.729740 0
M  V30 28 H 1.469806 -7.394116 2.510414 0
M  V30 29 H 2.567042 -5.510392 3.764062 0
M  V30 30 H 1.982811 -3.251975 3.188845 0
M  V30 31 H 0.489829 -1.746048 2.312696 0
M  V30 32 H -1.828725 -2.801154 1.183049 0
M  V30 33 H -3.172910 3.822528 -0.188414 0
M  V30 34 H -1.729562 5.958366 -0.396352 0
M  V30 35 H 3.125366 5.684218 0.259479 0
M  V30 36 H 3.415933 3.267468 0.734879 0
M  V30 37 H 1.405731 1.850841 0.741379 0
M  V30 38 H 1.374286 -0.535189 0.480119 0
M  V30 39 H 0.678640 -2.935265 -1.489006 0
M  V30 40 H 1.520594 -1.362439 -1.857431 0
M  V30 41 H 2.465835 -3.445754 0.209212 0
M  V30 42 H 3.349718 -1.863606 -0.237485 0
M  V30 END ATOM
M  V30 BEGIN BOND
M  V30 1 1 1 2
M  V30 2 2 2 3
M  V30 3 1 3 4
M  V30 4 2 4 5
M  V30 5 1 5 6
M  V30 6 2 6 7
M  V30 7 1 7 8
M  V30 8 1 8 9
M  V30 9 1 9 10
M  V30 10 2 10 11
M  V30 11 1 11 12
M  V30 12 2 12 13
M  V30 13 1 13 14
M  V30 14 2 14 15
M  V30 15 1 15 16
M  V30 16 1 16 17
M  V30 17 2 17 18
M  V30 18 1 18 19
M  V30 19 2 19 20
M  V30 20 1 20 21
M  V30 21 2 21 22
M  V30 22 1 13 23
M  V30 23 1 8 24
M  V30 24 1 24 25
M  V30 25 1 25 26
M  V30 26 1 7 2
M  V30 27 1 23 10
M  V30 28 1 26 24
M  V30 29 1 22 14
M  V30 30 1 22 17
M  V30 31 1 3 27
M  V30 32 1 4 28
M  V30 33 1 5 29
M  V30 34 1 6 30
M  V30 35 1 8 31 CFG=1
M  V30 36 1 9 32
M  V30 37 1 15 33
M  V30 38 1 16 34
M  V30 39 1 19 35
M  V30 40 1 20 36
M  V30 41 1 21 37
M  V30 42 1 24 38
M  V30 43 1 25 39
M  V30 44 1 25 40
M  V30 45 1 26 41
M  V30 46 1 26 42
M  V30 END BOND
M  V30 END CTAB
M  END
>  <Dataset>  (834) 
ChEMBL_Kinases

>  <Ligand_Instance>  (834) 
nan

>  <PDB_ID>  (834) 
nan

>  <Standardized_SMILES>  (834) 
Fc1ccccc1[C@H](Nc1nnc(-c2c[nH]c3ncccc23)o1)C1CC1

>  <Name>  (834) 
nan

>  <Pocket>  (834) 
nan

>  <ATP_Site>  (834) 
nan

>  <Peripheral>  (834) 
nan

>  <Num_H_Atoms_ProtBoundConf>  (834) 
nan

>  <Num_Resolved_Atoms>  (834) 
nan

>  <Num_Not_Resolved_Atoms>  (834) 
nan

$$$$
CHEMBL3093076
     RDKit          3D

  0  0  0  0  0  0  0  0  0  0999 V3000
M  V30 BEGIN CTAB
M  V30 COUNTS 41 45 0 0 0
M  V30 BEGIN ATOM
M  V30 1 F -0.836759 -2.318309 1.513586 0
M  V30 2 C 0.468071 -2.307494 1.825787 0
M  V30 3 N 0.882911 -2.109769 3.090965 0
M  V30 4 C 2.167501 -2.087056 3.432330 0
M  V30 5 C 3.144074 -2.271236 2.469724 0
M  V30 6 C 2.698521 -2.472761 1.177383 0
M  V30 7 C 1.354597 -2.502749 0.783357 0
M  V30 8 C 1.048226 -2.735158 -0.629495 0 CFG=2
M  V30 9 N -0.154112 -2.045175 -1.061280 0
M  V30 10 C -0.049733 -0.634976 -0.904947 0
M  V30 11 N 0.464639 0.018547 -1.987894 0
M  V30 12 N 0.501158 1.326369 -1.693443 0
M  V30 13 C 0.017383 1.462518 -0.453955 0
M  V30 14 C -0.128533 2.716310 0.276726 0
M  V30 15 C 0.195584 3.987546 -0.151825 0
M  V30 16 N -0.090051 4.890087 0.821574 0
M  V30 17 C -0.604370 4.234803 1.902685 0
M  V30 18 N -1.051830 4.620460 3.124716 0
M  V30 19 C -1.514583 3.680828 3.994400 0
M  V30 20 C -1.559242 2.313507 3.702416 0
M  V30 21 C -1.100434 1.930339 2.452974 0
M  V30 22 C -0.623635 2.885877 1.553174 0
M  V30 23 O -0.310058 0.279600 0.009693 0
M  V30 24 C 1.026281 -4.191878 -1.016586 0
M  V30 25 C 0.067708 -5.146483 -0.364167 0
M  V30 26 C -0.106760 -4.753796 -1.783802 0
M  V30 27 H 2.529358 -1.930868 4.437770 0
M  V30 28 H 4.211456 -2.268489 2.654856 0
M  V30 29 H 3.458338 -2.620284 0.402283 0
M  V30 30 H 1.877348 -2.255245 -1.221056 0
M  V30 31 H -1.116138 -2.231228 -1.466197 0
M  V30 32 H 0.620916 4.222032 -1.136500 0
M  V30 33 H 0.048942 5.941584 0.786841 0
M  V30 34 H -1.865808 4.045932 4.972031 0
M  V30 35 H -1.942421 1.623978 4.448702 0
M  V30 36 H -1.123400 0.868072 2.197013 0
M  V30 37 H 2.031340 -4.584960 -1.330527 0
M  V30 38 H -0.565832 -4.748060 0.433583 0
M  V30 39 H 0.416383 -6.191142 -0.151099 0
M  V30 40 H 0.088915 -5.551084 -2.529980 0
M  V30 41 H -1.023116 -4.186238 -2.026736 0
M  V30 END ATOM
M  V30 BEGIN BOND
M  V30 1 1 1 2
M  V30 2 2 2 3
M  V30 3 1 3 4
M  V30 4 2 4 5
M  V30 5 1 5 6
M  V30 6 2 6 7
M  V30 7 1 7 8
M  V30 8 1 8 9
M  V30 9 1 9 10
M  V30 10 2 10 11
M  V30 11 1 11 12
M  V30 12 2 12 13
M  V30 13 1 13 14
M  V30 14 2 14 15
M  V30 15 1 15 16
M  V30 16 1 16 17
M  V30 17 2 17 18
M  V30 18 1 18 19
M  V30 19 2 19 20
M  V30 20 1 20 21
M  V30 21 2 21 22
M  V30 22 1 13 23
M  V30 23 1 8 24
M  V30 24 1 24 25
M  V30 25 1 25 26
M  V30 26 1 7 2
M  V30 27 1 23 10
M  V30 28 1 26 24
M  V30 29 1 22 14
M  V30 30 1 22 17
M  V30 31 1 4 27
M  V30 32 1 5 28
M  V30 33 1 6 29
M  V30 34 1 8 30 CFG=3
M  V30 35 1 9 31
M  V30 36 1 15 32
M  V30 37 1 16 33
M  V30 38 1 19 34
M  V30 39 1 20 35
M  V30 40 1 21 36
M  V30 41 1 24 37
M  V30 42 1 25 38
M  V30 43 1 25 39
M  V30 44 1 26 40
M  V30 45 1 26 41
M  V30 END BOND
M  V30 END CTAB
M  END
>  <Dataset>  (835) 
ChEMBL_Kinases

>  <Ligand_Instance>  (835) 
nan

>  <PDB_ID>  (835) 
nan

>  <Standardized_SMILES>  (835) 
Fc1ncccc1[C@H](Nc1nnc(-c2c[nH]c3ncccc23)o1)C1CC1

>  <Name>  (835) 
nan

>  <Pocket>  (835) 
nan

>  <ATP_Site>  (835) 
nan

>  <Peripheral>  (835) 
nan

>  <Num_H_Atoms_ProtBoundConf>  (835) 
nan

>  <Num_Resolved_Atoms>  (835) 
nan

>  <Num_Not_Resolved_Atoms>  (835) 
nan

$$$$
CHEMBL3093077
     RDKit          3D

  0  0  0  0  0  0  0  0  0  0999 V3000
M  V30 BEGIN CTAB
M  V30 COUNTS 41 45 0 0 0
M  V30 BEGIN ATOM
M  V30 1 F 3.278749 -4.881558 0.348048 0
M  V30 2 C 3.228293 -3.743993 1.087756 0
M  V30 3 C 4.094767 -3.722356 2.153178 0
M  V30 4 N 4.116106 -2.637629 2.943395 0
M  V30 5 C 3.297978 -1.608748 2.677029 0
M  V30 6 C 2.449922 -1.679838 1.599210 0
M  V30 7 C 2.329505 -2.723980 0.717196 0
M  V30 8 C 1.473050 -2.929847 -0.459357 0 CFG=2
M  V30 9 N 1.362144 -1.845091 -1.372928 0
M  V30 10 C 0.903181 -0.485528 -1.523075 0
M  V30 11 N 0.920239 0.439711 -2.534056 0
M  V30 12 N 0.341024 1.522792 -2.068159 0
M  V30 13 C -0.038862 1.326912 -0.818199 0
M  V30 14 C -0.713819 2.371503 -0.048343 0
M  V30 15 C -1.064152 3.669788 -0.439510 0
M  V30 16 N -1.672781 4.301134 0.578436 0
M  V30 17 C -1.754254 3.491403 1.649018 0
M  V30 18 N -2.278425 3.705409 2.869269 0
M  V30 19 C -2.251046 2.736989 3.805231 0
M  V30 20 C -1.673489 1.527803 3.477436 0
M  V30 21 C -1.138490 1.322035 2.218768 0
M  V30 22 C -1.165435 2.304498 1.266664 0
M  V30 23 O 0.312699 0.112855 -0.521036 0
M  V30 24 C 0.139273 -3.556906 -0.084181 0
M  V30 25 C -0.775426 -2.805226 0.877081 0
M  V30 26 C -1.147361 -2.966896 -0.570068 0
M  V30 27 H 4.758254 -4.542820 2.379300 0
M  V30 28 H 3.291478 -0.722259 3.293847 0
M  V30 29 H 1.810126 -0.835062 1.425798 0
M  V30 30 H 1.986872 -3.764098 -1.048338 0
M  V30 31 H 1.749768 -2.049227 -2.344618 0
M  V30 32 H -0.852838 4.064799 -1.434104 0
M  V30 33 H -2.029238 5.289664 0.528111 0
M  V30 34 H -2.649976 2.810226 4.826283 0
M  V30 35 H -1.634867 0.721074 4.213323 0
M  V30 36 H -0.688162 0.377221 1.967803 0
M  V30 37 H 0.112656 -4.679966 -0.017283 0
M  V30 38 H -0.337308 -1.875469 1.252074 0
M  V30 39 H -1.331774 -3.445359 1.611423 0
M  V30 40 H -2.013325 -3.643438 -0.769873 0
M  V30 41 H -1.192222 -2.046571 -1.157468 0
M  V30 END ATOM
M  V30 BEGIN BOND
M  V30 1 1 1 2
M  V30 2 2 2 3
M  V30 3 1 3 4
M  V30 4 2 4 5
M  V30 5 1 5 6
M  V30 6 2 6 7
M  V30 7 1 7 8
M  V30 8 1 8 9
M  V30 9 1 9 10
M  V30 10 2 10 11
M  V30 11 1 11 12
M  V30 12 2 12 13
M  V30 13 1 13 14
M  V30 14 2 14 15
M  V30 15 1 15 16
M  V30 16 1 16 17
M  V30 17 2 17 18
M  V30 18 1 18 19
M  V30 19 2 19 20
M  V30 20 1 20 21
M  V30 21 2 21 22
M  V30 22 1 13 23
M  V30 23 1 8 24
M  V30 24 1 24 25
M  V30 25 1 25 26
M  V30 26 1 7 2
M  V30 27 1 23 10
M  V30 28 1 26 24
M  V30 29 1 22 14
M  V30 30 1 22 17
M  V30 31 1 3 27
M  V30 32 1 5 28
M  V30 33 1 6 29
M  V30 34 1 8 30 CFG=3
M  V30 35 1 9 31
M  V30 36 1 15 32
M  V30 37 1 16 33
M  V30 38 1 19 34
M  V30 39 1 20 35
M  V30 40 1 21 36
M  V30 41 1 24 37
M  V30 42 1 25 38
M  V30 43 1 25 39
M  V30 44 1 26 40
M  V30 45 1 26 41
M  V30 END BOND
M  V30 END CTAB
M  END
>  <Dataset>  (836) 
ChEMBL_Kinases

>  <Ligand_Instance>  (836) 
nan

>  <PDB_ID>  (836) 
nan

>  <Standardized_SMILES>  (836) 
Fc1cnccc1[C@H](Nc1nnc(-c2c[nH]c3ncccc23)o1)C1CC1

>  <Name>  (836) 
nan

>  <Pocket>  (836) 
nan

>  <ATP_Site>  (836) 
nan

>  <Peripheral>  (836) 
nan

>  <Num_H_Atoms_ProtBoundConf>  (836) 
nan

>  <Num_Resolved_Atoms>  (836) 
nan

>  <Num_Not_Resolved_Atoms>  (836) 
nan

$$$$
CHEMBL3093078
     RDKit          3D

  0  0  0  0  0  0  0  0  0  0999 V3000
M  V30 BEGIN CTAB
M  V30 COUNTS 41 45 0 0 0
M  V30 BEGIN ATOM
M  V30 1 F 2.342278 -5.161113 -0.160855 0
M  V30 2 C 2.643446 -4.022092 0.512227 0
M  V30 3 C 3.783688 -4.101478 1.277268 0
M  V30 4 C 4.151312 -2.982032 1.990100 0
M  V30 5 C 3.379978 -1.846157 1.913296 0
M  V30 6 C 2.257568 -1.857394 1.124047 0
M  V30 7 C 1.793549 -2.908031 0.371494 0
M  V30 8 C 0.599819 -3.017413 -0.501306 0 CFG=2
M  V30 9 N 0.380663 -1.944618 -1.407716 0
M  V30 10 C 0.083830 -0.543095 -1.506629 0
M  V30 11 N -0.057740 0.340879 -2.541722 0
M  V30 12 N -0.336525 1.518266 -2.031199 0
M  V30 13 C -0.380297 1.431332 -0.720103 0
M  V30 14 C -0.667754 2.571506 0.141339 0
M  V30 15 C -0.937558 3.893609 -0.231795 0
M  V30 16 N -1.151141 4.645736 0.856868 0
M  V30 17 C -1.040286 3.898891 1.969707 0
M  V30 18 N -1.166910 4.205335 3.273529 0
M  V30 19 C -1.000451 3.238248 4.221428 0
M  V30 20 N -0.710442 1.992326 3.804007 0
M  V30 21 C -0.581223 1.675418 2.493069 0
M  V30 22 C -0.743745 2.629559 1.518126 0
M  V30 23 O -0.125105 0.189237 -0.444941 0
M  V30 24 C -0.615719 -3.438676 0.294358 0
M  V30 25 C -1.086905 -2.574802 1.406524 0
M  V30 26 C -1.892346 -2.670237 0.135934 0
M  V30 27 H 4.383245 -4.996915 1.331462 0
M  V30 28 H 5.020572 -2.960453 2.606662 0
M  V30 29 H 3.638737 -0.950549 2.458663 0
M  V30 30 H 1.680888 -0.951491 1.095796 0
M  V30 31 H 0.818936 -3.928245 -1.154878 0
M  V30 32 H 0.450426 -2.231458 -2.441710 0
M  V30 33 H -0.961393 4.224697 -1.276414 0
M  V30 34 H -1.372330 5.677333 0.797602 0
M  V30 35 H -1.094528 3.447190 5.276765 0
M  V30 36 H -0.349216 0.671885 2.206268 0
M  V30 37 H -0.749865 -4.550107 0.381160 0
M  V30 38 H -0.571944 -1.618466 1.561845 0
M  V30 39 H -1.511127 -3.005004 2.337633 0
M  V30 40 H -1.890368 -1.867486 -0.616423 0
M  V30 41 H -2.861180 -3.220187 0.233595 0
M  V30 END ATOM
M  V30 BEGIN BOND
M  V30 1 1 1 2
M  V30 2 2 2 3
M  V30 3 1 3 4
M  V30 4 2 4 5
M  V30 5 1 5 6
M  V30 6 2 6 7
M  V30 7 1 7 8
M  V30 8 1 8 9
M  V30 9 1 9 10
M  V30 10 2 10 11
M  V30 11 1 11 12
M  V30 12 2 12 13
M  V30 13 1 13 14
M  V30 14 2 14 15
M  V30 15 1 15 16
M  V30 16 1 16 17
M  V30 17 2 17 18
M  V30 18 1 18 19
M  V30 19 2 19 20
M  V30 20 1 20 21
M  V30 21 2 21 22
M  V30 22 1 13 23
M  V30 23 1 8 24
M  V30 24 1 24 25
M  V30 25 1 25 26
M  V30 26 1 7 2
M  V30 27 1 23 10
M  V30 28 1 26 24
M  V30 29 1 22 14
M  V30 30 1 22 17
M  V30 31 1 3 27
M  V30 32 1 4 28
M  V30 33 1 5 29
M  V30 34 1 6 30
M  V30 35 1 8 31 CFG=3
M  V30 36 1 9 32
M  V30 37 1 15 33
M  V30 38 1 16 34
M  V30 39 1 19 35
M  V30 40 1 21 36
M  V30 41 1 24 37
M  V30 42 1 25 38
M  V30 43 1 25 39
M  V30 44 1 26 40
M  V30 45 1 26 41
M  V30 END BOND
M  V30 END CTAB
M  END
>  <Dataset>  (837) 
ChEMBL_Kinases

>  <Ligand_Instance>  (837) 
nan

>  <PDB_ID>  (837) 
nan

>  <Standardized_SMILES>  (837) 
Fc1ccccc1[C@H](Nc1nnc(-c2c[nH]c3ncncc23)o1)C1CC1

>  <Name>  (837) 
nan

>  <Pocket>  (837) 
nan

>  <ATP_Site>  (837) 
nan

>  <Peripheral>  (837) 
nan

>  <Num_H_Atoms_ProtBoundConf>  (837) 
nan

>  <Num_Resolved_Atoms>  (837) 
nan

>  <Num_Not_Resolved_Atoms>  (837) 
nan

$$$$
CHEMBL3093079
     RDKit          3D

  0  0  0  0  0  0  0  0  0  0999 V3000
M  V30 BEGIN CTAB
M  V30 COUNTS 41 45 0 0 0
M  V30 BEGIN ATOM
M  V30 1 F 0.715917 -5.818884 4.769691 0
M  V30 2 C 0.961052 -5.370571 3.529037 0
M  V30 3 C 0.382476 -4.152678 3.254376 0
M  V30 4 C 0.532843 -3.547219 2.028487 0
M  V30 5 C 1.286770 -4.175436 1.037348 0
M  V30 6 C 1.633172 -3.864936 -0.260428 0
M  V30 7 C 1.215300 -2.643973 -0.940732 0
M  V30 8 N 1.488193 -2.233492 -2.186755 0
M  V30 9 N 0.883593 -1.063092 -2.336422 0
M  V30 10 C 0.234289 -0.737598 -1.193861 0
M  V30 11 N -0.560502 0.372729 -0.791280 0
M  V30 12 C 0.070656 1.529915 -0.151588 0 CFG=1
M  V30 13 C -0.912999 2.589959 0.190921 0
M  V30 14 C -0.600324 3.943852 0.072506 0
M  V30 15 C -1.536010 4.924176 0.395633 0
M  V30 16 C -2.790383 4.549526 0.839323 0
M  V30 17 N -3.115686 3.227612 0.961966 0
M  V30 18 C -2.184973 2.280051 0.640379 0
M  V30 19 F -2.568383 0.990732 0.783503 0
M  V30 20 C 0.902638 1.078146 1.006648 0
M  V30 21 C 1.638861 2.118224 1.802537 0
M  V30 22 C 0.489460 1.356695 2.407437 0
M  V30 23 O 0.465269 -1.732438 -0.370294 0
M  V30 24 C 2.410133 -4.898702 -0.737851 0
M  V30 25 N 2.526250 -5.812706 0.259021 0
M  V30 26 C 1.854448 -5.404916 1.355422 0
M  V30 27 N 1.686078 -5.971048 2.570708 0
M  V30 28 H -0.211514 -3.589746 3.939775 0
M  V30 29 H 0.091841 -2.587214 1.774538 0
M  V30 30 H -1.530982 0.108039 -1.062260 0
M  V30 31 H 0.770808 1.908680 -0.954266 0
M  V30 32 H 0.362049 4.259436 -0.268930 0
M  V30 33 H -1.247078 5.954945 0.287457 0
M  V30 34 H -3.500441 5.347013 1.084039 0
M  V30 35 H 1.367629 0.078540 0.853536 0
M  V30 36 H 2.672564 1.859881 2.093127 0
M  V30 37 H 1.430507 3.183739 1.585353 0
M  V30 38 H -0.469517 1.868861 2.628031 0
M  V30 39 H 0.795953 0.652512 3.210428 0
M  V30 40 H 2.849031 -4.965086 -1.735740 0
M  V30 41 H 3.063848 -6.709576 0.184263 0
M  V30 END ATOM
M  V30 BEGIN BOND
M  V30 1 1 1 2
M  V30 2 2 2 3
M  V30 3 1 3 4
M  V30 4 2 4 5
M  V30 5 1 5 6
M  V30 6 1 6 7
M  V30 7 2 7 8
M  V30 8 1 8 9
M  V30 9 2 9 10
M  V30 10 1 10 11
M  V30 11 1 11 12
M  V30 12 1 12 13
M  V30 13 2 13 14
M  V30 14 1 14 15
M  V30 15 2 15 16
M  V30 16 1 16 17
M  V30 17 2 17 18
M  V30 18 1 18 19
M  V30 19 1 12 20
M  V30 20 1 20 21
M  V30 21 1 21 22
M  V30 22 1 10 23
M  V30 23 2 6 24
M  V30 24 1 24 25
M  V30 25 1 25 26
M  V30 26 2 26 27
M  V30 27 1 27 2
M  V30 28 1 26 5
M  V30 29 1 23 7
M  V30 30 1 18 13
M  V30 31 1 22 20
M  V30 32 1 3 28
M  V30 33 1 4 29
M  V30 34 1 11 30
M  V30 35 1 12 31 CFG=3
M  V30 36 1 14 32
M  V30 37 1 15 33
M  V30 38 1 16 34
M  V30 39 1 20 35
M  V30 40 1 21 36
M  V30 41 1 21 37
M  V30 42 1 22 38
M  V30 43 1 22 39
M  V30 44 1 24 40
M  V30 45 1 25 41
M  V30 END BOND
M  V30 END CTAB
M  END
>  <Dataset>  (838) 
ChEMBL_Kinases

>  <Ligand_Instance>  (838) 
nan

>  <PDB_ID>  (838) 
nan

>  <Standardized_SMILES>  (838) 
Fc1ccc2c(-c3nnc(N[C@@H](c4cccnc4F)C4CC4)o3)c[nH]c2n1

>  <Name>  (838) 
nan

>  <Pocket>  (838) 
nan

>  <ATP_Site>  (838) 
nan

>  <Peripheral>  (838) 
nan

>  <Num_H_Atoms_ProtBoundConf>  (838) 
nan

>  <Num_Resolved_Atoms>  (838) 
nan

>  <Num_Not_Resolved_Atoms>  (838) 
nan

$$$$
CHEMBL3093071
     RDKit          3D

  0  0  0  0  0  0  0  0  0  0999 V3000
M  V30 BEGIN CTAB
M  V30 COUNTS 41 44 0 0 0
M  V30 BEGIN ATOM
M  V30 1 C -1.488482 -4.730277 0.461125 0
M  V30 2 C -0.614990 -3.626243 1.058934 0
M  V30 3 C 0.436322 -4.261662 1.918934 0
M  V30 4 N 0.046971 -2.887133 -0.019516 0
M  V30 5 C 0.949908 -1.789278 -0.087080 0
M  V30 6 N 2.298790 -1.790837 -0.085395 0
M  V30 7 N 2.670919 -0.514988 -0.164710 0
M  V30 8 C 1.587207 0.282416 -0.215829 0
M  V30 9 C 1.501783 1.737446 -0.306875 0
M  V30 10 C 0.295029 2.406399 -0.350029 0
M  V30 11 N 0.584113 3.725383 -0.432138 0
M  V30 12 C 1.917660 3.866299 -0.439458 0
M  V30 13 N 2.729886 4.955083 -0.506595 0
M  V30 14 C 4.056254 4.860431 -0.499198 0
M  V30 15 C 4.692506 3.619017 -0.420905 0
M  V30 16 C 3.928572 2.492031 -0.351326 0
M  V30 17 C 2.555423 2.628276 -0.361374 0
M  V30 18 O 0.551682 -0.522800 -0.166717 0
M  V30 19 C -1.507294 -2.693784 1.800114 0
M  V30 20 C -2.890555 -2.806126 1.925378 0
M  V30 21 C -3.584945 -1.856355 2.649613 0
M  V30 22 C -2.965840 -0.804605 3.251814 0
M  V30 23 C -1.598193 -0.672531 3.141770 0
M  V30 24 C -0.874007 -1.621560 2.413736 0
M  V30 25 H -2.011777 -5.197802 1.299578 0
M  V30 26 H -2.170584 -4.332240 -0.321472 0
M  V30 27 H -0.787671 -5.486529 0.048191 0
M  V30 28 H 1.363444 -3.652685 1.904143 0
M  V30 29 H 0.047337 -4.356906 2.957318 0
M  V30 30 H 0.606422 -5.280375 1.541029 0
M  V30 31 H -0.107793 -3.140848 -1.033616 0
M  V30 32 H -0.720483 2.009614 -0.326360 0
M  V30 33 H -0.128056 4.479964 -0.480084 0
M  V30 34 H 4.633450 5.766009 -0.555146 0
M  V30 35 H 5.771381 3.555698 -0.415741 0
M  V30 36 H 4.338481 1.491369 -0.288331 0
M  V30 37 H -3.334210 -3.650329 1.434332 0
M  V30 38 H -4.666446 -1.993852 2.714894 0
M  V30 39 H -3.573055 -0.101990 3.801047 0
M  V30 40 H -1.172020 0.179841 3.640694 0
M  V30 41 H 0.185696 -1.379591 2.420333 0
M  V30 END ATOM
M  V30 BEGIN BOND
M  V30 1 1 1 2
M  V30 2 1 2 3
M  V30 3 1 2 4
M  V30 4 1 4 5
M  V30 5 2 5 6
M  V30 6 1 6 7
M  V30 7 2 7 8
M  V30 8 1 8 9
M  V30 9 2 9 10
M  V30 10 1 10 11
M  V30 11 1 11 12
M  V30 12 2 12 13
M  V30 13 1 13 14
M  V30 14 2 14 15
M  V30 15 1 15 16
M  V30 16 2 16 17
M  V30 17 1 8 18
M  V30 18 1 2 19
M  V30 19 2 19 20
M  V30 20 1 20 21
M  V30 21 2 21 22
M  V30 22 1 22 23
M  V30 23 2 23 24
M  V30 24 1 18 5
M  V30 25 1 24 19
M  V30 26 1 17 9
M  V30 27 1 17 12
M  V30 28 1 1 25
M  V30 29 1 1 26
M  V30 30 1 1 27
M  V30 31 1 3 28
M  V30 32 1 3 29
M  V30 33 1 3 30
M  V30 34 1 4 31
M  V30 35 1 10 32
M  V30 36 1 11 33
M  V30 37 1 14 34
M  V30 38 1 15 35
M  V30 39 1 16 36
M  V30 40 1 20 37
M  V30 41 1 21 38
M  V30 42 1 22 39
M  V30 43 1 23 40
M  V30 44 1 24 41
M  V30 END BOND
M  V30 END CTAB
M  END
>  <Dataset>  (839) 
ChEMBL_Kinases

>  <Ligand_Instance>  (839) 
nan

>  <PDB_ID>  (839) 
nan

>  <Standardized_SMILES>  (839) 
CC(C)(Nc1nnc(-c2c[nH]c3ncccc23)o1)c1ccccc1

>  <Name>  (839) 
nan

>  <Pocket>  (839) 
nan

>  <ATP_Site>  (839) 
nan

>  <Peripheral>  (839) 
nan

>  <Num_H_Atoms_ProtBoundConf>  (839) 
nan

>  <Num_Resolved_Atoms>  (839) 
nan

>  <Num_Not_Resolved_Atoms>  (839) 
nan

$$$$
CHEMBL3099837
     RDKit          3D

  0  0  0  0  0  0  0  0  0  0999 V3000
M  V30 BEGIN CTAB
M  V30 COUNTS 65 70 0 0 0
M  V30 BEGIN ATOM
M  V30 1 C 2.262636 2.058490 5.238385 0
M  V30 2 C 3.554929 2.132036 5.414995 0
M  V30 3 C 4.412546 1.601235 4.343055 0
M  V30 4 N 3.654538 1.061894 3.230185 0
M  V30 5 C 3.237707 -0.200032 3.062084 0
M  V30 6 C 2.533493 -0.366859 1.861501 0
M  V30 7 C 2.011510 -1.678187 1.499802 0
M  V30 8 C 0.793652 -2.089491 1.106086 0
M  V30 9 C -0.487245 -1.439344 0.876193 0
M  V30 10 N -0.996540 -0.416067 0.194235 0
M  V30 11 N -2.284041 -0.239868 0.399869 0
M  V30 12 C -3.161375 0.772424 -0.177725 0
M  V30 13 C -3.819010 0.207798 -1.449611 0
M  V30 14 C -2.750384 -0.151301 -2.409088 0
M  V30 15 N -3.164089 -0.719855 -3.655236 0
M  V30 16 C -3.739898 -2.036483 -3.588376 0
M  V30 17 C -2.740935 -3.136768 -3.323734 0
M  V30 18 O -1.458036 -2.714147 -3.104253 0
M  V30 19 C -0.960269 -1.790591 -3.984573 0
M  V30 20 C -1.989838 -0.812661 -4.503466 0
M  V30 21 C -2.747886 -1.173984 1.274020 0
M  V30 22 N -3.948937 -1.398769 1.781852 0
M  V30 23 C -4.157412 -2.402583 2.648591 0
M  V30 24 C -3.097131 -3.211331 3.012743 0
M  V30 25 C -1.864426 -2.945163 2.462735 0
M  V30 26 C -1.616705 -1.906846 1.556269 0
M  V30 27 C 0.907066 -3.546625 0.853325 0
M  V30 28 O 0.009013 -4.371226 0.459277 0
M  V30 29 N 2.214062 -4.018221 1.100912 0
M  V30 30 C 2.915079 -2.851625 1.507874 0
M  V30 31 O 4.143576 -2.875029 1.822315 0
M  V30 32 C 2.557346 0.903984 1.309539 0
M  V30 33 C 1.990047 1.245205 0.101444 0
M  V30 34 C 2.138235 2.585611 -0.267895 0
M  V30 35 C 2.819602 3.478929 0.557021 0
M  V30 36 C 3.367202 3.095094 1.746691 0
M  V30 37 C 3.237906 1.759729 2.147354 0
M  V30 38 H 1.913233 1.621060 4.333546 0
M  V30 39 H 1.310454 2.290175 5.694625 0
M  V30 40 H 4.155102 2.520828 6.224597 0
M  V30 41 H 5.152370 2.327298 3.969951 0
M  V30 42 H 4.976544 0.745461 4.793648 0
M  V30 43 H 3.455958 -0.949076 3.807294 0
M  V30 44 H -2.558103 1.673572 -0.435383 0
M  V30 45 H -3.880198 1.063464 0.588866 0
M  V30 46 H -4.503911 -0.613037 -1.162094 0
M  V30 47 H -4.475122 1.016792 -1.830671 0
M  V30 48 H -1.953235 -0.761264 -1.945421 0
M  V30 49 H -2.240339 0.818883 -2.697338 0
M  V30 50 H -4.593336 -2.135643 -2.887411 0
M  V30 51 H -4.172527 -2.227971 -4.595917 0
M  V30 52 H -2.696239 -3.898871 -4.150925 0
M  V30 53 H -3.051888 -3.726089 -2.432681 0
M  V30 54 H -0.467347 -2.301993 -4.822131 0
M  V30 55 H -0.198009 -1.193241 -3.407752 0
M  V30 56 H -1.515821 0.209649 -4.574582 0
M  V30 57 H -2.250797 -1.072647 -5.543395 0
M  V30 58 H -5.180372 -2.534228 3.034561 0
M  V30 59 H -3.261968 -4.005796 3.700577 0
M  V30 60 H -1.075850 -3.601652 2.792892 0
M  V30 61 H 2.594374 -4.980347 1.012481 0
M  V30 62 H 1.470200 0.543385 -0.532439 0
M  V30 63 H 1.721729 2.946039 -1.205816 0
M  V30 64 H 2.953951 4.514427 0.306862 0
M  V30 65 H 3.914091 3.693642 2.464448 0
M  V30 END ATOM
M  V30 BEGIN BOND
M  V30 1 2 1 2
M  V30 2 1 2 3
M  V30 3 1 3 4
M  V30 4 1 4 5
M  V30 5 2 5 6
M  V30 6 1 6 7
M  V30 7 2 7 8
M  V30 8 1 8 9
M  V30 9 2 9 10
M  V30 10 1 10 11
M  V30 11 1 11 12
M  V30 12 1 12 13
M  V30 13 1 13 14
M  V30 14 1 14 15
M  V30 15 1 15 16
M  V30 16 1 16 17
M  V30 17 1 17 18
M  V30 18 1 18 19
M  V30 19 1 19 20
M  V30 20 1 11 21
M  V30 21 2 21 22
M  V30 22 1 22 23
M  V30 23 2 23 24
M  V30 24 1 24 25
M  V30 25 2 25 26
M  V30 26 1 8 27
M  V30 27 2 27 28
M  V30 28 1 27 29
M  V30 29 1 29 30
M  V30 30 2 30 31
M  V30 31 1 6 32
M  V30 32 2 32 33
M  V30 33 1 33 34
M  V30 34 2 34 35
M  V30 35 1 35 36
M  V30 36 2 36 37
M  V30 37 1 37 4
M  V30 38 1 30 7
M  V30 39 1 37 32
M  V30 40 1 26 9
M  V30 41 1 20 15
M  V30 42 1 26 21
M  V30 43 1 1 38
M  V30 44 1 1 39
M  V30 45 1 2 40
M  V30 46 1 3 41
M  V30 47 1 3 42
M  V30 48 1 5 43
M  V30 49 1 12 44
M  V30 50 1 12 45
M  V30 51 1 13 46
M  V30 52 1 13 47
M  V30 53 1 14 48
M  V30 54 1 14 49
M  V30 55 1 16 50
M  V30 56 1 16 51
M  V30 57 1 17 52
M  V30 58 1 17 53
M  V30 59 1 19 54
M  V30 60 1 19 55
M  V30 61 1 20 56
M  V30 62 1 20 57
M  V30 63 1 23 58
M  V30 64 1 24 59
M  V30 65 1 25 60
M  V30 66 1 29 61
M  V30 67 1 33 62
M  V30 68 1 34 63
M  V30 69 1 35 64
M  V30 70 1 36 65
M  V30 END BOND
M  V30 END CTAB
M  END
>  <Dataset>  (840) 
ChEMBL_Kinases

>  <Ligand_Instance>  (840) 
nan

>  <PDB_ID>  (840) 
nan

>  <Standardized_SMILES>  (840) 
C=CCn1cc(C2=C(c3nn(CCCN4CCOCC4)c4ncccc34)C(=O)NC2=O)c2ccccc21

>  <Name>  (840) 
nan

>  <Pocket>  (840) 
nan

>  <ATP_Site>  (840) 
nan

>  <Peripheral>  (840) 
nan

>  <Num_H_Atoms_ProtBoundConf>  (840) 
nan

>  <Num_Resolved_Atoms>  (840) 
nan

>  <Num_Not_Resolved_Atoms>  (840) 
nan

$$$$
CHEMBL3099836
     RDKit          3D

  0  0  0  0  0  0  0  0  0  0999 V3000
M  V30 BEGIN CTAB
M  V30 COUNTS 71 77 0 0 0
M  V30 BEGIN ATOM
M  V30 1 O 2.289336 -6.306701 1.756232 0
M  V30 2 C 2.470284 -5.480272 0.796882 0
M  V30 3 N 3.335968 -5.737247 -0.307280 0
M  V30 4 C 3.222665 -4.561779 -1.102457 0
M  V30 5 O 3.856302 -4.414262 -2.189454 0
M  V30 6 C 2.301411 -3.625018 -0.471566 0
M  V30 7 C 2.000334 -2.296462 -0.977442 0
M  V30 8 N 1.565640 -1.790812 -2.145295 0
M  V30 9 N 1.495501 -0.477496 -2.112121 0
M  V30 10 C 1.097657 0.500033 -3.110143 0
M  V30 11 C -0.393979 0.835147 -3.009123 0
M  V30 12 C -0.712626 1.877714 -4.080178 0
M  V30 13 N -2.069613 2.233674 -4.021265 0
M  V30 14 C -2.570938 3.210628 -4.912093 0
M  V30 15 C -3.537986 4.114402 -4.133990 0
M  V30 16 O -3.906146 3.504538 -2.925544 0
M  V30 17 C -4.281367 2.181288 -3.167528 0
M  V30 18 C -2.986141 1.398461 -3.349803 0
M  V30 19 C 1.893998 -0.030081 -0.878554 0
M  V30 20 N 2.010332 1.221389 -0.339985 0
M  V30 21 C 2.448768 1.351713 0.925044 0
M  V30 22 C 2.784807 0.264480 1.696156 0
M  V30 23 C 2.655889 -0.983554 1.123224 0
M  V30 24 C 2.210181 -1.193788 -0.172705 0
M  V30 25 C 1.845224 -4.169410 0.665456 0
M  V30 26 C 0.850657 -3.684146 1.635264 0
M  V30 27 C 0.869871 -3.590488 3.010967 0
M  V30 28 N -0.304509 -3.116083 3.489283 0
M  V30 29 C -0.650283 -2.890048 4.869366 0
M  V30 30 C -0.332517 -1.520274 5.351957 0
M  V30 31 C -1.254974 -0.500749 5.274278 0
M  V30 32 C -1.057046 0.803184 5.696866 0
M  V30 33 C 0.166547 1.122850 6.245181 0
M  V30 34 C 1.131468 0.133477 6.346593 0
M  V30 35 C 0.898833 -1.171308 5.911033 0
M  V30 36 C -1.112784 -2.893038 2.413754 0
M  V30 37 C -2.414816 -2.420151 2.359142 0
M  V30 38 C -3.071662 -2.273524 1.131323 0
M  V30 39 C -2.395027 -2.609719 -0.011977 0
M  V30 40 C -1.108605 -3.073143 0.096798 0
M  V30 41 C -0.419739 -3.235283 1.272782 0
M  V30 42 H 3.892116 -6.637477 -0.410270 0
M  V30 43 H 1.267660 0.131711 -4.130472 0
M  V30 44 H 1.678680 1.436892 -3.006108 0
M  V30 45 H -1.003018 -0.079116 -3.147502 0
M  V30 46 H -0.616772 1.246673 -2.019847 0
M  V30 47 H -0.109754 2.785589 -3.793203 0
M  V30 48 H -0.337489 1.567350 -5.071556 0
M  V30 49 H -1.721499 3.866957 -5.218769 0
M  V30 50 H -3.032734 2.843592 -5.844441 0
M  V30 51 H -3.100004 5.109450 -3.940260 0
M  V30 52 H -4.433984 4.228279 -4.748143 0
M  V30 53 H -4.787351 1.820778 -2.233534 0
M  V30 54 H -4.928154 2.088169 -4.053004 0
M  V30 55 H -2.614982 1.239267 -2.300937 0
M  V30 56 H -3.144491 0.387538 -3.751878 0
M  V30 57 H 2.532881 2.351645 1.331602 0
M  V30 58 H 3.134471 0.409953 2.713806 0
M  V30 59 H 2.940106 -1.784464 1.760935 0
M  V30 60 H 1.740607 -3.872477 3.598547 0
M  V30 61 H -1.751772 -3.033654 5.038066 0
M  V30 62 H -0.156719 -3.635240 5.542552 0
M  V30 63 H -2.250632 -0.641813 4.862164 0
M  V30 64 H -1.805175 1.582065 5.620568 0
M  V30 65 H 0.356278 2.135239 6.588056 0
M  V30 66 H 2.077112 0.418112 6.781094 0
M  V30 67 H 1.667070 -1.943254 5.996820 0
M  V30 68 H -3.016382 -2.138977 3.195386 0
M  V30 69 H -4.098853 -1.903506 1.069659 0
M  V30 70 H -2.905034 -2.496734 -0.961106 0
M  V30 71 H -0.655822 -3.320119 -0.847703 0
M  V30 END ATOM
M  V30 BEGIN BOND
M  V30 1 2 1 2
M  V30 2 1 2 3
M  V30 3 1 3 4
M  V30 4 2 4 5
M  V30 5 1 4 6
M  V30 6 1 6 7
M  V30 7 2 7 8
M  V30 8 1 8 9
M  V30 9 1 9 10
M  V30 10 1 10 11
M  V30 11 1 11 12
M  V30 12 1 12 13
M  V30 13 1 13 14
M  V30 14 1 14 15
M  V30 15 1 15 16
M  V30 16 1 16 17
M  V30 17 1 17 18
M  V30 18 1 9 19
M  V30 19 2 19 20
M  V30 20 1 20 21
M  V30 21 2 21 22
M  V30 22 1 22 23
M  V30 23 2 23 24
M  V30 24 2 6 25
M  V30 25 1 25 26
M  V30 26 2 26 27
M  V30 27 1 27 28
M  V30 28 1 28 29
M  V30 29 1 29 30
M  V30 30 2 30 31
M  V30 31 1 31 32
M  V30 32 2 32 33
M  V30 33 1 33 34
M  V30 34 2 34 35
M  V30 35 1 28 36
M  V30 36 2 36 37
M  V30 37 1 37 38
M  V30 38 2 38 39
M  V30 39 1 39 40
M  V30 40 2 40 41
M  V30 41 1 25 2
M  V30 42 1 41 26
M  V30 43 1 24 7
M  V30 44 1 35 30
M  V30 45 1 41 36
M  V30 46 1 18 13
M  V30 47 1 24 19
M  V30 48 1 3 42
M  V30 49 1 10 43
M  V30 50 1 10 44
M  V30 51 1 11 45
M  V30 52 1 11 46
M  V30 53 1 12 47
M  V30 54 1 12 48
M  V30 55 1 14 49
M  V30 56 1 14 50
M  V30 57 1 15 51
M  V30 58 1 15 52
M  V30 59 1 17 53
M  V30 60 1 17 54
M  V30 61 1 18 55
M  V30 62 1 18 56
M  V30 63 1 21 57
M  V30 64 1 22 58
M  V30 65 1 23 59
M  V30 66 1 27 60
M  V30 67 1 29 61
M  V30 68 1 29 62
M  V30 69 1 31 63
M  V30 70 1 32 64
M  V30 71 1 33 65
M  V30 72 1 34 66
M  V30 73 1 35 67
M  V30 74 1 37 68
M  V30 75 1 38 69
M  V30 76 1 39 70
M  V30 77 1 40 71
M  V30 END BOND
M  V30 END CTAB
M  END
>  <Dataset>  (841) 
ChEMBL_Kinases

>  <Ligand_Instance>  (841) 
nan

>  <PDB_ID>  (841) 
nan

>  <Standardized_SMILES>  (841) 
O=C1NC(=O)C(c2nn(CCCN3CCOCC3)c3ncccc23)=C1c1cn(Cc2ccccc2)c2ccccc12

>  <Name>  (841) 
nan

>  <Pocket>  (841) 
nan

>  <ATP_Site>  (841) 
nan

>  <Peripheral>  (841) 
nan

>  <Num_H_Atoms_ProtBoundConf>  (841) 
nan

>  <Num_Resolved_Atoms>  (841) 
nan

>  <Num_Not_Resolved_Atoms>  (841) 
nan

$$$$
CHEMBL3099835
     RDKit          3D

  0  0  0  0  0  0  0  0  0  0999 V3000
M  V30 BEGIN CTAB
M  V30 COUNTS 67 72 0 0 0
M  V30 BEGIN ATOM
M  V30 1 C 1.231781 0.394967 5.681929 0
M  V30 2 C 1.634814 -1.030911 5.455916 0
M  V30 3 C 0.601013 -1.936146 6.109447 0
M  V30 4 N 1.683281 -1.304320 4.015926 0
M  V30 5 C 0.785029 -2.031157 3.323449 0
M  V30 6 C 1.124862 -2.117947 1.969950 0
M  V30 7 C 0.324974 -2.842720 0.992358 0
M  V30 8 C -0.758767 -2.711487 0.246765 0
M  V30 9 C -1.615948 -1.539619 0.203375 0
M  V30 10 N -0.986697 -0.341784 0.128304 0
M  V30 11 N -1.856882 0.652876 0.075434 0
M  V30 12 C -1.499826 2.036138 -0.021498 0
M  V30 13 C -1.308063 2.589270 -1.384718 0
M  V30 14 C -0.236387 1.967538 -2.197597 0
M  V30 15 N -0.364897 0.584333 -2.491739 0
M  V30 16 C -1.402324 0.232276 -3.425164 0
M  V30 17 C -0.856037 -0.026307 -4.818061 0
M  V30 18 O 0.458117 0.428655 -4.933409 0
M  V30 19 C 1.234616 -0.370030 -4.090352 0
M  V30 20 C 0.837181 -0.164544 -2.643861 0
M  V30 21 C -3.088827 0.095089 0.118796 0
M  V30 22 N -4.329548 0.602489 0.096976 0
M  V30 23 C -5.399929 -0.238858 0.155061 0
M  V30 24 C -5.247955 -1.619994 0.236939 0
M  V30 25 C -3.977319 -2.204143 0.262974 0
M  V30 26 C -2.958718 -1.277767 0.198991 0
M  V30 27 C -0.960114 -3.938353 -0.542071 0
M  V30 28 O -1.886088 -4.168120 -1.357459 0
M  V30 29 N 0.068548 -4.847771 -0.243943 0
M  V30 30 C 0.893335 -4.188018 0.718882 0
M  V30 31 O 1.908607 -4.835525 1.148116 0
M  V30 32 C 2.307052 -1.377330 1.901659 0
M  V30 33 C 3.051826 -1.143572 0.763621 0
M  V30 34 C 4.199938 -0.362417 0.925281 0
M  V30 35 C 4.551193 0.138018 2.160497 0
M  V30 36 C 3.774820 -0.120774 3.275049 0
M  V30 37 C 2.621812 -0.897663 3.150197 0
M  V30 38 H 0.131968 0.420544 5.832021 0
M  V30 39 H 1.777649 0.777105 6.573565 0
M  V30 40 H 1.454988 1.000578 4.800454 0
M  V30 41 H 2.617368 -1.267267 5.931594 0
M  V30 42 H -0.395985 -1.488789 5.887299 0
M  V30 43 H 0.602408 -2.942093 5.637134 0
M  V30 44 H 0.760526 -1.958704 7.192899 0
M  V30 45 H -0.087462 -2.488500 3.771614 0
M  V30 46 H -2.274532 2.680214 0.488831 0
M  V30 47 H -0.585347 2.187653 0.620239 0
M  V30 48 H -2.256768 2.628305 -1.932726 0
M  V30 49 H -1.016254 3.672929 -1.242313 0
M  V30 50 H -0.276068 2.494680 -3.204165 0
M  V30 51 H 0.778750 2.203340 -1.831950 0
M  V30 52 H -1.870689 -0.707265 -3.077573 0
M  V30 53 H -2.186278 1.003874 -3.530418 0
M  V30 54 H -0.925008 -1.101364 -5.090916 0
M  V30 55 H -1.454082 0.523101 -5.610508 0
M  V30 56 H 1.156998 -1.428879 -4.399957 0
M  V30 57 H 2.317253 -0.108328 -4.182178 0
M  V30 58 H 0.684032 -1.171064 -2.196043 0
M  V30 59 H 1.646755 0.348652 -2.078571 0
M  V30 60 H -6.431394 0.126251 0.139557 0
M  V30 61 H -6.113504 -2.250906 0.279929 0
M  V30 62 H -3.795345 -3.260484 0.332014 0
M  V30 63 H 0.156989 -5.800520 -0.671490 0
M  V30 64 H 2.769803 -1.539699 -0.202659 0
M  V30 65 H 4.843512 -0.130362 0.070082 0
M  V30 66 H 5.419897 0.747369 2.351971 0
M  V30 67 H 4.002110 0.245037 4.281022 0
M  V30 END ATOM
M  V30 BEGIN BOND
M  V30 1 1 1 2
M  V30 2 1 2 3
M  V30 3 1 2 4
M  V30 4 1 4 5
M  V30 5 2 5 6
M  V30 6 1 6 7
M  V30 7 2 7 8
M  V30 8 1 8 9
M  V30 9 2 9 10
M  V30 10 1 10 11
M  V30 11 1 11 12
M  V30 12 1 12 13
M  V30 13 1 13 14
M  V30 14 1 14 15
M  V30 15 1 15 16
M  V30 16 1 16 17
M  V30 17 1 17 18
M  V30 18 1 18 19
M  V30 19 1 19 20
M  V30 20 1 11 21
M  V30 21 2 21 22
M  V30 22 1 22 23
M  V30 23 2 23 24
M  V30 24 1 24 25
M  V30 25 2 25 26
M  V30 26 1 8 27
M  V30 27 2 27 28
M  V30 28 1 27 29
M  V30 29 1 29 30
M  V30 30 2 30 31
M  V30 31 1 6 32
M  V30 32 2 32 33
M  V30 33 1 33 34
M  V30 34 2 34 35
M  V30 35 1 35 36
M  V30 36 2 36 37
M  V30 37 1 37 4
M  V30 38 1 30 7
M  V30 39 1 37 32
M  V30 40 1 26 9
M  V30 41 1 20 15
M  V30 42 1 26 21
M  V30 43 1 1 38
M  V30 44 1 1 39
M  V30 45 1 1 40
M  V30 46 1 2 41
M  V30 47 1 3 42
M  V30 48 1 3 43
M  V30 49 1 3 44
M  V30 50 1 5 45
M  V30 51 1 12 46
M  V30 52 1 12 47
M  V30 53 1 13 48
M  V30 54 1 13 49
M  V30 55 1 14 50
M  V30 56 1 14 51
M  V30 57 1 16 52
M  V30 58 1 16 53
M  V30 59 1 17 54
M  V30 60 1 17 55
M  V30 61 1 19 56
M  V30 62 1 19 57
M  V30 63 1 20 58
M  V30 64 1 20 59
M  V30 65 1 23 60
M  V30 66 1 24 61
M  V30 67 1 25 62
M  V30 68 1 29 63
M  V30 69 1 33 64
M  V30 70 1 34 65
M  V30 71 1 35 66
M  V30 72 1 36 67
M  V30 END BOND
M  V30 END CTAB
M  END
>  <Dataset>  (842) 
ChEMBL_Kinases

>  <Ligand_Instance>  (842) 
nan

>  <PDB_ID>  (842) 
nan

>  <Standardized_SMILES>  (842) 
CC(C)n1cc(C2=C(c3nn(CCCN4CCOCC4)c4ncccc34)C(=O)NC2=O)c2ccccc21

>  <Name>  (842) 
nan

>  <Pocket>  (842) 
nan

>  <ATP_Site>  (842) 
nan

>  <Peripheral>  (842) 
nan

>  <Num_H_Atoms_ProtBoundConf>  (842) 
nan

>  <Num_Resolved_Atoms>  (842) 
nan

>  <Num_Not_Resolved_Atoms>  (842) 
nan

$$$$
CHEMBL3099834
     RDKit          3D

  0  0  0  0  0  0  0  0  0  0999 V3000
M  V30 BEGIN CTAB
M  V30 COUNTS 62 67 0 0 0
M  V30 BEGIN ATOM
M  V30 1 C 2.454189 1.804658 6.127374 0
M  V30 2 C 3.020440 0.829035 5.467722 0
M  V30 3 N 2.276503 0.124458 4.485987 0
M  V30 4 C 2.812287 -0.880202 3.783761 0
M  V30 5 C 1.896725 -1.438701 2.868441 0
M  V30 6 C 2.291651 -2.555151 2.017295 0
M  V30 7 C 2.070327 -2.751750 0.728168 0
M  V30 8 C 1.407739 -2.042317 -0.351661 0
M  V30 9 N 1.455263 -0.753312 -0.658048 0
M  V30 10 N 0.743063 -0.457762 -1.761182 0
M  V30 11 C 0.800344 0.894942 -2.162836 0
M  V30 12 C -0.251231 1.842991 -1.760375 0
M  V30 13 C -1.626617 1.686011 -2.241988 0
M  V30 14 N -2.274413 0.469540 -1.893536 0
M  V30 15 C -2.548430 0.359601 -0.473388 0
M  V30 16 C -3.783461 -0.432323 -0.205244 0
M  V30 17 O -3.950136 -1.494288 -1.094995 0
M  V30 18 C -4.064093 -1.047807 -2.407106 0
M  V30 19 C -3.574305 0.362749 -2.565663 0
M  V30 20 C 0.203202 -1.599713 -2.196037 0
M  V30 21 N -0.574479 -1.793556 -3.252310 0
M  V30 22 C -1.026374 -3.044728 -3.528440 0
M  V30 23 C -0.686224 -4.110186 -2.723228 0
M  V30 24 C 0.125975 -3.826785 -1.644891 0
M  V30 25 C 0.605094 -2.570827 -1.336410 0
M  V30 26 C 2.732237 -4.036681 0.389828 0
M  V30 27 O 2.918179 -4.797191 -0.626654 0
M  V30 28 N 3.359345 -4.609732 1.532273 0
M  V30 29 C 3.088047 -3.675947 2.584283 0
M  V30 30 O 3.450985 -3.759515 3.808675 0
M  V30 31 C 0.776532 -0.676435 3.093140 0
M  V30 32 C -0.430425 -0.814046 2.450421 0
M  V30 33 C -1.413187 0.084635 2.867940 0
M  V30 34 C -1.210271 1.044894 3.848353 0
M  V30 35 C 0.033279 1.127651 4.455456 0
M  V30 36 C 1.031869 0.262360 4.076152 0
M  V30 37 H 2.053668 2.634657 6.724190 0
M  V30 38 H 2.135713 2.607949 6.764014 0
M  V30 39 H 4.043841 0.650491 5.748983 0
M  V30 40 H 3.854885 -1.204392 3.934159 0
M  V30 41 H 0.812320 0.928241 -3.314316 0
M  V30 42 H 1.791212 1.395821 -1.938365 0
M  V30 43 H 0.124704 2.875981 -2.079999 0
M  V30 44 H -0.292559 1.962497 -0.640786 0
M  V30 45 H -1.759847 1.944653 -3.327728 0
M  V30 46 H -2.240468 2.503984 -1.735268 0
M  V30 47 H -1.662491 -0.079401 -0.019789 0
M  V30 48 H -2.700894 1.365651 -0.003946 0
M  V30 49 H -3.695190 -0.905189 0.791349 0
M  V30 50 H -4.708528 0.196435 -0.260231 0
M  V30 51 H -3.530075 -1.772374 -3.046836 0
M  V30 52 H -5.138455 -1.122331 -2.761249 0
M  V30 53 H -4.310893 1.050122 -2.117758 0
M  V30 54 H -3.486864 0.622284 -3.638927 0
M  V30 55 H -1.664326 -3.155988 -4.412035 0
M  V30 56 H -1.066795 -5.075060 -2.980552 0
M  V30 57 H 0.353746 -4.676623 -1.022037 0
M  V30 58 H 3.913508 -5.456827 1.772424 0
M  V30 59 H -0.600932 -1.544450 1.698248 0
M  V30 60 H -2.390275 0.097977 2.464282 0
M  V30 61 H -1.973542 1.735482 4.165097 0
M  V30 62 H 0.197725 1.873604 5.219508 0
M  V30 END ATOM
M  V30 BEGIN BOND
M  V30 1 2 1 2
M  V30 2 1 2 3
M  V30 3 1 3 4
M  V30 4 2 4 5
M  V30 5 1 5 6
M  V30 6 2 6 7
M  V30 7 1 7 8
M  V30 8 2 8 9
M  V30 9 1 9 10
M  V30 10 1 10 11
M  V30 11 1 11 12
M  V30 12 1 12 13
M  V30 13 1 13 14
M  V30 14 1 14 15
M  V30 15 1 15 16
M  V30 16 1 16 17
M  V30 17 1 17 18
M  V30 18 1 18 19
M  V30 19 1 10 20
M  V30 20 2 20 21
M  V30 21 1 21 22
M  V30 22 2 22 23
M  V30 23 1 23 24
M  V30 24 2 24 25
M  V30 25 1 7 26
M  V30 26 2 26 27
M  V30 27 1 26 28
M  V30 28 1 28 29
M  V30 29 2 29 30
M  V30 30 1 5 31
M  V30 31 2 31 32
M  V30 32 1 32 33
M  V30 33 2 33 34
M  V30 34 1 34 35
M  V30 35 2 35 36
M  V30 36 1 36 3
M  V30 37 1 29 6
M  V30 38 1 36 31
M  V30 39 1 25 8
M  V30 40 1 19 14
M  V30 41 1 25 20
M  V30 42 1 1 37
M  V30 43 1 1 38
M  V30 44 1 2 39
M  V30 45 1 4 40
M  V30 46 1 11 41
M  V30 47 1 11 42
M  V30 48 1 12 43
M  V30 49 1 12 44
M  V30 50 1 13 45
M  V30 51 1 13 46
M  V30 52 1 15 47
M  V30 53 1 15 48
M  V30 54 1 16 49
M  V30 55 1 16 50
M  V30 56 1 18 51
M  V30 57 1 18 52
M  V30 58 1 19 53
M  V30 59 1 19 54
M  V30 60 1 22 55
M  V30 61 1 23 56
M  V30 62 1 24 57
M  V30 63 1 28 58
M  V30 64 1 32 59
M  V30 65 1 33 60
M  V30 66 1 34 61
M  V30 67 1 35 62
M  V30 END BOND
M  V30 END CTAB
M  END
>  <Dataset>  (843) 
ChEMBL_Kinases

>  <Ligand_Instance>  (843) 
nan

>  <PDB_ID>  (843) 
nan

>  <Standardized_SMILES>  (843) 
C=Cn1cc(C2=C(c3nn(CCCN4CCOCC4)c4ncccc34)C(=O)NC2=O)c2ccccc21

>  <Name>  (843) 
nan

>  <Pocket>  (843) 
nan

>  <ATP_Site>  (843) 
nan

>  <Peripheral>  (843) 
nan

>  <Num_H_Atoms_ProtBoundConf>  (843) 
nan

>  <Num_Resolved_Atoms>  (843) 
nan

>  <Num_Not_Resolved_Atoms>  (843) 
nan

$$$$
CHEMBL3099833
     RDKit          3D

  0  0  0  0  0  0  0  0  0  0999 V3000
M  V30 BEGIN CTAB
M  V30 COUNTS 64 69 0 0 0
M  V30 BEGIN ATOM
M  V30 1 C 2.124627 1.915927 7.030655 0
M  V30 2 N 1.362703 1.449260 5.875993 0
M  V30 3 C 0.996242 0.183596 5.607626 0
M  V30 4 C 0.275103 0.134839 4.406621 0
M  V30 5 C -0.233605 -1.135608 3.916031 0
M  V30 6 C -0.152390 -1.738642 2.714352 0
M  V30 7 C 0.444414 -1.422955 1.423390 0
M  V30 8 N 0.423015 -0.381455 0.594705 0
M  V30 9 N 1.147786 -0.519083 -0.474481 0
M  V30 10 C 1.319105 0.432405 -1.562005 0
M  V30 11 C 0.279532 0.209321 -2.641972 0
M  V30 12 C -1.128177 0.358209 -2.163647 0
M  V30 13 C -2.095503 0.106562 -3.298807 0
M  V30 14 N -2.014948 -1.158826 -3.878896 0
M  V30 15 C -2.393020 -2.314976 -3.183990 0
M  V30 16 C -3.516715 -2.991943 -3.984430 0
M  V30 17 O -2.906701 -3.385986 -5.172690 0
M  V30 18 C -2.426598 -2.352257 -5.935369 0
M  V30 19 C -1.603977 -1.334615 -5.205868 0
M  V30 20 C 1.730760 -1.724332 -0.423461 0
M  V30 21 N 2.581737 -2.339425 -1.288410 0
M  V30 22 C 3.065847 -3.565081 -1.044437 0
M  V30 23 C 2.679212 -4.191054 0.109584 0
M  V30 24 C 1.821619 -3.565804 0.976266 0
M  V30 25 C 1.298643 -2.292886 0.754107 0
M  V30 26 C -0.894715 -3.011833 2.820136 0
M  V30 27 O -1.111575 -3.925430 1.973736 0
M  V30 28 N -1.433461 -3.180759 4.113120 0
M  V30 29 C -1.022837 -2.004187 4.812461 0
M  V30 30 O -1.321606 -1.786675 6.030778 0
M  V30 31 C 0.260969 1.456033 4.022042 0
M  V30 32 C -0.329095 1.967221 2.906676 0
M  V30 33 C -0.272773 3.312699 2.644212 0
M  V30 34 C 0.379638 4.175713 3.500386 0
M  V30 35 C 0.970486 3.613293 4.633199 0
M  V30 36 C 0.919709 2.261263 4.907865 0
M  V30 37 H 1.436252 2.076638 7.906502 0
M  V30 38 H 2.880732 1.182239 7.374221 0
M  V30 39 H 2.649098 2.863190 6.809857 0
M  V30 40 H 1.257881 -0.630120 6.271304 0
M  V30 41 H 1.272326 1.471654 -1.241912 0
M  V30 42 H 2.306450 0.247390 -2.011537 0
M  V30 43 H 0.466302 -0.743025 -3.173429 0
M  V30 44 H 0.448549 1.024395 -3.398033 0
M  V30 45 H -1.265018 1.430818 -1.834572 0
M  V30 46 H -1.376433 -0.262985 -1.297411 0
M  V30 47 H -1.969193 0.876507 -4.089239 0
M  V30 48 H -3.131691 0.254721 -2.898218 0
M  V30 49 H -1.597550 -3.116749 -3.156883 0
M  V30 50 H -2.778715 -2.095739 -2.166327 0
M  V30 51 H -3.799257 -3.894837 -3.428885 0
M  V30 52 H -4.373556 -2.310338 -4.131814 0
M  V30 53 H -3.203751 -1.884421 -6.585610 0
M  V30 54 H -1.718720 -2.831318 -6.678657 0
M  V30 55 H -1.712895 -0.378093 -5.804111 0
M  V30 56 H -0.515784 -1.555834 -5.269841 0
M  V30 57 H 3.732398 -3.916917 -1.830288 0
M  V30 58 H 3.093494 -5.175589 0.263156 0
M  V30 59 H 1.569796 -4.101370 1.855716 0
M  V30 60 H -2.003835 -3.948334 4.534690 0
M  V30 61 H -0.860060 1.365212 2.211914 0
M  V30 62 H -0.740257 3.728596 1.756580 0
M  V30 63 H 0.426382 5.233879 3.296265 0
M  V30 64 H 1.494072 4.252522 5.334798 0
M  V30 END ATOM
M  V30 BEGIN BOND
M  V30 1 1 1 2
M  V30 2 1 2 3
M  V30 3 2 3 4
M  V30 4 1 4 5
M  V30 5 2 5 6
M  V30 6 1 6 7
M  V30 7 2 7 8
M  V30 8 1 8 9
M  V30 9 1 9 10
M  V30 10 1 10 11
M  V30 11 1 11 12
M  V30 12 1 12 13
M  V30 13 1 13 14
M  V30 14 1 14 15
M  V30 15 1 15 16
M  V30 16 1 16 17
M  V30 17 1 17 18
M  V30 18 1 18 19
M  V30 19 1 9 20
M  V30 20 2 20 21
M  V30 21 1 21 22
M  V30 22 2 22 23
M  V30 23 1 23 24
M  V30 24 2 24 25
M  V30 25 1 6 26
M  V30 26 2 26 27
M  V30 27 1 26 28
M  V30 28 1 28 29
M  V30 29 2 29 30
M  V30 30 1 4 31
M  V30 31 2 31 32
M  V30 32 1 32 33
M  V30 33 2 33 34
M  V30 34 1 34 35
M  V30 35 2 35 36
M  V30 36 1 36 2
M  V30 37 1 29 5
M  V30 38 1 36 31
M  V30 39 1 25 7
M  V30 40 1 19 14
M  V30 41 1 25 20
M  V30 42 1 1 37
M  V30 43 1 1 38
M  V30 44 1 1 39
M  V30 45 1 3 40
M  V30 46 1 10 41
M  V30 47 1 10 42
M  V30 48 1 11 43
M  V30 49 1 11 44
M  V30 50 1 12 45
M  V30 51 1 12 46
M  V30 52 1 13 47
M  V30 53 1 13 48
M  V30 54 1 15 49
M  V30 55 1 15 50
M  V30 56 1 16 51
M  V30 57 1 16 52
M  V30 58 1 18 53
M  V30 59 1 18 54
M  V30 60 1 19 55
M  V30 61 1 19 56
M  V30 62 1 22 57
M  V30 63 1 23 58
M  V30 64 1 24 59
M  V30 65 1 28 60
M  V30 66 1 32 61
M  V30 67 1 33 62
M  V30 68 1 34 63
M  V30 69 1 35 64
M  V30 END BOND
M  V30 END CTAB
M  END
>  <Dataset>  (844) 
ChEMBL_Kinases

>  <Ligand_Instance>  (844) 
nan

>  <PDB_ID>  (844) 
nan

>  <Standardized_SMILES>  (844) 
Cn1cc(C2=C(c3nn(CCCCN4CCOCC4)c4ncccc34)C(=O)NC2=O)c2ccccc21

>  <Name>  (844) 
nan

>  <Pocket>  (844) 
nan

>  <ATP_Site>  (844) 
nan

>  <Peripheral>  (844) 
nan

>  <Num_H_Atoms_ProtBoundConf>  (844) 
nan

>  <Num_Resolved_Atoms>  (844) 
nan

>  <Num_Not_Resolved_Atoms>  (844) 
nan

$$$$
CHEMBL3099832
     RDKit          3D

  0  0  0  0  0  0  0  0  0  0999 V3000
M  V30 BEGIN CTAB
M  V30 COUNTS 58 63 0 0 0
M  V30 BEGIN ATOM
M  V30 1 C 0.635050 -0.204696 5.832568 0
M  V30 2 N 0.396569 -1.037591 4.662381 0
M  V30 3 C -0.849310 -1.312649 4.178647 0
M  V30 4 C -0.710999 -2.133193 3.057349 0
M  V30 5 C -1.801285 -2.672053 2.263280 0
M  V30 6 C -2.165078 -2.712294 0.994100 0
M  V30 7 C -1.511277 -2.153844 -0.202734 0
M  V30 8 N -0.275932 -2.159057 -0.703980 0
M  V30 9 N -0.145734 -1.486474 -1.815279 0
M  V30 10 C 1.073924 -1.336321 -2.536331 0
M  V30 11 C 1.999128 -0.252987 -2.134286 0
M  V30 12 N 1.437874 1.032850 -2.192347 0
M  V30 13 C 0.460063 1.407802 -1.241763 0
M  V30 14 C 0.947467 2.638008 -0.454179 0
M  V30 15 O 1.216163 3.694391 -1.283887 0
M  V30 16 C 1.630210 3.396301 -2.550248 0
M  V30 17 C 2.265936 2.061093 -2.718372 0
M  V30 18 C -1.359818 -0.957318 -2.146562 0
M  V30 19 N -1.757419 -0.192624 -3.182154 0
M  V30 20 C -3.015452 0.226377 -3.316452 0
M  V30 21 C -3.924194 -0.144456 -2.353765 0
M  V30 22 C -3.494893 -0.926363 -1.304085 0
M  V30 23 C -2.200298 -1.387771 -1.121555 0
M  V30 24 C -3.423212 -3.480392 0.868648 0
M  V30 25 O -4.137497 -3.782980 -0.132045 0
M  V30 26 N -3.832800 -3.926144 2.173661 0
M  V30 27 C -2.822793 -3.421343 3.031668 0
M  V30 28 O -2.924283 -3.666346 4.286442 0
M  V30 29 C 0.649246 -2.318602 2.917257 0
M  V30 30 C 1.431859 -3.028058 2.021975 0
M  V30 31 C 2.797044 -3.016297 2.162223 0
M  V30 32 C 3.470634 -2.336488 3.152335 0
M  V30 33 C 2.713481 -1.616063 4.068642 0
M  V30 34 C 1.345520 -1.645875 3.902977 0
M  V30 35 H -0.023208 0.671446 5.887368 0
M  V30 36 H 1.697994 0.172127 5.820780 0
M  V30 37 H 0.551003 -0.785878 6.757031 0
M  V30 38 H -1.796347 -0.974958 4.565617 0
M  V30 39 H 1.612450 -2.325515 -2.454795 0
M  V30 40 H 0.879473 -1.228022 -3.634139 0
M  V30 41 H 2.503039 -0.489162 -1.160543 0
M  V30 42 H 2.846535 -0.276425 -2.895056 0
M  V30 43 H 0.258119 0.655957 -0.454532 0
M  V30 44 H -0.452864 1.760298 -1.750052 0
M  V30 45 H 0.057403 2.949549 0.168179 0
M  V30 46 H 1.767210 2.299822 0.180210 0
M  V30 47 H 2.348755 4.178624 -2.877402 0
M  V30 48 H 0.771843 3.478788 -3.259184 0
M  V30 49 H 2.377246 1.887630 -3.827873 0
M  V30 50 H 3.290635 2.083501 -2.307423 0
M  V30 51 H -3.217413 0.829969 -4.183170 0
M  V30 52 H -4.939757 0.186493 -2.450777 0
M  V30 53 H -4.258034 -1.159876 -0.588263 0
M  V30 54 H -4.687143 -4.495996 2.419097 0
M  V30 55 H 0.950330 -3.578854 1.252531 0
M  V30 56 H 3.359699 -3.600153 1.415285 0
M  V30 57 H 4.550995 -2.365734 3.209358 0
M  V30 58 H 3.178750 -1.060024 4.870885 0
M  V30 END ATOM
M  V30 BEGIN BOND
M  V30 1 1 1 2
M  V30 2 1 2 3
M  V30 3 2 3 4
M  V30 4 1 4 5
M  V30 5 2 5 6
M  V30 6 1 6 7
M  V30 7 2 7 8
M  V30 8 1 8 9
M  V30 9 1 9 10
M  V30 10 1 10 11
M  V30 11 1 11 12
M  V30 12 1 12 13
M  V30 13 1 13 14
M  V30 14 1 14 15
M  V30 15 1 15 16
M  V30 16 1 16 17
M  V30 17 1 9 18
M  V30 18 2 18 19
M  V30 19 1 19 20
M  V30 20 2 20 21
M  V30 21 1 21 22
M  V30 22 2 22 23
M  V30 23 1 6 24
M  V30 24 2 24 25
M  V30 25 1 24 26
M  V30 26 1 26 27
M  V30 27 2 27 28
M  V30 28 1 4 29
M  V30 29 2 29 30
M  V30 30 1 30 31
M  V30 31 2 31 32
M  V30 32 1 32 33
M  V30 33 2 33 34
M  V30 34 1 34 2
M  V30 35 1 27 5
M  V30 36 1 34 29
M  V30 37 1 23 7
M  V30 38 1 17 12
M  V30 39 1 23 18
M  V30 40 1 1 35
M  V30 41 1 1 36
M  V30 42 1 1 37
M  V30 43 1 3 38
M  V30 44 1 10 39
M  V30 45 1 10 40
M  V30 46 1 11 41
M  V30 47 1 11 42
M  V30 48 1 13 43
M  V30 49 1 13 44
M  V30 50 1 14 45
M  V30 51 1 14 46
M  V30 52 1 16 47
M  V30 53 1 16 48
M  V30 54 1 17 49
M  V30 55 1 17 50
M  V30 56 1 20 51
M  V30 57 1 21 52
M  V30 58 1 22 53
M  V30 59 1 26 54
M  V30 60 1 30 55
M  V30 61 1 31 56
M  V30 62 1 32 57
M  V30 63 1 33 58
M  V30 END BOND
M  V30 END CTAB
M  END
>  <Dataset>  (845) 
ChEMBL_Kinases

>  <Ligand_Instance>  (845) 
nan

>  <PDB_ID>  (845) 
nan

>  <Standardized_SMILES>  (845) 
Cn1cc(C2=C(c3nn(CCN4CCOCC4)c4ncccc34)C(=O)NC2=O)c2ccccc21

>  <Name>  (845) 
nan

>  <Pocket>  (845) 
nan

>  <ATP_Site>  (845) 
nan

>  <Peripheral>  (845) 
nan

>  <Num_H_Atoms_ProtBoundConf>  (845) 
nan

>  <Num_Resolved_Atoms>  (845) 
nan

>  <Num_Not_Resolved_Atoms>  (845) 
nan

$$$$
CHEMBL3099794
     RDKit          3D

  0  0  0  0  0  0  0  0  0  0999 V3000
M  V30 BEGIN CTAB
M  V30 COUNTS 53 55 0 0 0
M  V30 BEGIN ATOM
M  V30 1 C 0.361325 -7.367294 -0.379964 0
M  V30 2 C 1.225225 -6.247358 0.086059 0
M  V30 3 C 2.401602 -6.535742 0.765953 0
M  V30 4 C 3.154036 -5.462060 1.169473 0
M  V30 5 C 2.782657 -4.138166 0.924101 0
M  V30 6 O 3.462420 -3.141253 1.287971 0
M  V30 7 N 1.632792 -3.910249 0.260866 0
M  V30 8 C 1.128776 -2.614587 -0.059666 0
M  V30 9 C 1.998516 -1.656909 -0.536717 0
M  V30 10 C 1.588003 -0.384530 -0.867943 0
M  V30 11 C 0.269118 -0.009969 -0.733669 0
M  V30 12 O -0.450781 1.134913 -0.962781 0
M  V30 13 C -0.036297 2.361147 -1.430775 0
M  V30 14 C 0.940671 3.147229 -0.655870 0
M  V30 15 C 0.587962 3.639729 0.687502 0
M  V30 16 C 0.201386 2.682769 1.745995 0
M  V30 17 N -0.982752 1.934211 1.485163 0
M  V30 18 C -1.234674 1.034639 2.595525 0
M  V30 19 C -2.467322 0.232323 2.499276 0
M  V30 20 C -3.531225 0.717788 1.604777 0
M  V30 21 C -3.263490 1.983236 0.871429 0
M  V30 22 C -2.173371 2.801290 1.473985 0
M  V30 23 C -0.629535 -0.973006 -0.249457 0
M  V30 24 C -0.199080 -2.265220 0.084185 0
M  V30 25 C 0.878463 -4.932723 -0.145006 0
M  V30 26 H -0.382474 -6.930543 -1.109117 0
M  V30 27 H 0.909875 -8.199547 -0.833472 0
M  V30 28 H -0.290422 -7.772672 0.434878 0
M  V30 29 H 2.720777 -7.553163 0.973853 0
M  V30 30 H 4.073257 -5.644734 1.699681 0
M  V30 31 H 3.054702 -1.819393 -0.688360 0
M  V30 32 H 2.172454 0.414412 -1.244083 0
M  V30 33 H 0.365465 2.261550 -2.472306 0
M  V30 34 H -0.969242 2.994555 -1.538173 0
M  V30 35 H 1.137471 4.084771 -1.287047 0
M  V30 36 H 1.958933 2.675243 -0.642810 0
M  V30 37 H 1.493302 4.206980 1.094520 0
M  V30 38 H -0.163078 4.471855 0.571322 0
M  V30 39 H 0.006894 3.226701 2.719502 0
M  V30 40 H 1.022272 1.973084 1.998089 0
M  V30 41 H -1.242045 1.693189 3.510025 0
M  V30 42 H -0.314570 0.409540 2.726406 0
M  V30 43 H -2.186642 -0.840512 2.282969 0
M  V30 44 H -2.890057 0.158389 3.545377 0
M  V30 45 H -3.762432 -0.076720 0.850163 0
M  V30 46 H -4.516305 0.841464 2.144799 0
M  V30 47 H -4.184780 2.619869 0.807210 0
M  V30 48 H -3.004021 1.773859 -0.189928 0
M  V30 49 H -2.022418 3.739669 0.944366 0
M  V30 50 H -2.461845 3.006922 2.534642 0
M  V30 51 H -1.705193 -0.903742 -0.064632 0
M  V30 52 H -0.822704 -3.062713 0.461919 0
M  V30 53 H -0.055533 -4.792504 -0.682603 0
M  V30 END ATOM
M  V30 BEGIN BOND
M  V30 1 1 1 2
M  V30 2 1 2 3
M  V30 3 2 3 4
M  V30 4 1 4 5
M  V30 5 2 5 6
M  V30 6 1 5 7
M  V30 7 1 7 8
M  V30 8 2 8 9
M  V30 9 1 9 10
M  V30 10 2 10 11
M  V30 11 1 11 12
M  V30 12 1 12 13
M  V30 13 1 13 14
M  V30 14 1 14 15
M  V30 15 1 15 16
M  V30 16 1 16 17
M  V30 17 1 17 18
M  V30 18 1 18 19
M  V30 19 1 19 20
M  V30 20 1 20 21
M  V30 21 1 21 22
M  V30 22 1 11 23
M  V30 23 2 23 24
M  V30 24 1 7 25
M  V30 25 2 25 2
M  V30 26 1 24 8
M  V30 27 1 22 17
M  V30 28 1 1 26
M  V30 29 1 1 27
M  V30 30 1 1 28
M  V30 31 1 3 29
M  V30 32 1 4 30
M  V30 33 1 9 31
M  V30 34 1 10 32
M  V30 35 1 13 33
M  V30 36 1 13 34
M  V30 37 1 14 35
M  V30 38 1 14 36
M  V30 39 1 15 37
M  V30 40 1 15 38
M  V30 41 1 16 39
M  V30 42 1 16 40
M  V30 43 1 18 41
M  V30 44 1 18 42
M  V30 45 1 19 43
M  V30 46 1 19 44
M  V30 47 1 20 45
M  V30 48 1 20 46
M  V30 49 1 21 47
M  V30 50 1 21 48
M  V30 51 1 22 49
M  V30 52 1 22 50
M  V30 53 1 23 51
M  V30 54 1 24 52
M  V30 55 1 25 53
M  V30 END BOND
M  V30 END CTAB
M  END
>  <Dataset>  (846) 
ChEMBL_Kinases

>  <Ligand_Instance>  (846) 
nan

>  <PDB_ID>  (846) 
nan

>  <Standardized_SMILES>  (846) 
Cc1ccc(=O)n(-c2ccc(OCCCCN3CCCCC3)cc2)c1

>  <Name>  (846) 
nan

>  <Pocket>  (846) 
nan

>  <ATP_Site>  (846) 
nan

>  <Peripheral>  (846) 
nan

>  <Num_H_Atoms_ProtBoundConf>  (846) 
nan

>  <Num_Resolved_Atoms>  (846) 
nan

>  <Num_Not_Resolved_Atoms>  (846) 
nan

$$$$
CHEMBL3099788
     RDKit          3D

  0  0  0  0  0  0  0  0  0  0999 V3000
M  V30 BEGIN CTAB
M  V30 COUNTS 50 52 0 0 0
M  V30 BEGIN ATOM
M  V30 1 C 0.374791 -5.950507 2.152007 0
M  V30 2 C 1.373949 -5.155322 1.403988 0
M  V30 3 C 2.645201 -5.660728 1.217328 0
M  V30 4 C 3.576149 -4.918494 0.520272 0
M  V30 5 C 3.228061 -3.681704 0.017827 0
M  V30 6 O 3.946313 -2.868022 -0.640707 0
M  V30 7 N 1.964530 -3.198187 0.212712 0
M  V30 8 C 1.533457 -1.912562 -0.283168 0
M  V30 9 C 1.783621 -0.881207 0.591821 0
M  V30 10 C 1.388244 0.349185 0.146193 0
M  V30 11 C 0.783997 0.678104 -1.042402 0
M  V30 12 O 0.315667 1.737054 -1.699470 0
M  V30 13 C 0.140336 3.054812 -1.586298 0
M  V30 14 C -0.811831 3.704109 -0.646186 0
M  V30 15 C -0.736945 3.402787 0.801192 0
M  V30 16 N -1.093091 2.034749 1.064302 0
M  V30 17 C -0.851635 1.678899 2.462395 0
M  V30 18 C -1.117226 0.206490 2.611953 0
M  V30 19 C -1.809398 -0.462291 1.485821 0
M  V30 20 C -2.725189 0.367932 0.656068 0
M  V30 21 C -2.550896 1.842289 0.932608 0
M  V30 22 C 0.561190 -0.425165 -1.882463 0
M  V30 23 C 0.934109 -1.725919 -1.508678 0
M  V30 24 C 1.038026 -3.906931 0.891431 0
M  V30 25 H 0.061347 -5.347428 3.045718 0
M  V30 26 H -0.514224 -6.174266 1.514240 0
M  V30 27 H 0.841927 -6.862952 2.554369 0
M  V30 28 H 2.975144 -6.623079 1.588587 0
M  V30 29 H 4.604047 -5.201559 0.306909 0
M  V30 30 H 2.239837 -0.897858 1.566300 0
M  V30 31 H 1.524994 1.280066 0.718128 0
M  V30 32 H -0.173395 3.440246 -2.634791 0
M  V30 33 H 1.131538 3.636395 -1.484236 0
M  V30 34 H -0.742540 4.846543 -0.796639 0
M  V30 35 H -1.837571 3.513311 -1.083342 0
M  V30 36 H -1.484172 4.046155 1.348966 0
M  V30 37 H 0.267694 3.574282 1.240297 0
M  V30 38 H 0.152989 1.996153 2.784342 0
M  V30 39 H -1.601409 2.213863 3.089062 0
M  V30 40 H -0.094360 -0.271727 2.722477 0
M  V30 41 H -1.615224 -0.021819 3.592412 0
M  V30 42 H -2.452318 -1.274177 1.936679 0
M  V30 43 H -1.064139 -1.028847 0.858035 0
M  V30 44 H -2.409302 0.245309 -0.421903 0
M  V30 45 H -3.789519 0.059218 0.673986 0
M  V30 46 H -3.059213 2.072180 1.904581 0
M  V30 47 H -2.912381 2.508669 0.162847 0
M  V30 48 H 0.106196 -0.508734 -2.885621 0
M  V30 49 H 0.818058 -2.644795 -2.059468 0
M  V30 50 H 0.036087 -3.525959 1.048784 0
M  V30 END ATOM
M  V30 BEGIN BOND
M  V30 1 1 1 2
M  V30 2 1 2 3
M  V30 3 2 3 4
M  V30 4 1 4 5
M  V30 5 2 5 6
M  V30 6 1 5 7
M  V30 7 1 7 8
M  V30 8 2 8 9
M  V30 9 1 9 10
M  V30 10 2 10 11
M  V30 11 1 11 12
M  V30 12 1 12 13
M  V30 13 1 13 14
M  V30 14 1 14 15
M  V30 15 1 15 16
M  V30 16 1 16 17
M  V30 17 1 17 18
M  V30 18 1 18 19
M  V30 19 1 19 20
M  V30 20 1 20 21
M  V30 21 1 11 22
M  V30 22 2 22 23
M  V30 23 1 7 24
M  V30 24 2 24 2
M  V30 25 1 23 8
M  V30 26 1 21 16
M  V30 27 1 1 25
M  V30 28 1 1 26
M  V30 29 1 1 27
M  V30 30 1 3 28
M  V30 31 1 4 29
M  V30 32 1 9 30
M  V30 33 1 10 31
M  V30 34 1 13 32
M  V30 35 1 13 33
M  V30 36 1 14 34
M  V30 37 1 14 35
M  V30 38 1 15 36
M  V30 39 1 15 37
M  V30 40 1 17 38
M  V30 41 1 17 39
M  V30 42 1 18 40
M  V30 43 1 18 41
M  V30 44 1 19 42
M  V30 45 1 19 43
M  V30 46 1 20 44
M  V30 47 1 20 45
M  V30 48 1 21 46
M  V30 49 1 21 47
M  V30 50 1 22 48
M  V30 51 1 23 49
M  V30 52 1 24 50
M  V30 END BOND
M  V30 END CTAB
M  END
>  <Dataset>  (847) 
ChEMBL_Kinases

>  <Ligand_Instance>  (847) 
nan

>  <PDB_ID>  (847) 
nan

>  <Standardized_SMILES>  (847) 
Cc1ccc(=O)n(-c2ccc(OCCCN3CCCCC3)cc2)c1

>  <Name>  (847) 
nan

>  <Pocket>  (847) 
nan

>  <ATP_Site>  (847) 
nan

>  <Peripheral>  (847) 
nan

>  <Num_H_Atoms_ProtBoundConf>  (847) 
nan

>  <Num_Resolved_Atoms>  (847) 
nan

>  <Num_Not_Resolved_Atoms>  (847) 
nan

$$$$
CHEMBL3099785
     RDKit          3D

  0  0  0  0  0  0  0  0  0  0999 V3000
M  V30 BEGIN CTAB
M  V30 COUNTS 43 44 0 0 0
M  V30 BEGIN ATOM
M  V30 1 C -0.212442 -4.645485 4.765425 0
M  V30 2 C 0.137452 -4.941558 3.367042 0
M  V30 3 C 0.281689 -6.194854 2.798657 0
M  V30 4 C 0.619149 -6.319894 1.448396 0
M  V30 5 C 0.803221 -5.170838 0.703105 0
M  V30 6 O 1.107561 -5.334225 -0.513642 0
M  V30 7 N 0.666357 -3.935276 1.241387 0
M  V30 8 C 0.861276 -2.764419 0.435057 0
M  V30 9 C 1.924962 -2.510882 -0.407607 0
M  V30 10 C 1.919194 -1.297071 -1.112237 0
M  V30 11 C 0.884812 -0.349734 -0.989447 0
M  V30 12 O 1.224538 0.659047 -1.803719 0
M  V30 13 C 0.765264 1.873743 -2.189529 0
M  V30 14 C 0.661383 3.002740 -1.237718 0
M  V30 15 C -0.206905 2.837426 -0.031634 0
M  V30 16 N -0.172127 4.077316 0.695775 0
M  V30 17 C 1.050804 4.407531 1.297232 0
M  V30 18 C -1.374606 4.562527 1.221588 0
M  V30 19 C -0.125213 -0.704893 -0.123225 0
M  V30 20 C -0.178469 -1.875804 0.595194 0
M  V30 21 C 0.336872 -3.838197 2.560747 0
M  V30 22 H 0.455156 -3.908514 5.259669 0
M  V30 23 H -1.251122 -4.216877 4.847530 0
M  V30 24 H -0.232139 -5.545351 5.423177 0
M  V30 25 H 0.114119 -7.042671 3.478598 0
M  V30 26 H 0.711078 -7.330260 1.084419 0
M  V30 27 H 2.654196 -3.298253 -0.424050 0
M  V30 28 H 2.844195 -1.295026 -1.717098 0
M  V30 29 H -0.233212 1.703848 -2.726908 0
M  V30 30 H 1.397799 2.246090 -3.073597 0
M  V30 31 H 1.721957 3.235180 -0.912422 0
M  V30 32 H 0.361660 3.921671 -1.831234 0
M  V30 33 H 0.245764 2.008103 0.580841 0
M  V30 34 H -1.216619 2.537091 -0.332230 0
M  V30 35 H 1.001024 4.880001 2.296451 0
M  V30 36 H 1.670000 3.485774 1.406442 0
M  V30 37 H 1.580234 5.155651 0.642942 0
M  V30 38 H -2.044061 3.829179 1.701110 0
M  V30 39 H -1.146721 5.328619 2.004682 0
M  V30 40 H -1.959296 5.111089 0.427360 0
M  V30 41 H -0.874682 0.062249 -0.101165 0
M  V30 42 H -1.046945 -1.977997 1.221245 0
M  V30 43 H 0.247809 -2.806181 2.912182 0
M  V30 END ATOM
M  V30 BEGIN BOND
M  V30 1 1 1 2
M  V30 2 1 2 3
M  V30 3 2 3 4
M  V30 4 1 4 5
M  V30 5 2 5 6
M  V30 6 1 5 7
M  V30 7 1 7 8
M  V30 8 2 8 9
M  V30 9 1 9 10
M  V30 10 2 10 11
M  V30 11 1 11 12
M  V30 12 1 12 13
M  V30 13 1 13 14
M  V30 14 1 14 15
M  V30 15 1 15 16
M  V30 16 1 16 17
M  V30 17 1 16 18
M  V30 18 1 11 19
M  V30 19 2 19 20
M  V30 20 1 7 21
M  V30 21 2 21 2
M  V30 22 1 20 8
M  V30 23 1 1 22
M  V30 24 1 1 23
M  V30 25 1 1 24
M  V30 26 1 3 25
M  V30 27 1 4 26
M  V30 28 1 9 27
M  V30 29 1 10 28
M  V30 30 1 13 29
M  V30 31 1 13 30
M  V30 32 1 14 31
M  V30 33 1 14 32
M  V30 34 1 15 33
M  V30 35 1 15 34
M  V30 36 1 17 35
M  V30 37 1 17 36
M  V30 38 1 17 37
M  V30 39 1 18 38
M  V30 40 1 18 39
M  V30 41 1 18 40
M  V30 42 1 19 41
M  V30 43 1 20 42
M  V30 44 1 21 43
M  V30 END BOND
M  V30 END CTAB
M  END
>  <Dataset>  (848) 
ChEMBL_Kinases

>  <Ligand_Instance>  (848) 
nan

>  <PDB_ID>  (848) 
nan

>  <Standardized_SMILES>  (848) 
Cc1ccc(=O)n(-c2ccc(OCCCN(C)C)cc2)c1

>  <Name>  (848) 
nan

>  <Pocket>  (848) 
nan

>  <ATP_Site>  (848) 
nan

>  <Peripheral>  (848) 
nan

>  <Num_H_Atoms_ProtBoundConf>  (848) 
nan

>  <Num_Resolved_Atoms>  (848) 
nan

>  <Num_Not_Resolved_Atoms>  (848) 
nan

$$$$
CHEMBL3099764
     RDKit          3D

  0  0  0  0  0  0  0  0  0  0999 V3000
M  V30 BEGIN CTAB
M  V30 COUNTS 65 67 0 0 0
M  V30 BEGIN ATOM
M  V30 1 C 4.530264 -2.405365 2.532900 0
M  V30 2 C 5.872702 -1.784010 2.805450 0
M  V30 3 C 6.117264 -0.545378 1.977679 0
M  V30 4 C 5.022632 0.452879 2.332191 0
M  V30 5 C 5.211001 1.740055 1.523960 0
M  V30 6 C 4.116489 2.761175 1.866956 0
M  V30 7 C 2.780049 2.192045 1.551137 0
M  V30 8 C 2.144508 1.484829 2.574843 0
M  V30 9 C 0.903799 0.951171 2.295958 0
M  V30 10 C 0.316215 1.108688 1.060796 0
M  V30 11 N -0.903823 0.591294 0.766582 0
M  V30 12 C -1.466786 0.751437 -0.441754 0
M  V30 13 C -2.792632 0.179668 -0.736012 0
M  V30 14 O -3.341065 0.309049 -1.841428 0
M  V30 15 N -3.464250 -0.546594 0.288797 0
M  V30 16 C -4.749068 -1.142897 0.117176 0 CFG=1
M  V30 17 C -4.764137 -2.630626 0.318112 0
M  V30 18 C -3.894378 -3.372993 -0.596402 0
M  V30 19 C -4.523313 -3.758254 -1.774896 0
M  V30 20 C -3.846497 -4.470976 -2.756038 0
M  V30 21 C -2.523303 -4.826211 -2.602741 0
M  V30 22 O -1.776083 -5.531044 -3.522269 0
M  V30 23 C -1.900525 -4.437733 -1.421835 0
M  V30 24 C -2.567926 -3.729856 -0.444225 0
M  V30 25 C -5.780628 -0.543835 1.005274 0
M  V30 26 O -5.336569 0.374858 1.742785 0
M  V30 27 O -7.051719 -1.125599 0.843345 0
M  V30 28 C -8.163943 -0.682954 1.607442 0
M  V30 29 C -0.837703 1.447600 -1.444623 0
M  V30 30 C 0.402286 2.001885 -1.222036 0
M  V30 31 C 1.041341 2.734470 -2.299586 0
M  V30 32 O 2.113566 3.352343 -2.462536 0
M  V30 33 O 0.442128 2.877006 -3.520757 0
M  V30 34 C 0.917164 1.799767 0.032717 0
M  V30 35 C 2.154319 2.325009 0.329309 0
M  V30 36 H 3.711305 -1.869619 3.032781 0
M  V30 37 H 4.394348 -2.555468 1.449774 0
M  V30 38 H 4.555560 -3.436814 2.990342 0
M  V30 39 H 6.646616 -2.557903 2.627529 0
M  V30 40 H 5.926950 -1.480735 3.876489 0
M  V30 41 H 7.120510 -0.163152 2.250535 0
M  V30 42 H 6.080836 -0.763039 0.897618 0
M  V30 43 H 4.065706 -0.019198 2.102921 0
M  V30 44 H 5.176361 0.731051 3.391309 0
M  V30 45 H 6.212764 2.172262 1.701263 0
M  V30 46 H 5.148577 1.449391 0.459061 0
M  V30 47 H 4.153892 3.017798 2.941476 0
M  V30 48 H 4.271694 3.617660 1.210128 0
M  V30 49 H 2.521915 1.309576 3.567390 0
M  V30 50 H 0.353324 0.388587 3.048256 0
M  V30 51 H -3.049293 -0.691119 1.250530 0
M  V30 52 H -5.074203 -0.918329 -0.935632 0
M  V30 53 H -5.791733 -2.988072 0.301130 0
M  V30 54 H -4.368084 -2.797912 1.358633 0
M  V30 55 H -5.574360 -3.533523 -2.011264 0
M  V30 56 H -4.345042 -4.766076 -3.669688 0
M  V30 57 H -1.238202 -5.018988 -4.237892 0
M  V30 58 H -0.861846 -4.693027 -1.254498 0
M  V30 59 H -2.136694 -3.401368 0.492164 0
M  V30 60 H -8.901811 -0.153051 0.972410 0
M  V30 61 H -8.586478 -1.604052 2.075326 0
M  V30 62 H -7.762572 -0.068768 2.436999 0
M  V30 63 H -1.320750 1.556891 -2.405819 0
M  V30 64 H 0.856200 2.848863 -4.437172 0
M  V30 65 H 2.732065 2.879426 -0.363582 0
M  V30 END ATOM
M  V30 BEGIN BOND
M  V30 1 1 1 2
M  V30 2 1 2 3
M  V30 3 1 3 4
M  V30 4 1 4 5
M  V30 5 1 5 6
M  V30 6 1 6 7
M  V30 7 2 7 8
M  V30 8 1 8 9
M  V30 9 2 9 10
M  V30 10 1 10 11
M  V30 11 2 11 12
M  V30 12 1 12 13
M  V30 13 2 13 14
M  V30 14 1 13 15
M  V30 15 1 15 16
M  V30 16 1 16 17
M  V30 17 1 17 18
M  V30 18 2 18 19
M  V30 19 1 19 20
M  V30 20 2 20 21
M  V30 21 1 21 22
M  V30 22 1 21 23
M  V30 23 2 23 24
M  V30 24 1 16 25
M  V30 25 2 25 26
M  V30 26 1 25 27
M  V30 27 1 27 28
M  V30 28 1 12 29
M  V30 29 2 29 30
M  V30 30 1 30 31
M  V30 31 2 31 32
M  V30 32 1 31 33
M  V30 33 1 30 34
M  V30 34 2 34 35
M  V30 35 1 35 7
M  V30 36 1 34 10
M  V30 37 1 24 18
M  V30 38 1 1 36
M  V30 39 1 1 37
M  V30 40 1 1 38
M  V30 41 1 2 39
M  V30 42 1 2 40
M  V30 43 1 3 41
M  V30 44 1 3 42
M  V30 45 1 4 43
M  V30 46 1 4 44
M  V30 47 1 5 45
M  V30 48 1 5 46
M  V30 49 1 6 47
M  V30 50 1 6 48
M  V30 51 1 8 49
M  V30 52 1 9 50
M  V30 53 1 15 51
M  V30 54 1 16 52 CFG=3
M  V30 55 1 17 53
M  V30 56 1 17 54
M  V30 57 1 19 55
M  V30 58 1 20 56
M  V30 59 1 22 57
M  V30 60 1 23 58
M  V30 61 1 24 59
M  V30 62 1 28 60
M  V30 63 1 28 61
M  V30 64 1 28 62
M  V30 65 1 29 63
M  V30 66 1 33 64
M  V30 67 1 35 65
M  V30 END BOND
M  V30 END CTAB
M  END
>  <Dataset>  (849) 
ChEMBL_Kinases

>  <Ligand_Instance>  (849) 
nan

>  <PDB_ID>  (849) 
nan

>  <Standardized_SMILES>  (849) 
CCCCCCc1ccc2nc(C(=O)N[C@@H](Cc3ccc(O)cc3)C(=O)OC)cc(C(=O)O)c2c1

>  <Name>  (849) 
nan

>  <Pocket>  (849) 
nan

>  <ATP_Site>  (849) 
nan

>  <Peripheral>  (849) 
nan

>  <Num_H_Atoms_ProtBoundConf>  (849) 
nan

>  <Num_Resolved_Atoms>  (849) 
nan

>  <Num_Not_Resolved_Atoms>  (849) 
nan

$$$$
CHEMBL3099763
     RDKit          3D

  0  0  0  0  0  0  0  0  0  0999 V3000
M  V30 BEGIN CTAB
M  V30 COUNTS 61 64 0 0 0
M  V30 BEGIN ATOM
M  V30 1 C 5.500021 0.930288 5.258325 0
M  V30 2 O 4.375263 0.871050 4.398145 0
M  V30 3 C 3.690680 2.082757 4.187443 0
M  V30 4 O 4.143438 3.116103 4.786801 0
M  V30 5 C 2.517582 2.534451 3.419051 0 CFG=2
M  V30 6 C 1.516274 3.083905 4.424905 0
M  V30 7 C 0.288523 3.567838 3.733236 0
M  V30 8 C -0.761358 2.712979 3.521245 0
M  V30 9 C -1.886559 3.216098 2.869484 0
M  V30 10 C -1.905372 4.545229 2.463518 0
M  V30 11 O -3.049946 5.036504 1.806643 0
M  V30 12 C -0.840301 5.415282 2.677740 0
M  V30 13 C 0.237933 4.883162 3.317249 0
M  V30 14 N 1.909587 1.447570 2.690846 0
M  V30 15 C 1.759978 1.566086 1.283022 0
M  V30 16 O 2.145068 2.586912 0.685922 0
M  V30 17 C 1.138239 0.453677 0.541189 0
M  V30 18 C 0.991177 0.568439 -0.840859 0
M  V30 19 C 0.400174 -0.520286 -1.446446 0
M  V30 20 C 0.267644 -0.354890 -2.888462 0
M  V30 21 O 0.616819 0.621890 -3.595969 0
M  V30 22 O -0.169958 -0.938302 -4.046132 0
M  V30 23 C -0.021154 -1.644371 -0.767454 0
M  V30 24 C -0.602820 -2.687439 -1.455199 0
M  V30 25 C -1.042015 -3.833947 -0.828735 0
M  V30 26 C -1.663872 -4.966750 -1.508901 0
M  V30 27 C -1.887904 -5.050035 -2.793595 0
M  V30 28 C -2.508933 -6.180088 -3.476332 0
M  V30 29 C -2.945441 -7.322862 -2.842462 0
M  V30 30 C -3.531784 -8.388735 -3.490353 0
M  V30 31 C -3.699103 -8.323580 -4.855443 0
M  V30 32 Cl -4.452316 -9.698096 -5.670288 0
M  V30 33 C -3.277022 -7.197279 -5.536513 0
M  V30 34 C -2.703708 -6.174467 -4.841048 0
M  V30 35 C -0.855592 -3.858279 0.536503 0
M  V30 36 C -0.277746 -2.832874 1.254220 0
M  V30 37 C 0.150184 -1.700339 0.594477 0
M  V30 38 N 0.721568 -0.650114 1.187589 0
M  V30 39 H 5.143854 0.685127 6.278335 0
M  V30 40 H 5.943680 1.946536 5.288699 0
M  V30 41 H 6.207920 0.158135 4.895549 0
M  V30 42 H 2.783741 3.329883 2.717417 0
M  V30 43 H 1.963613 3.940200 4.946455 0
M  V30 44 H 1.202445 2.286460 5.127483 0
M  V30 45 H -0.666490 1.698877 3.866810 0
M  V30 46 H -2.727269 2.553225 2.693291 0
M  V30 47 H -2.977789 5.172994 0.801802 0
M  V30 48 H -0.953145 6.428339 2.324443 0
M  V30 49 H 1.083266 5.546280 3.495397 0
M  V30 50 H 1.572103 0.573033 3.150322 0
M  V30 51 H 1.329746 1.458840 -1.345128 0
M  V30 52 H -1.123123 -0.962054 -4.373577 0
M  V30 53 H -0.719226 -2.605764 -2.519434 0
M  V30 54 H -1.968923 -5.813293 -0.911768 0
M  V30 55 H -1.586801 -4.208807 -3.401513 0
M  V30 56 H -2.837905 -7.420868 -1.785867 0
M  V30 57 H -3.859966 -9.274188 -2.930148 0
M  V30 58 H -3.410467 -7.148387 -6.615402 0
M  V30 59 H -2.395105 -5.320047 -5.437762 0
M  V30 60 H -1.179867 -4.733354 1.090456 0
M  V30 61 H -0.139353 -2.869269 2.326208 0
M  V30 END ATOM
M  V30 BEGIN BOND
M  V30 1 1 1 2
M  V30 2 1 2 3
M  V30 3 2 3 4
M  V30 4 1 3 5
M  V30 5 1 5 6
M  V30 6 1 6 7
M  V30 7 2 7 8
M  V30 8 1 8 9
M  V30 9 2 9 10
M  V30 10 1 10 11
M  V30 11 1 10 12
M  V30 12 2 12 13
M  V30 13 1 5 14
M  V30 14 1 14 15
M  V30 15 2 15 16
M  V30 16 1 15 17
M  V30 17 2 17 18
M  V30 18 1 18 19
M  V30 19 1 19 20
M  V30 20 2 20 21
M  V30 21 1 20 22
M  V30 22 2 19 23
M  V30 23 1 23 24
M  V30 24 2 24 25
M  V30 25 1 25 26
M  V30 26 2 26 27
M  V30 27 1 27 28
M  V30 28 2 28 29
M  V30 29 1 29 30
M  V30 30 2 30 31
M  V30 31 1 31 32
M  V30 32 1 31 33
M  V30 33 2 33 34
M  V30 34 1 25 35
M  V30 35 2 35 36
M  V30 36 1 36 37
M  V30 37 2 37 38
M  V30 38 1 13 7
M  V30 39 1 38 17
M  V30 40 1 37 23
M  V30 41 1 34 28
M  V30 42 1 1 39
M  V30 43 1 1 40
M  V30 44 1 1 41
M  V30 45 1 5 42 CFG=3
M  V30 46 1 6 43
M  V30 47 1 6 44
M  V30 48 1 8 45
M  V30 49 1 9 46
M  V30 50 1 11 47
M  V30 51 1 12 48
M  V30 52 1 13 49
M  V30 53 1 14 50
M  V30 54 1 18 51
M  V30 55 1 22 52
M  V30 56 1 24 53
M  V30 57 1 26 54
M  V30 58 1 27 55
M  V30 59 1 29 56
M  V30 60 1 30 57
M  V30 61 1 33 58
M  V30 62 1 34 59
M  V30 63 1 35 60
M  V30 64 1 36 61
M  V30 END BOND
M  V30 END CTAB
M  END
>  <Dataset>  (850) 
ChEMBL_Kinases

>  <Ligand_Instance>  (850) 
nan

>  <PDB_ID>  (850) 
nan

>  <Standardized_SMILES>  (850) 
COC(=O)[C@H](Cc1ccc(O)cc1)NC(=O)c1cc(C(=O)O)c2cc(/C=C/c3ccc(Cl)cc3)ccc2n1

>  <Name>  (850) 
nan

>  <Pocket>  (850) 
nan

>  <ATP_Site>  (850) 
nan

>  <Peripheral>  (850) 
nan

>  <Num_H_Atoms_ProtBoundConf>  (850) 
nan

>  <Num_Resolved_Atoms>  (850) 
nan

>  <Num_Not_Resolved_Atoms>  (850) 
nan

$$$$
CHEMBL3099762
     RDKit          3D

  0  0  0  0  0  0  0  0  0  0999 V3000
M  V30 BEGIN CTAB
M  V30 COUNTS 63 66 0 0 0
M  V30 BEGIN ATOM
M  V30 1 C 0.906429 1.925039 6.134458 0
M  V30 2 O 1.082888 1.619461 4.765920 0
M  V30 3 C 2.184009 2.191807 4.126304 0
M  V30 4 O 2.909372 2.934916 4.873773 0
M  V30 5 C 2.633709 2.060678 2.700194 0 CFG=2
M  V30 6 C 2.852535 3.428681 2.167139 0
M  V30 7 C 3.291967 3.394336 0.767796 0
M  V30 8 C 2.275190 3.431775 -0.181448 0
M  V30 9 C 2.594271 3.409987 -1.529976 0
M  V30 10 C 3.929615 3.351639 -1.922485 0
M  V30 11 O 4.312326 3.329380 -3.279112 0
M  V30 12 C 4.945302 3.313443 -0.979102 0
M  V30 13 C 4.624518 3.334849 0.381068 0
M  V30 14 N 1.764360 1.215245 1.948143 0
M  V30 15 C 2.088808 -0.103217 1.545860 0
M  V30 16 O 3.253946 -0.460328 1.929131 0
M  V30 17 C 1.216640 -0.987076 0.779887 0
M  V30 18 C 1.709613 -2.248024 0.521881 0
M  V30 19 C 0.980552 -3.182543 -0.179115 0
M  V30 20 C 1.543683 -4.496935 -0.425261 0
M  V30 21 O 1.158214 -5.522978 -1.008020 0
M  V30 22 O 2.803282 -4.809637 0.050217 0
M  V30 23 C -0.258645 -2.734101 -0.583287 0
M  V30 24 C -1.061791 -3.600592 -1.292164 0
M  V30 25 C -2.320776 -3.288329 -1.757271 0
M  V30 26 C -3.175990 -4.245808 -2.512070 0
M  V30 27 C -4.073427 -5.030227 -1.554181 0
M  V30 28 C -4.959474 -4.106116 -0.802538 0
M  V30 29 C -4.643776 -3.505221 0.427312 0
M  V30 30 C -5.539405 -2.658105 1.049574 0
M  V30 31 C -6.764574 -2.391337 0.462657 0
M  V30 32 Cl -7.890421 -1.308104 1.276117 0
M  V30 33 C -7.143489 -2.948207 -0.750555 0
M  V30 34 C -6.206831 -3.779250 -1.312631 0
M  V30 35 C -2.807656 -2.015130 -1.492020 0
M  V30 36 C -2.038166 -1.104774 -0.782901 0
M  V30 37 C -0.789693 -1.488697 -0.349544 0
M  V30 38 N -0.000130 -0.639642 0.347618 0
M  V30 39 H 0.568245 1.014465 6.705886 0
M  V30 40 H 0.209789 2.765332 6.301000 0
M  V30 41 H 1.871361 2.220319 6.625110 0
M  V30 42 H 3.632139 1.550649 2.783165 0
M  V30 43 H 1.991843 4.113422 2.314622 0
M  V30 44 H 3.678091 3.882144 2.793905 0
M  V30 45 H 1.222988 3.479037 0.065695 0
M  V30 46 H 1.874122 3.436262 -2.342617 0
M  V30 47 H 5.134114 3.889553 -3.568495 0
M  V30 48 H 5.998761 3.271161 -1.279062 0
M  V30 49 H 5.381935 3.305327 1.160720 0
M  V30 50 H 0.802897 1.564238 1.653707 0
M  V30 51 H 2.704544 -2.551577 0.867387 0
M  V30 52 H 3.020039 -5.712632 0.444048 0
M  V30 53 H -0.770708 -4.604340 -1.546460 0
M  V30 54 H -2.569628 -4.961180 -3.081319 0
M  V30 55 H -3.848661 -3.720482 -3.217857 0
M  V30 56 H -4.727741 -5.657833 -2.197503 0
M  V30 57 H -3.499801 -5.725834 -0.913641 0
M  V30 58 H -3.657331 -3.785520 0.793933 0
M  V30 59 H -5.229855 -2.229619 2.000308 0
M  V30 60 H -8.094421 -2.752369 -1.223653 0
M  V30 61 H -6.513482 -4.218721 -2.276714 0
M  V30 62 H -3.800445 -1.673297 -1.821447 0
M  V30 63 H -2.421244 -0.117932 -0.581792 0
M  V30 END ATOM
M  V30 BEGIN BOND
M  V30 1 1 1 2
M  V30 2 1 2 3
M  V30 3 2 3 4
M  V30 4 1 3 5
M  V30 5 1 5 6
M  V30 6 1 6 7
M  V30 7 2 7 8
M  V30 8 1 8 9
M  V30 9 2 9 10
M  V30 10 1 10 11
M  V30 11 1 10 12
M  V30 12 2 12 13
M  V30 13 1 5 14
M  V30 14 1 14 15
M  V30 15 2 15 16
M  V30 16 1 15 17
M  V30 17 2 17 18
M  V30 18 1 18 19
M  V30 19 1 19 20
M  V30 20 2 20 21
M  V30 21 1 20 22
M  V30 22 2 19 23
M  V30 23 1 23 24
M  V30 24 2 24 25
M  V30 25 1 25 26
M  V30 26 1 26 27
M  V30 27 1 27 28
M  V30 28 2 28 29
M  V30 29 1 29 30
M  V30 30 2 30 31
M  V30 31 1 31 32
M  V30 32 1 31 33
M  V30 33 2 33 34
M  V30 34 1 25 35
M  V30 35 2 35 36
M  V30 36 1 36 37
M  V30 37 2 37 38
M  V30 38 1 13 7
M  V30 39 1 38 17
M  V30 40 1 37 23
M  V30 41 1 34 28
M  V30 42 1 1 39
M  V30 43 1 1 40
M  V30 44 1 1 41
M  V30 45 1 5 42 CFG=1
M  V30 46 1 6 43
M  V30 47 1 6 44
M  V30 48 1 8 45
M  V30 49 1 9 46
M  V30 50 1 11 47
M  V30 51 1 12 48
M  V30 52 1 13 49
M  V30 53 1 14 50
M  V30 54 1 18 51
M  V30 55 1 22 52
M  V30 56 1 24 53
M  V30 57 1 26 54
M  V30 58 1 26 55
M  V30 59 1 27 56
M  V30 60 1 27 57
M  V30 61 1 29 58
M  V30 62 1 30 59
M  V30 63 1 33 60
M  V30 64 1 34 61
M  V30 65 1 35 62
M  V30 66 1 36 63
M  V30 END BOND
M  V30 END CTAB
M  END
>  <Dataset>  (851) 
ChEMBL_Kinases

>  <Ligand_Instance>  (851) 
nan

>  <PDB_ID>  (851) 
nan

>  <Standardized_SMILES>  (851) 
COC(=O)[C@H](Cc1ccc(O)cc1)NC(=O)c1cc(C(=O)O)c2cc(CCc3ccc(Cl)cc3)ccc2n1

>  <Name>  (851) 
nan

>  <Pocket>  (851) 
nan

>  <ATP_Site>  (851) 
nan

>  <Peripheral>  (851) 
nan

>  <Num_H_Atoms_ProtBoundConf>  (851) 
nan

>  <Num_Resolved_Atoms>  (851) 
nan

>  <Num_Not_Resolved_Atoms>  (851) 
nan

$$$$
CHEMBL3099761
     RDKit          3D

  0  0  0  0  0  0  0  0  0  0999 V3000
M  V30 BEGIN CTAB
M  V30 COUNTS 60 63 0 0 0
M  V30 BEGIN ATOM
M  V30 1 C 3.389575 1.837815 -2.819218 0
M  V30 2 O 2.891160 1.632135 -1.510956 0
M  V30 3 C 3.419148 2.227183 -0.362650 0
M  V30 4 O 4.358557 2.917199 -0.780890 0
M  V30 5 C 2.818963 1.943470 0.957290 0 CFG=2
M  V30 6 C 3.807342 1.460800 1.994767 0
M  V30 7 C 4.866453 2.472254 2.228037 0
M  V30 8 C 4.626028 3.441681 3.213276 0
M  V30 9 C 5.599188 4.400273 3.464405 0
M  V30 10 C 6.792442 4.473014 2.814344 0
M  V30 11 O 7.692057 5.470609 3.144102 0
M  V30 12 C 7.023275 3.524201 1.852119 0
M  V30 13 C 6.086264 2.553304 1.569546 0
M  V30 14 N 1.696676 1.052783 0.809545 0
M  V30 15 C 0.352955 1.250943 1.203253 0
M  V30 16 O -0.039173 2.317652 1.771518 0
M  V30 17 C -0.611751 0.170161 0.937060 0
M  V30 18 C -1.940834 0.348173 1.315990 0
M  V30 19 C -2.786412 -0.708490 1.037375 0
M  V30 20 C -4.147159 -0.445083 1.457868 0
M  V30 21 O -4.645385 0.557771 2.016631 0
M  V30 22 O -5.426941 -0.962528 1.510825 0
M  V30 23 C -2.425925 -1.893586 0.429873 0
M  V30 24 C -3.344866 -2.895023 0.195281 0
M  V30 25 C -2.950393 -4.070209 -0.413062 0
M  V30 26 C -3.864929 -5.169057 -0.695066 0
M  V30 27 C -3.442242 -6.498089 -0.693352 0
M  V30 28 C -4.267463 -7.572924 -0.957587 0
M  V30 29 C -5.597768 -7.313868 -1.241437 0
M  V30 30 C -6.012688 -5.996398 -1.241974 0
M  V30 31 C -7.442425 -5.751709 -1.548222 0
M  V30 32 F -7.798804 -6.416286 -2.717619 0
M  V30 33 F -8.235591 -6.168587 -0.500885 0
M  V30 34 F -7.714426 -4.406584 -1.782000 0
M  V30 35 C -5.198348 -4.923663 -0.980703 0
M  V30 36 C -1.594561 -4.145738 -0.752900 0
M  V30 37 C -0.658897 -3.157801 -0.527805 0
M  V30 38 C -1.080769 -1.992201 0.082471 0
M  V30 39 N -0.233195 -0.982084 0.339728 0
M  V30 40 H 3.453068 0.850766 -3.363946 0
M  V30 41 H 2.633257 2.476633 -3.353326 0
M  V30 42 H 4.384576 2.290162 -2.823793 0
M  V30 43 H 2.493267 2.953083 1.357948 0
M  V30 44 H 3.286909 1.274137 2.958499 0
M  V30 45 H 4.276367 0.537952 1.646794 0
M  V30 46 H 3.706755 3.465143 3.783459 0
M  V30 47 H 5.375292 5.140859 4.244772 0
M  V30 48 H 7.493732 6.463957 3.011803 0
M  V30 49 H 7.963670 3.531763 1.297897 0
M  V30 50 H 6.276589 1.818842 0.822555 0
M  V30 51 H 2.019306 0.163566 0.335184 0
M  V30 52 H -2.208818 1.264383 1.781734 0
M  V30 53 H -5.764406 -1.634767 2.178148 0
M  V30 54 H -4.376817 -2.760714 0.487800 0
M  V30 55 H -2.397387 -6.746866 -0.472475 0
M  V30 56 H -3.881169 -8.587885 -0.942703 0
M  V30 57 H -6.269356 -8.145538 -1.454221 0
M  V30 58 H -5.556305 -3.899106 -0.990144 0
M  V30 59 H -1.278847 -5.083084 -1.237051 0
M  V30 60 H 0.367853 -3.299765 -0.823039 0
M  V30 END ATOM
M  V30 BEGIN BOND
M  V30 1 1 1 2
M  V30 2 1 2 3
M  V30 3 2 3 4
M  V30 4 1 3 5
M  V30 5 1 5 6
M  V30 6 1 6 7
M  V30 7 2 7 8
M  V30 8 1 8 9
M  V30 9 2 9 10
M  V30 10 1 10 11
M  V30 11 1 10 12
M  V30 12 2 12 13
M  V30 13 1 5 14
M  V30 14 1 14 15
M  V30 15 2 15 16
M  V30 16 1 15 17
M  V30 17 2 17 18
M  V30 18 1 18 19
M  V30 19 1 19 20
M  V30 20 2 20 21
M  V30 21 1 20 22
M  V30 22 2 19 23
M  V30 23 1 23 24
M  V30 24 2 24 25
M  V30 25 1 25 26
M  V30 26 2 26 27
M  V30 27 1 27 28
M  V30 28 2 28 29
M  V30 29 1 29 30
M  V30 30 1 30 31
M  V30 31 1 31 32
M  V30 32 1 31 33
M  V30 33 1 31 34
M  V30 34 2 30 35
M  V30 35 1 25 36
M  V30 36 2 36 37
M  V30 37 1 37 38
M  V30 38 2 38 39
M  V30 39 1 13 7
M  V30 40 1 39 17
M  V30 41 1 38 23
M  V30 42 1 35 26
M  V30 43 1 1 40
M  V30 44 1 1 41
M  V30 45 1 1 42
M  V30 46 1 5 43 CFG=1
M  V30 47 1 6 44
M  V30 48 1 6 45
M  V30 49 1 8 46
M  V30 50 1 9 47
M  V30 51 1 11 48
M  V30 52 1 12 49
M  V30 53 1 13 50
M  V30 54 1 14 51
M  V30 55 1 18 52
M  V30 56 1 22 53
M  V30 57 1 24 54
M  V30 58 1 27 55
M  V30 59 1 28 56
M  V30 60 1 29 57
M  V30 61 1 35 58
M  V30 62 1 36 59
M  V30 63 1 37 60
M  V30 END BOND
M  V30 END CTAB
M  END
>  <Dataset>  (852) 
ChEMBL_Kinases

>  <Ligand_Instance>  (852) 
nan

>  <PDB_ID>  (852) 
nan

>  <Standardized_SMILES>  (852) 
COC(=O)[C@H](Cc1ccc(O)cc1)NC(=O)c1cc(C(=O)O)c2cc(-c3cccc(C(F)(F)F)c3)ccc2n1

>  <Name>  (852) 
nan

>  <Pocket>  (852) 
nan

>  <ATP_Site>  (852) 
nan

>  <Peripheral>  (852) 
nan

>  <Num_H_Atoms_ProtBoundConf>  (852) 
nan

>  <Num_Resolved_Atoms>  (852) 
nan

>  <Num_Not_Resolved_Atoms>  (852) 
nan

$$$$
CHEMBL3099760
     RDKit          3D

  0  0  0  0  0  0  0  0  0  0999 V3000
M  V30 BEGIN CTAB
M  V30 COUNTS 60 63 0 0 0
M  V30 BEGIN ATOM
M  V30 1 C 1.688365 4.232368 -0.902889 0
M  V30 2 O 1.312111 3.219326 0.026052 0
M  V30 3 C 1.593711 3.277653 1.385946 0
M  V30 4 O 2.182406 4.393255 1.311847 0
M  V30 5 C 1.206142 2.228851 2.359168 0 CFG=2
M  V30 6 C 2.375869 1.749093 3.188315 0
M  V30 7 C 3.026110 2.786414 3.990503 0
M  V30 8 C 4.083131 3.534675 3.474727 0
M  V30 9 C 4.592565 4.475547 4.381256 0
M  V30 10 C 4.111142 4.653490 5.648999 0
M  V30 11 O 4.672210 5.618421 6.507327 0
M  V30 12 C 3.075672 3.902645 6.117311 0
M  V30 13 C 2.530267 2.956943 5.268749 0
M  V30 14 N 0.524546 1.192406 1.682248 0
M  V30 15 C -0.728635 0.556663 1.811478 0
M  V30 16 O -1.450636 0.988908 2.749147 0
M  V30 17 C -1.146584 -0.521516 0.921152 0
M  V30 18 C -2.373331 -1.086636 1.164323 0
M  V30 19 C -2.905314 -2.120839 0.423121 0
M  V30 20 C -4.216705 -2.631686 0.774961 0
M  V30 21 O -4.939268 -3.527573 0.300582 0
M  V30 22 O -4.900578 -2.094641 1.832339 0
M  V30 23 C -2.092203 -2.552957 -0.601812 0
M  V30 24 C -2.542716 -3.590604 -1.393530 0
M  V30 25 C -1.780660 -4.076035 -2.432863 0
M  V30 26 N -2.196672 -5.160884 -3.255503 0
M  V30 27 C -3.326268 -6.054342 -2.992983 0
M  V30 28 C -2.661692 -7.384986 -2.647673 0
M  V30 29 O -2.079938 -7.836143 -3.805803 0
M  V30 30 C -1.091897 -7.023095 -4.321142 0
M  V30 31 C -1.561567 -5.568195 -4.498223 0
M  V30 32 C -0.551482 -3.523808 -2.694696 0
M  V30 33 C -0.072040 -2.485010 -1.921192 0
M  V30 34 C -0.852695 -2.016987 -0.885142 0
M  V30 35 N -0.404827 -0.995546 -0.100302 0
M  V30 36 H 2.752529 4.498665 -0.795839 0
M  V30 37 H 0.990253 5.077447 -0.736749 0
M  V30 38 H 1.488120 3.791817 -1.918131 0
M  V30 39 H 0.552805 2.761058 3.123058 0
M  V30 40 H 3.131436 1.361026 2.474493 0
M  V30 41 H 2.078451 0.855807 3.811387 0
M  V30 42 H 4.469183 3.404705 2.477666 0
M  V30 43 H 5.423426 5.065737 3.975928 0
M  V30 44 H 4.602709 6.617261 6.282339 0
M  V30 45 H 2.681547 4.026978 7.113000 0
M  V30 46 H 1.699637 2.357184 5.646017 0
M  V30 47 H 1.148845 0.839581 0.894445 0
M  V30 48 H -2.977107 -0.702543 1.996798 0
M  V30 49 H -5.547168 -2.618779 2.398976 0
M  V30 50 H -3.475148 -4.054248 -1.242487 0
M  V30 51 H -4.010476 -5.718329 -2.227337 0
M  V30 52 H -3.898156 -6.230540 -3.927401 0
M  V30 53 H -1.845337 -7.220599 -1.889625 0
M  V30 54 H -3.348080 -8.134234 -2.262533 0
M  V30 55 H -0.124284 -7.077756 -3.803514 0
M  V30 56 H -0.900935 -7.368678 -5.374647 0
M  V30 57 H -2.360565 -5.646071 -5.290625 0
M  V30 58 H -0.714710 -4.972696 -4.810695 0
M  V30 59 H 0.154939 -3.786428 -3.462880 0
M  V30 60 H 0.886219 -1.986504 -2.052575 0
M  V30 END ATOM
M  V30 BEGIN BOND
M  V30 1 1 1 2
M  V30 2 1 2 3
M  V30 3 2 3 4
M  V30 4 1 3 5
M  V30 5 1 5 6
M  V30 6 1 6 7
M  V30 7 2 7 8
M  V30 8 1 8 9
M  V30 9 2 9 10
M  V30 10 1 10 11
M  V30 11 1 10 12
M  V30 12 2 12 13
M  V30 13 1 5 14
M  V30 14 1 14 15
M  V30 15 2 15 16
M  V30 16 1 15 17
M  V30 17 2 17 18
M  V30 18 1 18 19
M  V30 19 1 19 20
M  V30 20 2 20 21
M  V30 21 1 20 22
M  V30 22 2 19 23
M  V30 23 1 23 24
M  V30 24 2 24 25
M  V30 25 1 25 26
M  V30 26 1 26 27
M  V30 27 1 27 28
M  V30 28 1 28 29
M  V30 29 1 29 30
M  V30 30 1 30 31
M  V30 31 1 25 32
M  V30 32 2 32 33
M  V30 33 1 33 34
M  V30 34 2 34 35
M  V30 35 1 13 7
M  V30 36 1 35 17
M  V30 37 1 34 23
M  V30 38 1 31 26
M  V30 39 1 1 36
M  V30 40 1 1 37
M  V30 41 1 1 38
M  V30 42 1 5 39 CFG=1
M  V30 43 1 6 40
M  V30 44 1 6 41
M  V30 45 1 8 42
M  V30 46 1 9 43
M  V30 47 1 11 44
M  V30 48 1 12 45
M  V30 49 1 13 46
M  V30 50 1 14 47
M  V30 51 1 18 48
M  V30 52 1 22 49
M  V30 53 1 24 50
M  V30 54 1 27 51
M  V30 55 1 27 52
M  V30 56 1 28 53
M  V30 57 1 28 54
M  V30 58 1 30 55
M  V30 59 1 30 56
M  V30 60 1 31 57
M  V30 61 1 31 58
M  V30 62 1 32 59
M  V30 63 1 33 60
M  V30 END BOND
M  V30 END CTAB
M  END
>  <Dataset>  (853) 
ChEMBL_Kinases

>  <Ligand_Instance>  (853) 
nan

>  <PDB_ID>  (853) 
nan

>  <Standardized_SMILES>  (853) 
COC(=O)[C@H](Cc1ccc(O)cc1)NC(=O)c1cc(C(=O)O)c2cc(N3CCOCC3)ccc2n1

>  <Name>  (853) 
nan

>  <Pocket>  (853) 
nan

>  <ATP_Site>  (853) 
nan

>  <Peripheral>  (853) 
nan

>  <Num_H_Atoms_ProtBoundConf>  (853) 
nan

>  <Num_Resolved_Atoms>  (853) 
nan

>  <Num_Not_Resolved_Atoms>  (853) 
nan

$$$$
CHEMBL3099759
     RDKit          3D

  0  0  0  0  0  0  0  0  0  0999 V3000
M  V30 BEGIN CTAB
M  V30 COUNTS 57 60 0 0 0
M  V30 BEGIN ATOM
M  V30 1 C 2.348909 2.992786 4.459738 0
M  V30 2 O 2.373763 2.051072 3.420968 0
M  V30 3 C 3.532950 1.596267 2.822762 0
M  V30 4 O 4.420597 2.241296 3.455234 0
M  V30 5 C 3.690278 0.590989 1.707391 0 CFG=2
M  V30 6 C 4.350603 1.320455 0.601034 0
M  V30 7 C 4.632744 0.560276 -0.621377 0
M  V30 8 C 3.743407 0.465729 -1.671106 0
M  V30 9 C 3.953508 -0.241518 -2.860982 0
M  V30 10 C 5.173345 -0.900361 -2.978157 0
M  V30 11 O 5.395519 -1.604543 -4.154460 0
M  V30 12 C 6.105405 -0.832774 -1.940887 0
M  V30 13 C 5.841204 -0.109648 -0.770096 0
M  V30 14 N 2.310941 0.203846 1.388667 0
M  V30 15 C 1.763367 -1.075234 1.783580 0
M  V30 16 O 2.556942 -1.790399 2.403357 0
M  V30 17 C 0.378686 -1.342870 1.406060 0
M  V30 18 C -0.097870 -2.564034 1.827126 0
M  V30 19 C -1.396819 -2.904202 1.517848 0
M  V30 20 C -1.920562 -4.190829 1.949196 0
M  V30 21 O -2.977972 -4.840771 1.873497 0
M  V30 22 O -1.117549 -5.062822 2.668053 0
M  V30 23 C -2.149843 -2.000245 0.802321 0
M  V30 24 C -3.453653 -2.273690 0.454267 0
M  V30 25 C -4.234873 -1.375649 -0.273992 0
M  V30 26 C -5.618798 -1.672222 -0.646375 0
M  V30 27 C -5.975652 -2.986955 -0.891711 0
M  V30 28 C -7.267977 -3.291829 -1.245363 0
M  V30 29 C -8.184758 -2.270194 -1.348399 0
M  V30 30 C -7.867752 -0.933198 -1.110308 0
M  V30 31 C -6.547294 -0.629146 -0.749464 0
M  V30 32 C -3.695798 -0.164006 -0.667061 0
M  V30 33 C -2.376947 0.153576 -0.334740 0
M  V30 34 C -1.667753 -0.781936 0.384655 0
M  V30 35 N -0.395689 -0.480301 0.702742 0
M  V30 36 H 3.204310 2.936444 5.144362 0
M  V30 37 H 1.449387 2.760794 5.097990 0
M  V30 38 H 2.179109 4.031059 4.096845 0
M  V30 39 H 4.263780 -0.225857 2.178681 0
M  V30 40 H 3.644085 2.153869 0.303165 0
M  V30 41 H 5.272677 1.848885 0.905389 0
M  V30 42 H 2.792192 0.986955 -1.563501 0
M  V30 43 H 3.188079 -0.253762 -3.626918 0
M  V30 44 H 5.036682 -1.304713 -5.043550 0
M  V30 45 H 7.051369 -1.359014 -2.054154 0
M  V30 46 H 6.601948 -0.095119 -0.005805 0
M  V30 47 H 1.770606 0.925800 0.856266 0
M  V30 48 H 0.478577 -3.282365 2.388715 0
M  V30 49 H -1.399165 -5.616747 3.461266 0
M  V30 50 H -3.946722 -3.191411 0.722573 0
M  V30 51 H -5.254885 -3.800507 -0.811803 0
M  V30 52 H -7.637572 -4.301471 -1.458931 0
M  V30 53 H -9.215058 -2.499205 -1.631284 0
M  V30 54 H -8.622086 -0.173511 -1.204920 0
M  V30 55 H -6.256924 0.394338 -0.555134 0
M  V30 56 H -4.221024 0.591357 -1.232639 0
M  V30 57 H -1.941957 1.103515 -0.639541 0
M  V30 END ATOM
M  V30 BEGIN BOND
M  V30 1 1 1 2
M  V30 2 1 2 3
M  V30 3 2 3 4
M  V30 4 1 3 5
M  V30 5 1 5 6
M  V30 6 1 6 7
M  V30 7 2 7 8
M  V30 8 1 8 9
M  V30 9 2 9 10
M  V30 10 1 10 11
M  V30 11 1 10 12
M  V30 12 2 12 13
M  V30 13 1 5 14
M  V30 14 1 14 15
M  V30 15 2 15 16
M  V30 16 1 15 17
M  V30 17 2 17 18
M  V30 18 1 18 19
M  V30 19 1 19 20
M  V30 20 2 20 21
M  V30 21 1 20 22
M  V30 22 2 19 23
M  V30 23 1 23 24
M  V30 24 2 24 25
M  V30 25 1 25 26
M  V30 26 2 26 27
M  V30 27 1 27 28
M  V30 28 2 28 29
M  V30 29 1 29 30
M  V30 30 2 30 31
M  V30 31 1 25 32
M  V30 32 2 32 33
M  V30 33 1 33 34
M  V30 34 2 34 35
M  V30 35 1 13 7
M  V30 36 1 35 17
M  V30 37 1 34 23
M  V30 38 1 31 26
M  V30 39 1 1 36
M  V30 40 1 1 37
M  V30 41 1 1 38
M  V30 42 1 5 39 CFG=1
M  V30 43 1 6 40
M  V30 44 1 6 41
M  V30 45 1 8 42
M  V30 46 1 9 43
M  V30 47 1 11 44
M  V30 48 1 12 45
M  V30 49 1 13 46
M  V30 50 1 14 47
M  V30 51 1 18 48
M  V30 52 1 22 49
M  V30 53 1 24 50
M  V30 54 1 27 51
M  V30 55 1 28 52
M  V30 56 1 29 53
M  V30 57 1 30 54
M  V30 58 1 31 55
M  V30 59 1 32 56
M  V30 60 1 33 57
M  V30 END BOND
M  V30 END CTAB
M  END
>  <Dataset>  (854) 
ChEMBL_Kinases

>  <Ligand_Instance>  (854) 
nan

>  <PDB_ID>  (854) 
nan

>  <Standardized_SMILES>  (854) 
COC(=O)[C@H](Cc1ccc(O)cc1)NC(=O)c1cc(C(=O)O)c2cc(-c3ccccc3)ccc2n1

>  <Name>  (854) 
nan

>  <Pocket>  (854) 
nan

>  <ATP_Site>  (854) 
nan

>  <Peripheral>  (854) 
nan

>  <Num_H_Atoms_ProtBoundConf>  (854) 
nan

>  <Num_Resolved_Atoms>  (854) 
nan

>  <Num_Not_Resolved_Atoms>  (854) 
nan

$$$$
CHEMBL3094464
     RDKit          3D

  0  0  0  0  0  0  0  0  0  0999 V3000
M  V30 BEGIN CTAB
M  V30 COUNTS 55 59 0 0 0
M  V30 BEGIN ATOM
M  V30 1 C -5.582772 -7.758335 -0.536672 0
M  V30 2 O -6.090648 -6.506614 -0.960149 0
M  V30 3 C -5.319112 -5.356185 -0.649586 0
M  V30 4 N -4.200256 -5.396535 0.030837 0
M  V30 5 C -3.380039 -4.455670 0.391471 0
M  V30 6 C -3.876879 -3.232266 -0.087180 0
M  V30 7 C -3.054582 -2.048841 0.135833 0
M  V30 8 C -3.379248 -0.720457 -0.359423 0
M  V30 9 C -2.395740 0.236159 -0.153296 0
M  V30 10 O -1.404402 0.291448 0.594425 0
M  V30 11 N -2.350211 1.435612 -0.872546 0
M  V30 12 C -1.785722 2.659059 -1.187735 0
M  V30 13 C -0.588842 2.833521 -0.455261 0
M  V30 14 C 0.265766 3.919962 -0.586249 0
M  V30 15 C 1.542542 4.015048 0.181408 0
M  V30 16 O 1.087896 4.761012 1.087310 0
M  V30 17 N 2.694531 3.282980 -0.365045 0
M  V30 18 C 2.299037 2.618036 -1.579964 0
M  V30 19 C 3.357775 1.701508 -2.120913 0
M  V30 20 C 4.010943 0.943767 -1.023772 0
M  V30 21 C 4.337543 -0.432128 -0.928371 0
M  V30 22 C 4.916850 -1.034031 0.119329 0
M  V30 23 C 5.260179 -0.350257 1.232799 0
M  V30 24 C 4.976514 0.989369 1.193295 0
M  V30 25 C 4.374762 1.653597 0.141752 0
M  V30 26 C 4.061081 3.127162 0.092579 0
M  V30 27 C -0.119341 4.874785 -1.490605 0
M  V30 28 C -1.297520 4.702759 -2.207831 0
M  V30 29 C -2.126610 3.639996 -2.084270 0
M  V30 30 Cl -3.617918 3.369478 -2.973542 0
M  V30 31 C -4.489151 -1.237466 -0.882185 0
M  V30 32 O -4.880589 -0.008507 -1.399826 0
M  V30 33 N -5.511177 -1.687414 -1.369363 0
M  V30 34 C -5.068585 -2.956998 -0.846255 0
M  V30 35 N -5.747063 -4.182825 -1.072704 0
M  V30 36 H -5.328782 -7.840865 0.520356 0
M  V30 37 H -4.572230 -7.927415 -1.093234 0
M  V30 38 H -6.261740 -8.566111 -0.831217 0
M  V30 39 H -2.475844 -4.363911 0.925031 0
M  V30 40 H -2.110556 -2.200816 0.723894 0
M  V30 41 H -3.197841 1.462973 -1.538689 0
M  V30 42 H -0.125288 2.200308 0.300653 0
M  V30 43 H 1.416881 1.951840 -1.337649 0
M  V30 44 H 1.949438 3.365568 -2.358881 0
M  V30 45 H 2.913207 1.031045 -2.897554 0
M  V30 46 H 4.173174 2.357862 -2.559212 0
M  V30 47 H 4.069239 -0.923847 -1.900285 0
M  V30 48 H 5.078092 -2.073782 0.068019 0
M  V30 49 H 5.733496 -0.818653 2.088965 0
M  V30 50 H 5.233969 1.656188 2.011991 0
M  V30 51 H 4.199172 3.558780 1.079143 0
M  V30 52 H 4.697110 3.646219 -0.636981 0
M  V30 53 H 0.489790 5.771543 -1.635791 0
M  V30 54 H -1.627971 5.409916 -2.957591 0
M  V30 55 H -6.373184 -2.018694 -1.790220 0
M  V30 END ATOM
M  V30 BEGIN BOND
M  V30 1 1 1 2
M  V30 2 1 2 3
M  V30 3 2 3 4
M  V30 4 1 4 5
M  V30 5 2 5 6
M  V30 6 1 6 7
M  V30 7 2 7 8
M  V30 8 1 8 9
M  V30 9 2 9 10
M  V30 10 1 9 11
M  V30 11 1 11 12
M  V30 12 2 12 13
M  V30 13 1 13 14
M  V30 14 1 14 15
M  V30 15 2 15 16
M  V30 16 1 15 17
M  V30 17 1 17 18
M  V30 18 1 18 19
M  V30 19 1 19 20
M  V30 20 2 20 21
M  V30 21 1 21 22
M  V30 22 2 22 23
M  V30 23 1 23 24
M  V30 24 2 24 25
M  V30 25 1 25 26
M  V30 26 2 14 27
M  V30 27 1 27 28
M  V30 28 2 28 29
M  V30 29 1 29 30
M  V30 30 1 8 31
M  V30 31 2 31 32
M  V30 32 1 31 33
M  V30 33 1 33 34
M  V30 34 2 34 35
M  V30 35 1 35 3
M  V30 36 1 34 6
M  V30 37 1 29 12
M  V30 38 1 26 17
M  V30 39 1 25 20
M  V30 40 1 1 36
M  V30 41 1 1 37
M  V30 42 1 1 38
M  V30 43 1 5 39
M  V30 44 1 7 40
M  V30 45 1 11 41
M  V30 46 1 13 42
M  V30 47 1 18 43
M  V30 48 1 18 44
M  V30 49 1 19 45
M  V30 50 1 19 46
M  V30 51 1 21 47
M  V30 52 1 22 48
M  V30 53 1 23 49
M  V30 54 1 24 50
M  V30 55 1 26 51
M  V30 56 1 26 52
M  V30 57 1 27 53
M  V30 58 1 28 54
M  V30 59 1 33 55
M  V30 END BOND
M  V30 END CTAB
M  END
>  <Dataset>  (855) 
ChEMBL_Kinases

>  <Ligand_Instance>  (855) 
nan

>  <PDB_ID>  (855) 
nan

>  <Standardized_SMILES>  (855) 
COc1ncc2cc(C(=O)Nc3cc(C(=O)N4CCc5ccccc5C4)ccc3Cl)c(=O)[nH]c2n1

>  <Name>  (855) 
nan

>  <Pocket>  (855) 
nan

>  <ATP_Site>  (855) 
nan

>  <Peripheral>  (855) 
nan

>  <Num_H_Atoms_ProtBoundConf>  (855) 
nan

>  <Num_Resolved_Atoms>  (855) 
nan

>  <Num_Not_Resolved_Atoms>  (855) 
nan

$$$$
CHEMBL309682
     RDKit          3D

  0  0  0  0  0  0  0  0  0  0999 V3000
M  V30 BEGIN CTAB
M  V30 COUNTS 48 50 0 0 0
M  V30 BEGIN ATOM
M  V30 1 C 1.159404 -6.379519 1.430524 0
M  V30 2 O 0.368008 -5.403607 0.806801 0
M  V30 3 C 0.703050 -4.218855 0.231290 0
M  V30 4 C 1.886505 -3.573945 0.013981 0
M  V30 5 C 1.938301 -2.354380 -0.585967 0
M  V30 6 N 3.066976 -1.696199 -0.801381 0
M  V30 7 C 3.153472 -0.484309 -1.372290 0
M  V30 8 N 2.021161 0.135971 -1.765263 0
M  V30 9 C 0.780400 -0.413684 -1.613799 0
M  V30 10 N -0.496401 0.275706 -1.872759 0
M  V30 11 C -0.410365 0.947234 -0.592763 0
M  V30 12 C 0.417191 2.065992 -0.289893 0
M  V30 13 C 0.521446 2.538805 1.025355 0
M  V30 14 O 1.310173 3.560995 1.054209 0
M  V30 15 C 2.091820 4.572743 1.077752 0
M  V30 16 C -0.207889 1.882652 2.009713 0
M  V30 17 O 0.092143 2.546946 3.216593 0
M  V30 18 C -0.704988 3.588766 3.668343 0
M  V30 19 C -1.075594 0.760172 1.808044 0
M  V30 20 O -1.540502 0.501934 3.061077 0
M  V30 21 C -2.486200 -0.543818 3.225081 0
M  V30 22 C -1.056731 0.441204 0.503475 0
M  V30 23 C 0.790055 -1.685613 -1.013723 0
M  V30 24 C -0.397396 -2.336672 -0.808314 0
M  V30 25 C -0.469392 -3.571353 -0.204452 0
M  V30 26 O -1.759237 -4.055728 -0.085725 0
M  V30 27 C -2.894389 -3.396961 -0.525186 0
M  V30 28 H 1.517657 -7.109658 0.690269 0
M  V30 29 H 0.487928 -6.960848 2.153433 0
M  V30 30 H 1.973065 -5.926480 2.072090 0
M  V30 31 H 2.735944 -4.094379 0.355094 0
M  V30 32 H 4.060708 0.086666 -1.542945 0
M  V30 33 H -1.156373 0.256548 -2.650317 0
M  V30 34 H 0.886436 2.408962 -1.209634 0
M  V30 35 H 2.186424 5.163607 0.090847 0
M  V30 36 H 1.855662 5.391476 1.862686 0
M  V30 37 H 3.188755 4.358867 1.287172 0
M  V30 38 H -1.738241 3.308269 3.947367 0
M  V30 39 H -0.775887 4.444070 2.939958 0
M  V30 40 H -0.209311 4.029506 4.572814 0
M  V30 41 H -2.427152 -0.905312 4.272728 0
M  V30 42 H -3.528976 -0.142546 3.081383 0
M  V30 43 H -2.295247 -1.399512 2.586312 0
M  V30 44 H -1.782876 -0.365730 0.517957 0
M  V30 45 H -1.294864 -1.839103 -1.163426 0
M  V30 46 H -3.781176 -4.031793 -0.328151 0
M  V30 47 H -3.098893 -2.408947 -0.031582 0
M  V30 48 H -2.860582 -3.135350 -1.610050 0
M  V30 END ATOM
M  V30 BEGIN BOND
M  V30 1 1 1 2
M  V30 2 1 2 3
M  V30 3 2 3 4
M  V30 4 1 4 5
M  V30 5 2 5 6
M  V30 6 1 6 7
M  V30 7 2 7 8
M  V30 8 1 8 9
M  V30 9 1 9 10
M  V30 10 1 10 11
M  V30 11 2 11 12
M  V30 12 1 12 13
M  V30 13 1 13 14
M  V30 14 1 14 15
M  V30 15 2 13 16
M  V30 16 1 16 17
M  V30 17 1 17 18
M  V30 18 1 16 19
M  V30 19 1 19 20
M  V30 20 1 20 21
M  V30 21 2 19 22
M  V30 22 2 9 23
M  V30 23 1 23 24
M  V30 24 2 24 25
M  V30 25 1 25 26
M  V30 26 1 26 27
M  V30 27 1 25 3
M  V30 28 1 23 5
M  V30 29 1 22 11
M  V30 30 1 1 28
M  V30 31 1 1 29
M  V30 32 1 1 30
M  V30 33 1 4 31
M  V30 34 1 7 32
M  V30 35 1 10 33
M  V30 36 1 12 34
M  V30 37 1 15 35
M  V30 38 1 15 36
M  V30 39 1 15 37
M  V30 40 1 18 38
M  V30 41 1 18 39
M  V30 42 1 18 40
M  V30 43 1 21 41
M  V30 44 1 21 42
M  V30 45 1 21 43
M  V30 46 1 22 44
M  V30 47 1 24 45
M  V30 48 1 27 46
M  V30 49 1 27 47
M  V30 50 1 27 48
M  V30 END BOND
M  V30 END CTAB
M  END
>  <Dataset>  (856) 
ChEMBL_Kinases

>  <Ligand_Instance>  (856) 
nan

>  <PDB_ID>  (856) 
nan

>  <Standardized_SMILES>  (856) 
COc1cc2ncnc(Nc3cc(OC)c(OC)c(OC)c3)c2cc1OC

>  <Name>  (856) 
nan

>  <Pocket>  (856) 
nan

>  <ATP_Site>  (856) 
nan

>  <Peripheral>  (856) 
nan

>  <Num_H_Atoms_ProtBoundConf>  (856) 
nan

>  <Num_Resolved_Atoms>  (856) 
nan

>  <Num_Not_Resolved_Atoms>  (856) 
nan

$$$$
CHEMBL3098770
     RDKit          3D

  0  0  0  0  0  0  0  0  0  0999 V3000
M  V30 BEGIN CTAB
M  V30 COUNTS 25 26 0 0 0
M  V30 BEGIN ATOM
M  V30 1 C -0.292225 -4.148977 2.181294 0
M  V30 2 C 0.565812 -2.965214 2.010486 0
M  V30 3 O 0.129685 -2.376264 0.962455 0
M  V30 4 O 1.419867 -1.879060 1.928283 0
M  V30 5 C 1.335061 -0.923289 0.924656 0
M  V30 6 C 2.013845 -1.129460 -0.260176 0
M  V30 7 C 1.892695 -0.135842 -1.233834 0
M  V30 8 C 1.135335 1.028476 -1.069013 0
M  V30 9 O 1.093352 1.942359 -2.112043 0
M  V30 10 C 0.484624 1.166712 0.140601 0
M  V30 11 C 0.567623 0.218548 1.138977 0
M  V30 12 C -0.153857 0.444959 2.392429 0
M  V30 13 O -0.103342 -0.385901 3.315316 0
M  V30 14 C -0.932337 1.672435 2.526196 0
M  V30 15 C -1.004215 2.578042 1.556605 0
M  V30 16 C -0.298181 2.389365 0.289500 0
M  V30 17 O -0.414556 3.290911 -0.580395 0
M  V30 18 H -0.154046 -4.815779 1.317981 0
M  V30 19 H -0.025953 -4.728221 3.102128 0
M  V30 20 H -1.372336 -3.870237 2.259287 0
M  V30 21 H 2.612330 -1.982470 -0.473454 0
M  V30 22 H 2.408791 -0.269220 -2.163677 0
M  V30 23 H 0.246896 2.232821 -2.587654 0
M  V30 24 H -1.454044 1.801538 3.475366 0
M  V30 25 H -1.615379 3.439134 1.788649 0
M  V30 END ATOM
M  V30 BEGIN BOND
M  V30 1 1 1 2
M  V30 2 2 2 3
M  V30 3 1 2 4
M  V30 4 1 4 5
M  V30 5 2 5 6
M  V30 6 1 6 7
M  V30 7 2 7 8
M  V30 8 1 8 9
M  V30 9 1 8 10
M  V30 10 2 10 11
M  V30 11 1 11 12
M  V30 12 2 12 13
M  V30 13 1 12 14
M  V30 14 2 14 15
M  V30 15 1 15 16
M  V30 16 2 16 17
M  V30 17 1 11 5
M  V30 18 1 16 10
M  V30 19 1 1 18
M  V30 20 1 1 19
M  V30 21 1 1 20
M  V30 22 1 6 21
M  V30 23 1 7 22
M  V30 24 1 9 23
M  V30 25 1 14 24
M  V30 26 1 15 25
M  V30 END BOND
M  V30 END CTAB
M  END
>  <Dataset>  (857) 
ChEMBL_Kinases

>  <Ligand_Instance>  (857) 
nan

>  <PDB_ID>  (857) 
nan

>  <Standardized_SMILES>  (857) 
CC(=O)Oc1ccc(O)c2c1C(=O)C=CC2=O

>  <Name>  (857) 
nan

>  <Pocket>  (857) 
nan

>  <ATP_Site>  (857) 
nan

>  <Peripheral>  (857) 
nan

>  <Num_H_Atoms_ProtBoundConf>  (857) 
nan

>  <Num_Resolved_Atoms>  (857) 
nan

>  <Num_Not_Resolved_Atoms>  (857) 
nan

$$$$
CHEMBL3099613
     RDKit          3D

  0  0  0  0  0  0  0  0  0  0999 V3000
M  V30 BEGIN CTAB
M  V30 COUNTS 25 25 0 0 0
M  V30 BEGIN ATOM
M  V30 1 C 1.036536 -0.591542 4.575107 0
M  V30 2 O 0.440839 -1.836817 4.383102 0
M  V30 3 C 0.987822 -2.515347 3.302615 0
M  V30 4 C 0.776396 -1.692120 2.107944 0
M  V30 5 C 1.567104 -1.129724 1.224303 0
M  V30 6 C 1.380942 -0.321886 0.050404 0
M  V30 7 O 2.553822 -0.068542 -0.406405 0
M  V30 8 C 0.317983 0.259655 -0.727745 0
M  V30 9 C 0.674434 0.987101 -1.822086 0
M  V30 10 C -0.270587 1.590254 -2.640554 0
M  V30 11 C -1.595179 1.439337 -2.323905 0
M  V30 12 C -2.036085 0.721117 -1.237064 0
M  V30 13 C -1.034399 0.163944 -0.490216 0
M  V30 14 H 2.128550 -0.734729 4.765036 0
M  V30 15 H 0.953740 0.053782 3.677992 0
M  V30 16 H 0.531324 -0.102566 5.420079 0
M  V30 17 H 2.071124 -2.649014 3.499981 0
M  V30 18 H 0.448609 -3.464524 3.183609 0
M  V30 19 H -0.279446 -1.538808 1.959598 0
M  V30 20 H 2.543124 -1.428843 1.593478 0
M  V30 21 H 1.685044 1.159876 -2.148333 0
M  V30 22 H -0.005214 2.163815 -3.502274 0
M  V30 23 H -2.325900 1.913995 -2.968934 0
M  V30 24 H -3.084166 0.610072 -0.998835 0
M  V30 25 H -1.380971 -0.393121 0.353064 0
M  V30 END ATOM
M  V30 BEGIN BOND
M  V30 1 1 1 2
M  V30 2 1 2 3
M  V30 3 1 3 4
M  V30 4 2 4 5
M  V30 5 1 5 6
M  V30 6 2 6 7
M  V30 7 1 6 8
M  V30 8 2 8 9
M  V30 9 1 9 10
M  V30 10 2 10 11
M  V30 11 1 11 12
M  V30 12 2 12 13
M  V30 13 1 13 8
M  V30 14 1 1 14
M  V30 15 1 1 15
M  V30 16 1 1 16
M  V30 17 1 3 17
M  V30 18 1 3 18
M  V30 19 1 4 19
M  V30 20 1 5 20
M  V30 21 1 9 21
M  V30 22 1 10 22
M  V30 23 1 11 23
M  V30 24 1 12 24
M  V30 25 1 13 25
M  V30 END BOND
M  V30 END CTAB
M  END
>  <Dataset>  (858) 
ChEMBL_Kinases

>  <Ligand_Instance>  (858) 
nan

>  <PDB_ID>  (858) 
nan

>  <Standardized_SMILES>  (858) 
COC/C=C/C(=O)c1ccccc1

>  <Name>  (858) 
nan

>  <Pocket>  (858) 
nan

>  <ATP_Site>  (858) 
nan

>  <Peripheral>  (858) 
nan

>  <Num_H_Atoms_ProtBoundConf>  (858) 
nan

>  <Num_Resolved_Atoms>  (858) 
nan

>  <Num_Not_Resolved_Atoms>  (858) 
nan

$$$$
CHEMBL3099614
     RDKit          3D

  0  0  0  0  0  0  0  0  0  0999 V3000
M  V30 BEGIN CTAB
M  V30 COUNTS 30 30 0 0 0
M  V30 BEGIN ATOM
M  V30 1 C -2.764083 -3.987363 4.459865 0
M  V30 2 O -2.092918 -3.185376 3.484403 0
M  V30 3 C -0.717639 -2.988436 3.497194 0
M  V30 4 O -0.035272 -3.533635 4.398062 0
M  V30 5 C -0.235226 -2.114793 2.382249 0
M  V30 6 C 0.298912 -3.005608 1.318397 0
M  V30 7 C 0.826716 -2.341577 0.125948 0
M  V30 8 C 0.784359 -1.018812 0.099238 0
M  V30 9 C 1.307389 -0.344574 -1.083295 0
M  V30 10 O 1.775945 -1.040524 -2.028589 0
M  V30 11 C 1.319746 1.103847 -1.238187 0
M  V30 12 C 1.834891 1.623999 -2.405082 0
M  V30 13 C 1.849487 3.000906 -2.556266 0
M  V30 14 C 1.383234 3.897928 -1.618434 0
M  V30 15 C 0.871206 3.352720 -0.455758 0
M  V30 16 C 0.845207 1.966336 -0.279618 0
M  V30 17 H -2.526731 -5.039798 4.155736 0
M  V30 18 H -2.331498 -3.854558 5.472032 0
M  V30 19 H -3.842376 -3.833098 4.413496 0
M  V30 20 H 0.638123 -1.529501 2.795534 0
M  V30 21 H -0.978594 -1.376465 2.079486 0
M  V30 22 H 1.105996 -3.614574 1.771334 0
M  V30 23 H -0.527714 -3.700910 1.024961 0
M  V30 24 H 1.213716 -2.987242 -0.648969 0
M  V30 25 H 0.388006 -0.425705 0.897590 0
M  V30 26 H 2.224986 0.984836 -3.200369 0
M  V30 27 H 2.258835 3.416181 -3.485908 0
M  V30 28 H 1.401822 4.957364 -1.752764 0
M  V30 29 H 0.485695 4.006025 0.328543 0
M  V30 30 H 0.440657 1.595264 0.632078 0
M  V30 END ATOM
M  V30 BEGIN BOND
M  V30 1 1 1 2
M  V30 2 1 2 3
M  V30 3 2 3 4
M  V30 4 1 3 5
M  V30 5 1 5 6
M  V30 6 1 6 7
M  V30 7 2 7 8
M  V30 8 1 8 9
M  V30 9 2 9 10
M  V30 10 1 9 11
M  V30 11 2 11 12
M  V30 12 1 12 13
M  V30 13 2 13 14
M  V30 14 1 14 15
M  V30 15 2 15 16
M  V30 16 1 16 11
M  V30 17 1 1 17
M  V30 18 1 1 18
M  V30 19 1 1 19
M  V30 20 1 5 20
M  V30 21 1 5 21
M  V30 22 1 6 22
M  V30 23 1 6 23
M  V30 24 1 7 24
M  V30 25 1 8 25
M  V30 26 1 12 26
M  V30 27 1 13 27
M  V30 28 1 14 28
M  V30 29 1 15 29
M  V30 30 1 16 30
M  V30 END BOND
M  V30 END CTAB
M  END
>  <Dataset>  (859) 
ChEMBL_Kinases

>  <Ligand_Instance>  (859) 
nan

>  <PDB_ID>  (859) 
nan

>  <Standardized_SMILES>  (859) 
COC(=O)CC/C=C/C(=O)c1ccccc1

>  <Name>  (859) 
nan

>  <Pocket>  (859) 
nan

>  <ATP_Site>  (859) 
nan

>  <Peripheral>  (859) 
nan

>  <Num_H_Atoms_ProtBoundConf>  (859) 
nan

>  <Num_Resolved_Atoms>  (859) 
nan

>  <Num_Not_Resolved_Atoms>  (859) 
nan

$$$$
CHEMBL3099615
     RDKit          3D

  0  0  0  0  0  0  0  0  0  0999 V3000
M  V30 BEGIN CTAB
M  V30 COUNTS 18 18 0 0 0
M  V30 BEGIN ATOM
M  V30 1 C -0.604889 -2.162960 2.475104 0
M  V30 2 C -0.014652 -2.174863 1.293921 0
M  V30 3 C 0.756685 -1.475447 0.279326 0
M  V30 4 O 1.036848 -2.127687 -0.759846 0
M  V30 5 C 1.183712 -0.094168 0.453325 0
M  V30 6 C 0.941367 0.713956 1.532680 0
M  V30 7 C 1.367459 2.002708 1.640134 0
M  V30 8 C 2.092962 2.550765 0.604779 0
M  V30 9 C 2.371460 1.794412 -0.508075 0
M  V30 10 C 1.920252 0.493851 -0.574379 0
M  V30 11 H -0.801447 -1.534479 3.330471 0
M  V30 12 H -0.796015 -1.535049 3.319257 0
M  V30 13 H -0.345392 -3.179298 1.207501 0
M  V30 14 H 0.382618 0.297833 2.334449 0
M  V30 15 H 1.150377 2.599034 2.512611 0
M  V30 16 H 2.475713 3.579043 0.605487 0
M  V30 17 H 2.939696 2.187661 -1.345650 0
M  V30 18 H 2.131221 -0.111919 -1.441639 0
M  V30 END ATOM
M  V30 BEGIN BOND
M  V30 1 2 1 2
M  V30 2 1 2 3
M  V30 3 2 3 4
M  V30 4 1 3 5
M  V30 5 2 5 6
M  V30 6 1 6 7
M  V30 7 2 7 8
M  V30 8 1 8 9
M  V30 9 2 9 10
M  V30 10 1 10 5
M  V30 11 1 1 11
M  V30 12 1 1 12
M  V30 13 1 2 13
M  V30 14 1 6 14
M  V30 15 1 7 15
M  V30 16 1 8 16
M  V30 17 1 9 17
M  V30 18 1 10 18
M  V30 END BOND
M  V30 END CTAB
M  END
>  <Dataset>  (860) 
ChEMBL_Kinases

>  <Ligand_Instance>  (860) 
nan

>  <PDB_ID>  (860) 
nan

>  <Standardized_SMILES>  (860) 
C=CC(=O)c1ccccc1

>  <Name>  (860) 
nan

>  <Pocket>  (860) 
nan

>  <ATP_Site>  (860) 
nan

>  <Peripheral>  (860) 
nan

>  <Num_H_Atoms_ProtBoundConf>  (860) 
nan

>  <Num_Resolved_Atoms>  (860) 
nan

>  <Num_Not_Resolved_Atoms>  (860) 
nan

$$$$
CHEMBL3099743
     RDKit          3D

  0  0  0  0  0  0  0  0  0  0999 V3000
M  V30 BEGIN CTAB
M  V30 COUNTS 59 62 0 0 0
M  V30 BEGIN ATOM
M  V30 1 C 3.598673 5.098626 -1.393550 0
M  V30 2 O 3.776773 4.001018 -0.521888 0
M  V30 3 C 2.885494 2.953391 -0.375309 0
M  V30 4 O 1.968439 3.288371 -1.199023 0
M  V30 5 C 3.062243 1.814538 0.525572 0 CFG=2
M  V30 6 C 4.367038 1.077208 0.372755 0
M  V30 7 C 5.551303 1.893479 0.605544 0
M  V30 8 C 6.224341 2.578110 -0.386137 0
M  V30 9 C 7.332510 3.354565 -0.193981 0
M  V30 10 C 7.829985 3.470047 1.103576 0
M  V30 11 F 8.930710 4.228215 1.364289 0
M  V30 12 C 7.196069 2.803242 2.149862 0
M  V30 13 C 6.076423 2.030597 1.894647 0
M  V30 14 N 1.943641 0.890273 0.477371 0
M  V30 15 C 1.077432 0.646327 1.578684 0
M  V30 16 O 1.244484 1.238917 2.682290 0
M  V30 17 C -0.032899 -0.310607 1.436052 0
M  V30 18 C -0.882495 -0.537277 2.506919 0
M  V30 19 C -1.890146 -1.447910 2.267261 0
M  V30 20 C -2.754141 -1.654543 3.407586 0
M  V30 21 O -2.686300 -1.122245 4.531417 0
M  V30 22 O -3.858857 -2.343368 3.866652 0
M  V30 23 C -2.068068 -2.101554 1.065809 0
M  V30 24 C -3.099582 -3.001498 0.897998 0
M  V30 25 C -3.271222 -3.652977 -0.308202 0
M  V30 26 C -4.348113 -4.613602 -0.533135 0
M  V30 27 C -4.227628 -5.701471 -1.396797 0
M  V30 28 C -5.245029 -6.608399 -1.609548 0
M  V30 29 C -6.451817 -6.451574 -0.945349 0
M  V30 30 C -6.620787 -5.390767 -0.079829 0
M  V30 31 C -7.848376 -5.074627 0.711990 0
M  V30 32 F -8.507329 -3.950666 0.206950 0
M  V30 33 F -8.723607 -6.139951 0.755942 0
M  V30 34 F -7.453550 -4.797018 2.023526 0
M  V30 35 C -5.582365 -4.501347 0.110407 0
M  V30 36 C -2.397340 -3.400052 -1.362675 0
M  V30 37 C -1.364877 -2.490883 -1.175116 0
M  V30 38 C -1.193790 -1.840073 0.030568 0
M  V30 39 N -0.204198 -0.953107 0.248263 0
M  V30 40 H 3.044334 4.789368 -2.299298 0
M  V30 41 H 4.627328 5.359583 -1.778841 0
M  V30 42 H 3.166020 5.979100 -0.875133 0
M  V30 43 H 3.063859 2.236017 1.573016 0
M  V30 44 H 4.302607 0.188132 1.057195 0
M  V30 45 H 4.342173 0.631783 -0.661323 0
M  V30 46 H 5.888059 2.522157 -1.412378 0
M  V30 47 H 7.848711 3.885422 -0.983038 0
M  V30 48 H 7.558499 2.869795 3.182428 0
M  V30 49 H 5.594339 1.521098 2.702569 0
M  V30 50 H 1.745666 0.357607 -0.422428 0
M  V30 51 H -0.720356 -0.013450 3.433827 0
M  V30 52 H -3.874166 -3.284439 4.205809 0
M  V30 53 H -3.777788 -3.199534 1.712486 0
M  V30 54 H -3.269213 -5.814169 -1.915382 0
M  V30 55 H -5.148364 -7.450783 -2.280097 0
M  V30 56 H -7.315738 -7.104791 -1.038854 0
M  V30 57 H -5.647127 -3.644856 0.776513 0
M  V30 58 H -2.467928 -3.874831 -2.344004 0
M  V30 59 H -0.645086 -2.249554 -1.964908 0
M  V30 END ATOM
M  V30 BEGIN BOND
M  V30 1 1 1 2
M  V30 2 1 2 3
M  V30 3 2 3 4
M  V30 4 1 3 5
M  V30 5 1 5 6
M  V30 6 1 6 7
M  V30 7 2 7 8
M  V30 8 1 8 9
M  V30 9 2 9 10
M  V30 10 1 10 11
M  V30 11 1 10 12
M  V30 12 2 12 13
M  V30 13 1 5 14
M  V30 14 1 14 15
M  V30 15 2 15 16
M  V30 16 1 15 17
M  V30 17 2 17 18
M  V30 18 1 18 19
M  V30 19 1 19 20
M  V30 20 2 20 21
M  V30 21 1 20 22
M  V30 22 2 19 23
M  V30 23 1 23 24
M  V30 24 2 24 25
M  V30 25 1 25 26
M  V30 26 2 26 27
M  V30 27 1 27 28
M  V30 28 2 28 29
M  V30 29 1 29 30
M  V30 30 1 30 31
M  V30 31 1 31 32
M  V30 32 1 31 33
M  V30 33 1 31 34
M  V30 34 2 30 35
M  V30 35 1 25 36
M  V30 36 2 36 37
M  V30 37 1 37 38
M  V30 38 2 38 39
M  V30 39 1 13 7
M  V30 40 1 39 17
M  V30 41 1 38 23
M  V30 42 1 35 26
M  V30 43 1 1 40
M  V30 44 1 1 41
M  V30 45 1 1 42
M  V30 46 1 5 43 CFG=1
M  V30 47 1 6 44
M  V30 48 1 6 45
M  V30 49 1 8 46
M  V30 50 1 9 47
M  V30 51 1 12 48
M  V30 52 1 13 49
M  V30 53 1 14 50
M  V30 54 1 18 51
M  V30 55 1 22 52
M  V30 56 1 24 53
M  V30 57 1 27 54
M  V30 58 1 28 55
M  V30 59 1 29 56
M  V30 60 1 35 57
M  V30 61 1 36 58
M  V30 62 1 37 59
M  V30 END BOND
M  V30 END CTAB
M  END
>  <Dataset>  (861) 
ChEMBL_Kinases

>  <Ligand_Instance>  (861) 
nan

>  <PDB_ID>  (861) 
nan

>  <Standardized_SMILES>  (861) 
COC(=O)[C@H](Cc1ccc(F)cc1)NC(=O)c1cc(C(=O)O)c2cc(-c3cccc(C(F)(F)F)c3)ccc2n1

>  <Name>  (861) 
nan

>  <Pocket>  (861) 
nan

>  <ATP_Site>  (861) 
nan

>  <Peripheral>  (861) 
nan

>  <Num_H_Atoms_ProtBoundConf>  (861) 
nan

>  <Num_Resolved_Atoms>  (861) 
nan

>  <Num_Not_Resolved_Atoms>  (861) 
nan

$$$$
CHEMBL3099748
     RDKit          3D

  0  0  0  0  0  0  0  0  0  0999 V3000
M  V30 BEGIN CTAB
M  V30 COUNTS 57 60 0 0 0
M  V30 BEGIN ATOM
M  V30 1 C 5.060130 1.565095 1.053984 0
M  V30 2 C 3.814767 2.137065 1.668673 0 CFG=2
M  V30 3 C 3.805611 2.088659 3.153646 0
M  V30 4 C 3.907212 0.737454 3.722166 0
M  V30 5 C 2.719212 0.063336 3.952580 0
M  V30 6 C 2.699915 -1.209483 4.484804 0
M  V30 7 C 3.866127 -1.877672 4.815619 0
M  V30 8 O 3.848102 -3.145402 5.345885 0
M  V30 9 C 5.027631 -1.169569 4.569797 0
M  V30 10 C 5.089881 0.108684 4.037107 0
M  V30 11 N 2.661713 1.556008 1.049018 0
M  V30 12 C 1.724640 2.238423 0.230951 0
M  V30 13 O 1.854637 3.470425 -0.017391 0
M  V30 14 C 0.581609 1.490231 -0.335936 0
M  V30 15 C -0.327305 2.175360 -1.141842 0
M  V30 16 C -1.333432 1.366527 -1.599967 0
M  V30 17 C -2.290103 2.069335 -2.445665 0
M  V30 18 O -2.270320 3.300357 -2.772867 0
M  V30 19 O -3.426952 2.093696 -3.226683 0
M  V30 20 C -1.519828 0.023922 -1.354413 0
M  V30 21 C -2.583960 -0.678580 -1.879649 0
M  V30 22 C -2.720918 -2.026275 -1.597408 0
M  V30 23 C -3.818560 -2.849992 -2.111396 0
M  V30 24 C -4.443289 -2.665350 -3.326473 0
M  V30 25 C -5.467495 -3.448287 -3.781036 0
M  V30 26 C -5.888587 -4.479010 -2.963989 0
M  V30 27 C -5.299293 -4.702198 -1.748417 0
M  V30 28 C -5.703105 -5.798476 -0.810289 0
M  V30 29 F -5.961146 -5.251433 0.440435 0
M  V30 30 F -4.641497 -6.695452 -0.749061 0
M  V30 31 F -6.816789 -6.395487 -1.322548 0
M  V30 32 C -4.266148 -3.901786 -1.305052 0
M  V30 33 C -1.769355 -2.645947 -0.780665 0
M  V30 34 C -0.703518 -1.912952 -0.262802 0
M  V30 35 C -0.571271 -0.569750 -0.546917 0
M  V30 36 N 0.437909 0.180030 -0.070545 0
M  V30 37 H 4.956851 0.486017 0.846501 0
M  V30 38 H 5.249829 2.030488 0.047190 0
M  V30 39 H 5.962109 1.785349 1.675061 0
M  V30 40 H 3.804127 3.219729 1.375321 0
M  V30 41 H 2.926420 2.604963 3.538252 0
M  V30 42 H 4.706232 2.648872 3.514037 0
M  V30 43 H 1.764085 0.535557 3.713168 0
M  V30 44 H 1.722744 -1.684387 4.640959 0
M  V30 45 H 3.240154 -3.440876 6.099015 0
M  V30 46 H 5.950599 -1.708403 4.835629 0
M  V30 47 H 6.006460 0.613370 3.865602 0
M  V30 48 H 2.592667 0.525423 1.282933 0
M  V30 49 H -0.216814 3.208364 -1.352632 0
M  V30 50 H -4.356046 1.989467 -2.869844 0
M  V30 51 H -3.314832 -0.197164 -2.508297 0
M  V30 52 H -4.068277 -1.854248 -3.903239 0
M  V30 53 H -5.914602 -3.252839 -4.740962 0
M  V30 54 H -6.694022 -5.137547 -3.259949 0
M  V30 55 H -3.789389 -4.061186 -0.351506 0
M  V30 56 H -1.790146 -3.678528 -0.507994 0
M  V30 57 H 0.047639 -2.387678 0.378189 0
M  V30 END ATOM
M  V30 BEGIN BOND
M  V30 1 1 1 2
M  V30 2 1 2 3
M  V30 3 1 3 4
M  V30 4 2 4 5
M  V30 5 1 5 6
M  V30 6 2 6 7
M  V30 7 1 7 8
M  V30 8 1 7 9
M  V30 9 2 9 10
M  V30 10 1 2 11
M  V30 11 1 11 12
M  V30 12 2 12 13
M  V30 13 1 12 14
M  V30 14 2 14 15
M  V30 15 1 15 16
M  V30 16 1 16 17
M  V30 17 2 17 18
M  V30 18 1 17 19
M  V30 19 2 16 20
M  V30 20 1 20 21
M  V30 21 2 21 22
M  V30 22 1 22 23
M  V30 23 2 23 24
M  V30 24 1 24 25
M  V30 25 2 25 26
M  V30 26 1 26 27
M  V30 27 1 27 28
M  V30 28 1 28 29
M  V30 29 1 28 30
M  V30 30 1 28 31
M  V30 31 2 27 32
M  V30 32 1 22 33
M  V30 33 2 33 34
M  V30 34 1 34 35
M  V30 35 2 35 36
M  V30 36 1 10 4
M  V30 37 1 36 14
M  V30 38 1 35 20
M  V30 39 1 32 23
M  V30 40 1 1 37
M  V30 41 1 1 38
M  V30 42 1 1 39
M  V30 43 1 2 40 CFG=1
M  V30 44 1 3 41
M  V30 45 1 3 42
M  V30 46 1 5 43
M  V30 47 1 6 44
M  V30 48 1 8 45
M  V30 49 1 9 46
M  V30 50 1 10 47
M  V30 51 1 11 48
M  V30 52 1 15 49
M  V30 53 1 19 50
M  V30 54 1 21 51
M  V30 55 1 24 52
M  V30 56 1 25 53
M  V30 57 1 26 54
M  V30 58 1 32 55
M  V30 59 1 33 56
M  V30 60 1 34 57
M  V30 END BOND
M  V30 END CTAB
M  END
>  <Dataset>  (862) 
ChEMBL_Kinases

>  <Ligand_Instance>  (862) 
nan

>  <PDB_ID>  (862) 
nan

>  <Standardized_SMILES>  (862) 
C[C@H](Cc1ccc(O)cc1)NC(=O)c1cc(C(=O)O)c2cc(-c3cccc(C(F)(F)F)c3)ccc2n1

>  <Name>  (862) 
nan

>  <Pocket>  (862) 
nan

>  <ATP_Site>  (862) 
nan

>  <Peripheral>  (862) 
nan

>  <Num_H_Atoms_ProtBoundConf>  (862) 
nan

>  <Num_Resolved_Atoms>  (862) 
nan

>  <Num_Not_Resolved_Atoms>  (862) 
nan

$$$$
CHEMBL3099758
     RDKit          3D

  0  0  0  0  0  0  0  0  0  0999 V3000
M  V30 BEGIN CTAB
M  V30 COUNTS 57 60 0 0 0
M  V30 BEGIN ATOM
M  V30 1 C 1.693709 2.427011 5.318866 0
M  V30 2 O 1.973046 1.668879 4.162150 0
M  V30 3 C 3.233543 1.353449 3.738026 0
M  V30 4 O 4.245583 1.747183 4.397440 0
M  V30 5 C 3.452045 0.538863 2.489557 0 CFG=2
M  V30 6 C 4.370391 1.268822 1.554332 0
M  V30 7 C 4.670339 0.588884 0.295403 0
M  V30 8 C 3.852256 0.805146 -0.814979 0
M  V30 9 C 4.134267 0.166056 -2.000249 0
M  V30 10 C 5.201019 -0.670359 -2.092812 0
M  V30 11 O 5.509192 -1.334292 -3.292514 0
M  V30 12 C 6.046207 -0.928188 -1.041753 0
M  V30 13 C 5.751144 -0.279698 0.143000 0
M  V30 14 N 2.181126 0.217817 1.935626 0
M  V30 15 C 1.669944 -1.107418 1.827614 0
M  V30 16 O 2.418104 -2.035241 2.261093 0
M  V30 17 C 0.355882 -1.359609 1.246839 0
M  V30 18 C -0.060266 -2.670130 1.182257 0
M  V30 19 C -1.284054 -3.008987 0.651325 0
M  V30 20 C -1.688511 -4.393615 0.597113 0
M  V30 21 O -2.661666 -5.032680 0.206547 0
M  V30 22 O -0.848475 -5.380253 1.083019 0
M  V30 23 C -2.035452 -1.948039 0.202171 0
M  V30 24 C -3.276778 -2.182644 -0.346792 0
M  V30 25 C -4.090728 -1.174159 -0.819600 0
M  V30 26 C -5.421067 -1.453064 -1.404574 0
M  V30 27 C -6.182574 -2.529403 -0.947084 0
M  V30 28 C -7.428556 -2.813005 -1.476143 0
M  V30 29 Cl -8.372666 -4.168976 -0.890899 0
M  V30 30 C -7.897613 -1.990289 -2.479180 0
M  V30 31 C -7.192067 -0.912351 -2.973240 0
M  V30 32 Cl -7.857986 0.088706 -4.255309 0
M  V30 33 C -5.953882 -0.671176 -2.412161 0
M  V30 34 C -3.645970 0.129185 -0.741292 0
M  V30 35 C -2.412572 0.429278 -0.202245 0
M  V30 36 C -1.651984 -0.626299 0.250544 0
M  V30 37 N -0.445473 -0.354303 0.780087 0
M  V30 38 H 1.911465 1.763495 6.184151 0
M  V30 39 H 2.325971 3.344435 5.406023 0
M  V30 40 H 0.610238 2.664715 5.349422 0
M  V30 41 H 3.977628 -0.380878 2.819304 0
M  V30 42 H 3.847594 2.232340 1.300481 0
M  V30 43 H 5.314090 1.584544 2.042105 0
M  V30 44 H 3.009060 1.482555 -0.697458 0
M  V30 45 H 3.477795 0.348681 -2.863096 0
M  V30 46 H 4.938060 -1.294587 -4.110229 0
M  V30 47 H 6.892243 -1.596164 -1.128311 0
M  V30 48 H 6.385279 -0.444995 1.008489 0
M  V30 49 H 1.577707 1.016982 1.580973 0
M  V30 50 H 0.580693 -3.465647 1.554343 0
M  V30 51 H -1.111011 -6.200267 1.602614 0
M  V30 52 H -3.680761 -3.154566 -0.438267 0
M  V30 53 H -5.802767 -3.150605 -0.174219 0
M  V30 54 H -8.876110 -2.236145 -2.874250 0
M  V30 55 H -5.377281 0.162757 -2.774765 0
M  V30 56 H -4.234654 0.958586 -1.093131 0
M  V30 57 H -2.052681 1.445915 -0.135270 0
M  V30 END ATOM
M  V30 BEGIN BOND
M  V30 1 1 1 2
M  V30 2 1 2 3
M  V30 3 2 3 4
M  V30 4 1 3 5
M  V30 5 1 5 6
M  V30 6 1 6 7
M  V30 7 2 7 8
M  V30 8 1 8 9
M  V30 9 2 9 10
M  V30 10 1 10 11
M  V30 11 1 10 12
M  V30 12 2 12 13
M  V30 13 1 5 14
M  V30 14 1 14 15
M  V30 15 2 15 16
M  V30 16 1 15 17
M  V30 17 2 17 18
M  V30 18 1 18 19
M  V30 19 1 19 20
M  V30 20 2 20 21
M  V30 21 1 20 22
M  V30 22 2 19 23
M  V30 23 1 23 24
M  V30 24 2 24 25
M  V30 25 1 25 26
M  V30 26 2 26 27
M  V30 27 1 27 28
M  V30 28 1 28 29
M  V30 29 2 28 30
M  V30 30 1 30 31
M  V30 31 1 31 32
M  V30 32 2 31 33
M  V30 33 1 25 34
M  V30 34 2 34 35
M  V30 35 1 35 36
M  V30 36 2 36 37
M  V30 37 1 13 7
M  V30 38 1 37 17
M  V30 39 1 36 23
M  V30 40 1 33 26
M  V30 41 1 1 38
M  V30 42 1 1 39
M  V30 43 1 1 40
M  V30 44 1 5 41 CFG=1
M  V30 45 1 6 42
M  V30 46 1 6 43
M  V30 47 1 8 44
M  V30 48 1 9 45
M  V30 49 1 11 46
M  V30 50 1 12 47
M  V30 51 1 13 48
M  V30 52 1 14 49
M  V30 53 1 18 50
M  V30 54 1 22 51
M  V30 55 1 24 52
M  V30 56 1 27 53
M  V30 57 1 30 54
M  V30 58 1 33 55
M  V30 59 1 34 56
M  V30 60 1 35 57
M  V30 END BOND
M  V30 END CTAB
M  END
>  <Dataset>  (863) 
ChEMBL_Kinases

>  <Ligand_Instance>  (863) 
nan

>  <PDB_ID>  (863) 
nan

>  <Standardized_SMILES>  (863) 
COC(=O)[C@H](Cc1ccc(O)cc1)NC(=O)c1cc(C(=O)O)c2cc(-c3cc(Cl)cc(Cl)c3)ccc2n1

>  <Name>  (863) 
nan

>  <Pocket>  (863) 
nan

>  <ATP_Site>  (863) 
nan

>  <Peripheral>  (863) 
nan

>  <Num_H_Atoms_ProtBoundConf>  (863) 
nan

>  <Num_Resolved_Atoms>  (863) 
nan

>  <Num_Not_Resolved_Atoms>  (863) 
nan

$$$$
CHEMBL3099750
     RDKit          3D

  0  0  0  0  0  0  0  0  0  0999 V3000
M  V30 BEGIN CTAB
M  V30 COUNTS 62 65 0 0 0
M  V30 BEGIN ATOM
M  V30 1 C 5.171565 1.760944 6.887452 0
M  V30 2 N 4.221933 1.248595 5.937620 0
M  V30 3 C 4.211849 1.585566 4.581499 0
M  V30 4 O 5.204517 2.408827 4.454219 0
M  V30 5 C 3.657622 1.510625 3.154124 0 CFG=2
M  V30 6 C 3.346737 2.902243 2.717895 0
M  V30 7 C 2.790033 3.054376 1.367455 0
M  V30 8 C 1.395576 2.951250 1.350162 0
M  V30 9 C 0.772665 3.106553 0.114126 0
M  V30 10 C 1.482888 3.349161 -1.035480 0
M  V30 11 O 0.774467 3.490368 -2.225546 0
M  V30 12 C 2.860034 3.451408 -1.014460 0
M  V30 13 C 3.524908 3.299040 0.215563 0
M  V30 14 N 2.616827 0.566618 3.085837 0
M  V30 15 C 1.704925 -0.439680 3.359695 0
M  V30 16 O 1.868424 -0.834632 4.534553 0
M  V30 17 C 0.685290 -1.028413 2.509989 0
M  V30 18 C -0.188759 -1.909043 3.067368 0
M  V30 19 C -1.135857 -2.470999 2.236173 0
M  V30 20 C -2.043439 -3.394393 2.901439 0
M  V30 21 O -2.001731 -3.692939 4.128206 0
M  V30 22 O -2.993697 -4.275154 3.281306 0
M  V30 23 C -1.251031 -2.198719 0.887833 0
M  V30 24 C -2.188070 -2.814664 0.092737 0
M  V30 25 C -2.232202 -2.541729 -1.254552 0
M  V30 26 C -3.235544 -3.244342 -2.049279 0
M  V30 27 C -3.411745 -3.222875 -3.358904 0
M  V30 28 C -4.424597 -3.940163 -4.118115 0
M  V30 29 C -4.481751 -3.861853 -5.501140 0
M  V30 30 C -5.455027 -4.565616 -6.177706 0
M  V30 31 C -6.404888 -5.363445 -5.588548 0
M  V30 32 Cl -7.609789 -6.227961 -6.503367 0
M  V30 33 C -6.361071 -5.451414 -4.200808 0
M  V30 34 C -5.383740 -4.743895 -3.534947 0
M  V30 35 C -1.337132 -1.642992 -1.808225 0
M  V30 36 C -0.381936 -1.013289 -0.999558 0
M  V30 37 C -0.346168 -1.304490 0.374159 0
M  V30 38 N 0.564046 -0.769470 1.200528 0
M  V30 39 H 4.573909 2.008171 7.804605 0
M  V30 40 H 5.721739 2.641530 6.545414 0
M  V30 41 H 5.860368 0.926254 7.227093 0
M  V30 42 H 3.415545 0.604139 6.022703 0
M  V30 43 H 4.598393 1.147928 2.622225 0
M  V30 44 H 4.304850 3.475254 2.778031 0
M  V30 45 H 2.682899 3.441198 3.442552 0
M  V30 46 H 0.754198 2.766177 2.174692 0
M  V30 47 H -0.324547 3.036195 0.057584 0
M  V30 48 H 0.341302 2.688845 -2.687414 0
M  V30 49 H 3.412406 3.642836 -1.924754 0
M  V30 50 H 4.597377 3.366890 0.310416 0
M  V30 51 H 2.379891 0.822409 2.070141 0
M  V30 52 H -0.091169 -2.110640 4.126912 0
M  V30 53 H -3.669360 -4.640077 2.589231 0
M  V30 54 H -2.830289 -3.499584 0.641402 0
M  V30 55 H -3.992472 -3.862954 -1.548829 0
M  V30 56 H -2.717996 -2.597963 -3.902729 0
M  V30 57 H -3.777803 -3.255396 -6.034112 0
M  V30 58 H -5.462368 -4.482729 -7.268550 0
M  V30 59 H -7.080876 -6.062853 -3.684385 0
M  V30 60 H -5.429888 -4.874045 -2.463770 0
M  V30 61 H -1.376237 -1.425250 -2.869050 0
M  V30 62 H 0.322818 -0.311977 -1.415007 0
M  V30 END ATOM
M  V30 BEGIN BOND
M  V30 1 1 1 2
M  V30 2 1 2 3
M  V30 3 2 3 4
M  V30 4 1 3 5
M  V30 5 1 5 6
M  V30 6 1 6 7
M  V30 7 2 7 8
M  V30 8 1 8 9
M  V30 9 2 9 10
M  V30 10 1 10 11
M  V30 11 1 10 12
M  V30 12 2 12 13
M  V30 13 1 5 14
M  V30 14 1 14 15
M  V30 15 2 15 16
M  V30 16 1 15 17
M  V30 17 2 17 18
M  V30 18 1 18 19
M  V30 19 1 19 20
M  V30 20 2 20 21
M  V30 21 1 20 22
M  V30 22 2 19 23
M  V30 23 1 23 24
M  V30 24 2 24 25
M  V30 25 1 25 26
M  V30 26 2 26 27
M  V30 27 1 27 28
M  V30 28 2 28 29
M  V30 29 1 29 30
M  V30 30 2 30 31
M  V30 31 1 31 32
M  V30 32 1 31 33
M  V30 33 2 33 34
M  V30 34 1 25 35
M  V30 35 2 35 36
M  V30 36 1 36 37
M  V30 37 2 37 38
M  V30 38 1 13 7
M  V30 39 1 38 17
M  V30 40 1 37 23
M  V30 41 1 34 28
M  V30 42 1 1 39
M  V30 43 1 1 40
M  V30 44 1 1 41
M  V30 45 1 2 42
M  V30 46 1 5 43 CFG=3
M  V30 47 1 6 44
M  V30 48 1 6 45
M  V30 49 1 8 46
M  V30 50 1 9 47
M  V30 51 1 11 48
M  V30 52 1 12 49
M  V30 53 1 13 50
M  V30 54 1 14 51
M  V30 55 1 18 52
M  V30 56 1 22 53
M  V30 57 1 24 54
M  V30 58 1 26 55
M  V30 59 1 27 56
M  V30 60 1 29 57
M  V30 61 1 30 58
M  V30 62 1 33 59
M  V30 63 1 34 60
M  V30 64 1 35 61
M  V30 65 1 36 62
M  V30 END BOND
M  V30 END CTAB
M  END
>  <Dataset>  (864) 
ChEMBL_Kinases

>  <Ligand_Instance>  (864) 
nan

>  <PDB_ID>  (864) 
nan

>  <Standardized_SMILES>  (864) 
CNC(=O)[C@H](Cc1ccc(O)cc1)NC(=O)c1cc(C(=O)O)c2cc(/C=C/c3ccc(Cl)cc3)ccc2n1

>  <Name>  (864) 
nan

>  <Pocket>  (864) 
nan

>  <ATP_Site>  (864) 
nan

>  <Peripheral>  (864) 
nan

>  <Num_H_Atoms_ProtBoundConf>  (864) 
nan

>  <Num_Resolved_Atoms>  (864) 
nan

>  <Num_Not_Resolved_Atoms>  (864) 
nan

$$$$
CHEMBL3099751
     RDKit          3D

  0  0  0  0  0  0  0  0  0  0999 V3000
M  V30 BEGIN CTAB
M  V30 COUNTS 65 68 0 0 0
M  V30 BEGIN ATOM
M  V30 1 C 7.575288 0.674522 1.056070 0
M  V30 2 N 6.208376 0.875755 1.399773 0
M  V30 3 C 5.811725 2.132335 2.037061 0
M  V30 4 C 5.080100 -0.004253 1.230150 0
M  V30 5 O 6.285177 -0.286343 0.882291 0
M  V30 6 C 4.362586 -1.278046 0.809110 0 CFG=2
M  V30 7 C 4.726695 -1.750791 -0.527291 0
M  V30 8 C 4.471839 -0.847156 -1.658137 0
M  V30 9 C 5.380030 0.029607 -2.204341 0
M  V30 10 C 5.265638 0.921905 -3.242464 0
M  V30 11 C 4.005312 0.943766 -3.861280 0
M  V30 12 O 3.685528 1.774771 -4.924224 0
M  V30 13 C 2.999765 0.098584 -3.395030 0
M  V30 14 C 3.236352 -0.752971 -2.341925 0
M  V30 15 N 2.966814 -1.087776 1.036711 0
M  V30 16 C 2.072571 -0.371786 1.821377 0
M  V30 17 O 2.679542 0.422744 2.608549 0
M  V30 18 C 0.625816 -0.512175 1.741682 0
M  V30 19 C -0.172491 0.445118 2.313529 0
M  V30 20 C -1.513654 0.241049 2.166424 0
M  V30 21 C -2.370570 1.295649 2.749008 0
M  V30 22 O -1.861465 2.296668 3.350902 0
M  V30 23 O -3.628142 1.759764 2.967250 0
M  V30 24 C -2.115483 -0.844041 1.495875 0
M  V30 25 C -3.462876 -0.999894 1.410044 0
M  V30 26 C -4.010200 -2.090530 0.777081 0
M  V30 27 C -5.454711 -2.316013 0.655094 0
M  V30 28 C -6.401885 -1.515069 1.061073 0
M  V30 29 C -7.827225 -1.727290 0.952705 0
M  V30 30 C -8.456342 -2.867336 0.446737 0
M  V30 31 C -9.817569 -3.080788 0.324738 0
M  V30 32 C -10.656627 -2.084170 0.751303 0
M  V30 33 Cl -12.381744 -2.336286 0.621221 0
M  V30 34 C -10.095686 -0.915859 1.275222 0
M  V30 35 C -8.730605 -0.738437 1.369556 0
M  V30 36 C -3.127954 -3.002375 0.238621 0
M  V30 37 C -1.752335 -2.849354 0.318930 0
M  V30 38 C -1.247935 -1.747107 0.959705 0
M  V30 39 N 0.080198 -1.579397 1.082912 0
M  V30 40 H 8.153194 1.568912 1.395746 0
M  V30 41 H 8.007161 -0.189150 1.632703 0
M  V30 42 H 7.787364 0.509622 -0.005299 0
M  V30 43 H 6.654577 2.462955 2.691241 0
M  V30 44 H 4.890926 2.084814 2.615313 0
M  V30 45 H 5.721009 2.877171 1.236066 0
M  V30 46 H 4.788126 -1.999715 1.600335 0
M  V30 47 H 4.181627 -2.713708 -0.772010 0
M  V30 48 H 5.808443 -2.098763 -0.519859 0
M  V30 49 H 6.380241 0.045323 -1.805267 0
M  V30 50 H 6.036176 1.557057 -3.598369 0
M  V30 51 H 3.310977 2.717398 -4.748376 0
M  V30 52 H 2.038406 0.142229 -3.890173 0
M  V30 53 H 2.429727 -1.391105 -2.016266 0
M  V30 54 H 2.433430 -1.724498 0.366071 0
M  V30 55 H 0.226789 1.283986 2.834666 0
M  V30 56 H -4.254807 2.155324 2.261882 0
M  V30 57 H -4.107031 -0.253597 1.851370 0
M  V30 58 H -5.811490 -3.228271 0.199037 0
M  V30 59 H -6.049498 -0.598775 1.532354 0
M  V30 60 H -7.806762 -3.672227 0.098269 0
M  V30 61 H -10.190611 -4.024010 -0.097651 0
M  V30 62 H -10.782717 -0.135856 1.602299 0
M  V30 63 H -8.288898 0.187130 1.774049 0
M  V30 64 H -3.573795 -3.874753 -0.255669 0
M  V30 65 H -1.097481 -3.622292 -0.133682 0
M  V30 END ATOM
M  V30 BEGIN BOND
M  V30 1 1 1 2
M  V30 2 1 2 3
M  V30 3 1 2 4
M  V30 4 2 4 5
M  V30 5 1 4 6
M  V30 6 1 6 7
M  V30 7 1 7 8
M  V30 8 2 8 9
M  V30 9 1 9 10
M  V30 10 2 10 11
M  V30 11 1 11 12
M  V30 12 1 11 13
M  V30 13 2 13 14
M  V30 14 1 6 15
M  V30 15 1 15 16
M  V30 16 2 16 17
M  V30 17 1 16 18
M  V30 18 2 18 19
M  V30 19 1 19 20
M  V30 20 1 20 21
M  V30 21 2 21 22
M  V30 22 1 21 23
M  V30 23 2 20 24
M  V30 24 1 24 25
M  V30 25 2 25 26
M  V30 26 1 26 27
M  V30 27 2 27 28
M  V30 28 1 28 29
M  V30 29 2 29 30
M  V30 30 1 30 31
M  V30 31 2 31 32
M  V30 32 1 32 33
M  V30 33 1 32 34
M  V30 34 2 34 35
M  V30 35 1 26 36
M  V30 36 2 36 37
M  V30 37 1 37 38
M  V30 38 2 38 39
M  V30 39 1 14 8
M  V30 40 1 39 18
M  V30 41 1 38 24
M  V30 42 1 35 29
M  V30 43 1 1 40
M  V30 44 1 1 41
M  V30 45 1 1 42
M  V30 46 1 3 43
M  V30 47 1 3 44
M  V30 48 1 3 45
M  V30 49 1 6 46 CFG=1
M  V30 50 1 7 47
M  V30 51 1 7 48
M  V30 52 1 9 49
M  V30 53 1 10 50
M  V30 54 1 12 51
M  V30 55 1 13 52
M  V30 56 1 14 53
M  V30 57 1 15 54
M  V30 58 1 19 55
M  V30 59 1 23 56
M  V30 60 1 25 57
M  V30 61 1 27 58
M  V30 62 1 28 59
M  V30 63 1 30 60
M  V30 64 1 31 61
M  V30 65 1 34 62
M  V30 66 1 35 63
M  V30 67 1 36 64
M  V30 68 1 37 65
M  V30 END BOND
M  V30 END CTAB
M  END
>  <Dataset>  (865) 
ChEMBL_Kinases

>  <Ligand_Instance>  (865) 
nan

>  <PDB_ID>  (865) 
nan

>  <Standardized_SMILES>  (865) 
CN(C)C(=O)[C@H](Cc1ccc(O)cc1)NC(=O)c1cc(C(=O)O)c2cc(/C=C/c3ccc(Cl)cc3)ccc2n1

>  <Name>  (865) 
nan

>  <Pocket>  (865) 
nan

>  <ATP_Site>  (865) 
nan

>  <Peripheral>  (865) 
nan

>  <Num_H_Atoms_ProtBoundConf>  (865) 
nan

>  <Num_Resolved_Atoms>  (865) 
nan

>  <Num_Not_Resolved_Atoms>  (865) 
nan

$$$$
CHEMBL3099752
     RDKit          3D

  0  0  0  0  0  0  0  0  0  0999 V3000
M  V30 BEGIN CTAB
M  V30 COUNTS 61 64 0 0 0
M  V30 BEGIN ATOM
M  V30 1 C 2.896054 4.488409 1.702888 0
M  V30 2 O 3.356833 3.454563 0.915302 0
M  V30 3 C 4.008216 2.450218 1.597551 0
M  V30 4 C 3.114589 1.792206 2.634656 0 CFG=2
M  V30 5 C 3.889823 0.693337 3.345229 0
M  V30 6 C 4.359361 -0.354848 2.406616 0
M  V30 7 C 3.651652 -1.488486 2.063311 0
M  V30 8 C 4.156085 -2.428351 1.176172 0
M  V30 9 C 5.409814 -2.248240 0.600536 0
M  V30 10 O 5.817729 -3.239519 -0.266565 0
M  V30 11 C 6.134503 -1.117631 0.932562 0
M  V30 12 C 5.614946 -0.195089 1.816790 0
M  V30 13 N 1.943911 1.195667 2.078965 0
M  V30 14 C 0.587455 1.466914 2.407024 0
M  V30 15 O 0.325184 2.327440 3.286272 0
M  V30 16 C -0.446310 0.717865 1.692117 0
M  V30 17 C -1.751302 0.991228 2.018678 0
M  V30 18 C -2.804520 0.347231 1.409919 0
M  V30 19 C -4.147618 0.667223 1.789825 0
M  V30 20 O -5.294877 0.300664 1.475375 0
M  V30 21 O -4.414933 1.616021 2.749271 0
M  V30 22 C -2.427754 -0.576793 0.463082 0
M  V30 23 C -3.408975 -1.276383 -0.205229 0
M  V30 24 C -3.120497 -2.219972 -1.168777 0
M  V30 25 C -4.194407 -2.955246 -1.870330 0
M  V30 26 C -5.398119 -2.366991 -2.109508 0
M  V30 27 C -6.400413 -3.041394 -2.759461 0
M  V30 28 C -6.183652 -4.342099 -3.179009 0
M  V30 29 C -4.967100 -4.965310 -2.948375 0
M  V30 30 C -4.662273 -6.371310 -3.374848 0
M  V30 31 F -5.462248 -6.656454 -4.454359 0
M  V30 32 F -4.998822 -7.223426 -2.343543 0
M  V30 33 F -3.315984 -6.492557 -3.685148 0
M  V30 34 C -3.974858 -4.268439 -2.293590 0
M  V30 35 C -1.816017 -2.507077 -1.508815 0
M  V30 36 C -0.799193 -1.819274 -0.853881 0
M  V30 37 C -1.135967 -0.885759 0.101330 0
M  V30 38 N -0.158241 -0.214574 0.740350 0
M  V30 39 H 2.171027 4.196220 2.478791 0
M  V30 40 H 2.451848 5.247356 1.029864 0
M  V30 41 H 3.773063 5.000227 2.177833 0
M  V30 42 H 4.891098 2.844224 2.123281 0
M  V30 43 H 4.289181 1.674138 0.858504 0
M  V30 44 H 2.925110 2.554606 3.416676 0
M  V30 45 H 3.226399 0.214042 4.095594 0
M  V30 46 H 4.745412 1.117369 3.937973 0
M  V30 47 H 2.677285 -1.594586 2.532640 0
M  V30 48 H 3.549598 -3.293148 0.950856 0
M  V30 49 H 6.545604 -3.117986 -0.952670 0
M  V30 50 H 7.106527 -1.001924 0.470721 0
M  V30 51 H 6.259652 0.652868 2.010480 0
M  V30 52 H 2.195393 0.474494 1.340864 0
M  V30 53 H -1.981781 1.739778 2.782822 0
M  V30 54 H -5.133015 2.346154 2.699240 0
M  V30 55 H -4.456965 -1.134397 -0.021295 0
M  V30 56 H -5.533099 -1.340414 -1.764237 0
M  V30 57 H -7.362702 -2.552331 -2.943412 0
M  V30 58 H -6.936037 -4.916261 -3.692901 0
M  V30 59 H -3.017194 -4.745107 -2.106804 0
M  V30 60 H -1.624788 -3.253267 -2.268820 0
M  V30 61 H 0.228492 -2.026436 -1.102953 0
M  V30 END ATOM
M  V30 BEGIN BOND
M  V30 1 1 1 2
M  V30 2 1 2 3
M  V30 3 1 3 4
M  V30 4 1 4 5
M  V30 5 1 5 6
M  V30 6 2 6 7
M  V30 7 1 7 8
M  V30 8 2 8 9
M  V30 9 1 9 10
M  V30 10 1 9 11
M  V30 11 2 11 12
M  V30 12 1 4 13
M  V30 13 1 13 14
M  V30 14 2 14 15
M  V30 15 1 14 16
M  V30 16 2 16 17
M  V30 17 1 17 18
M  V30 18 1 18 19
M  V30 19 2 19 20
M  V30 20 1 19 21
M  V30 21 2 18 22
M  V30 22 1 22 23
M  V30 23 2 23 24
M  V30 24 1 24 25
M  V30 25 2 25 26
M  V30 26 1 26 27
M  V30 27 2 27 28
M  V30 28 1 28 29
M  V30 29 1 29 30
M  V30 30 1 30 31
M  V30 31 1 30 32
M  V30 32 1 30 33
M  V30 33 2 29 34
M  V30 34 1 24 35
M  V30 35 2 35 36
M  V30 36 1 36 37
M  V30 37 2 37 38
M  V30 38 1 12 6
M  V30 39 1 38 16
M  V30 40 1 37 22
M  V30 41 1 34 25
M  V30 42 1 1 39
M  V30 43 1 1 40
M  V30 44 1 1 41
M  V30 45 1 3 42
M  V30 46 1 3 43
M  V30 47 1 4 44 CFG=1
M  V30 48 1 5 45
M  V30 49 1 5 46
M  V30 50 1 7 47
M  V30 51 1 8 48
M  V30 52 1 10 49
M  V30 53 1 11 50
M  V30 54 1 12 51
M  V30 55 1 13 52
M  V30 56 1 17 53
M  V30 57 1 21 54
M  V30 58 1 23 55
M  V30 59 1 26 56
M  V30 60 1 27 57
M  V30 61 1 28 58
M  V30 62 1 34 59
M  V30 63 1 35 60
M  V30 64 1 36 61
M  V30 END BOND
M  V30 END CTAB
M  END
>  <Dataset>  (866) 
ChEMBL_Kinases

>  <Ligand_Instance>  (866) 
nan

>  <PDB_ID>  (866) 
nan

>  <Standardized_SMILES>  (866) 
COC[C@H](Cc1ccc(O)cc1)NC(=O)c1cc(C(=O)O)c2cc(-c3cccc(C(F)(F)F)c3)ccc2n1

>  <Name>  (866) 
nan

>  <Pocket>  (866) 
nan

>  <ATP_Site>  (866) 
nan

>  <Peripheral>  (866) 
nan

>  <Num_H_Atoms_ProtBoundConf>  (866) 
nan

>  <Num_Resolved_Atoms>  (866) 
nan

>  <Num_Not_Resolved_Atoms>  (866) 
nan

$$$$
CHEMBL3099753
     RDKit          3D

  0  0  0  0  0  0  0  0  0  0999 V3000
M  V30 BEGIN CTAB
M  V30 COUNTS 62 65 0 0 0
M  V30 BEGIN ATOM
M  V30 1 C 3.801553 -1.703384 4.545360 0
M  V30 2 O 3.527560 -1.020420 3.371943 0
M  V30 3 C 3.173708 0.284371 3.704040 0
M  V30 4 C 2.861652 1.131783 2.544012 0 CFG=2
M  V30 5 C 2.452169 2.515519 3.139011 0
M  V30 6 C 3.624175 2.999819 3.934643 0
M  V30 7 C 3.878029 2.862255 5.279928 0
M  V30 8 C 4.973376 3.316550 5.969654 0
M  V30 9 C 5.926997 3.988236 5.231649 0
M  V30 10 O 7.004162 4.423712 6.005026 0
M  V30 11 C 5.759070 4.174297 3.873814 0
M  V30 12 C 4.614733 3.683490 3.250220 0
M  V30 13 N 1.798981 0.632849 1.710524 0
M  V30 14 C 1.335240 1.247309 0.548462 0
M  V30 15 O 1.779462 2.354944 0.121035 0
M  V30 16 C 0.278275 0.518121 -0.165580 0
M  V30 17 C -0.391926 1.217862 -1.128371 0
M  V30 18 C -1.403397 0.626334 -1.810844 0
M  V30 19 C -2.125871 1.317508 -2.860057 0
M  V30 20 O -3.018040 1.291235 -3.728030 0
M  V30 21 O -1.765616 2.604945 -3.135226 0
M  V30 22 C -1.853875 -0.631622 -1.649222 0
M  V30 23 C -2.803530 -1.439461 -2.220881 0
M  V30 24 C -3.087884 -2.787381 -1.924457 0
M  V30 25 C -4.149013 -3.104475 -2.824341 0
M  V30 26 C -4.401005 -4.433407 -2.631977 0
M  V30 27 C -5.308901 -5.488271 -3.159127 0
M  V30 28 C -5.568388 -6.811194 -2.942750 0
M  V30 29 C -6.469838 -7.573804 -3.563752 0
M  V30 30 C -7.269445 -7.057925 -4.543770 0
M  V30 31 Cl -8.409025 -8.143321 -5.301859 0
M  V30 32 C -7.126009 -5.690507 -4.892883 0
M  V30 33 C -6.168083 -5.013142 -4.182992 0
M  V30 34 C -2.323753 -3.398088 -0.927503 0
M  V30 35 C -1.391655 -2.616518 -0.348635 0
M  V30 36 C -1.123143 -1.309558 -0.642331 0
M  V30 37 N -0.135966 -0.771304 0.043667 0
M  V30 38 H 4.631995 -1.270597 5.144086 0
M  V30 39 H 4.031316 -2.748905 4.341871 0
M  V30 40 H 2.893148 -1.645743 5.219879 0
M  V30 41 H 2.366380 0.248364 4.464108 0
M  V30 42 H 4.074632 0.659406 4.280133 0
M  V30 43 H 3.792065 1.347874 1.936406 0
M  V30 44 H 1.603997 2.397583 3.819620 0
M  V30 45 H 2.194080 3.205066 2.358297 0
M  V30 46 H 3.078698 2.305677 5.784736 0
M  V30 47 H 4.983380 3.118242 7.032408 0
M  V30 48 H 6.962372 5.424086 6.249473 0
M  V30 49 H 6.548159 4.702401 3.406213 0
M  V30 50 H 4.613630 3.893769 2.213460 0
M  V30 51 H 1.369986 -0.287275 2.064698 0
M  V30 52 H -0.149304 2.236548 -1.389173 0
M  V30 53 H -2.338214 3.408451 -3.326077 0
M  V30 54 H -3.310667 -0.800907 -2.971041 0
M  V30 55 H -4.927720 -3.221985 -3.511486 0
M  V30 56 H -3.894930 -5.140228 -1.917009 0
M  V30 57 H -4.873340 -7.145801 -2.129943 0
M  V30 58 H -6.424817 -8.572127 -3.182817 0
M  V30 59 H -7.818497 -5.458191 -5.674280 0
M  V30 60 H -6.254714 -4.015784 -4.629117 0
M  V30 61 H -2.560820 -4.429787 -1.004109 0
M  V30 62 H -0.886770 -3.229737 0.414973 0
M  V30 END ATOM
M  V30 BEGIN BOND
M  V30 1 1 1 2
M  V30 2 1 2 3
M  V30 3 1 3 4
M  V30 4 1 4 5
M  V30 5 1 5 6
M  V30 6 2 6 7
M  V30 7 1 7 8
M  V30 8 2 8 9
M  V30 9 1 9 10
M  V30 10 1 9 11
M  V30 11 2 11 12
M  V30 12 1 4 13
M  V30 13 1 13 14
M  V30 14 2 14 15
M  V30 15 1 14 16
M  V30 16 2 16 17
M  V30 17 1 17 18
M  V30 18 1 18 19
M  V30 19 2 19 20
M  V30 20 1 19 21
M  V30 21 2 18 22
M  V30 22 1 22 23
M  V30 23 2 23 24
M  V30 24 1 24 25
M  V30 25 2 25 26
M  V30 26 1 26 27
M  V30 27 2 27 28
M  V30 28 1 28 29
M  V30 29 2 29 30
M  V30 30 1 30 31
M  V30 31 1 30 32
M  V30 32 2 32 33
M  V30 33 1 24 34
M  V30 34 2 34 35
M  V30 35 1 35 36
M  V30 36 2 36 37
M  V30 37 1 12 6
M  V30 38 1 37 16
M  V30 39 1 36 22
M  V30 40 1 33 27
M  V30 41 1 1 38
M  V30 42 1 1 39
M  V30 43 1 1 40
M  V30 44 1 3 41
M  V30 45 1 3 42
M  V30 46 1 4 43 CFG=3
M  V30 47 1 5 44
M  V30 48 1 5 45
M  V30 49 1 7 46
M  V30 50 1 8 47
M  V30 51 1 10 48
M  V30 52 1 11 49
M  V30 53 1 12 50
M  V30 54 1 13 51
M  V30 55 1 17 52
M  V30 56 1 21 53
M  V30 57 1 23 54
M  V30 58 1 25 55
M  V30 59 1 26 56
M  V30 60 1 28 57
M  V30 61 1 29 58
M  V30 62 1 32 59
M  V30 63 1 33 60
M  V30 64 1 34 61
M  V30 65 1 35 62
M  V30 END BOND
M  V30 END CTAB
M  END
>  <Dataset>  (867) 
ChEMBL_Kinases

>  <Ligand_Instance>  (867) 
nan

>  <PDB_ID>  (867) 
nan

>  <Standardized_SMILES>  (867) 
COC[C@H](Cc1ccc(O)cc1)NC(=O)c1cc(C(=O)O)c2cc(/C=C/c3ccc(Cl)cc3)ccc2n1

>  <Name>  (867) 
nan

>  <Pocket>  (867) 
nan

>  <ATP_Site>  (867) 
nan

>  <Peripheral>  (867) 
nan

>  <Num_H_Atoms_ProtBoundConf>  (867) 
nan

>  <Num_Resolved_Atoms>  (867) 
nan

>  <Num_Not_Resolved_Atoms>  (867) 
nan

$$$$
CHEMBL3099754
     RDKit          3D

  0  0  0  0  0  0  0  0  0  0999 V3000
M  V30 BEGIN CTAB
M  V30 COUNTS 54 57 0 0 0
M  V30 BEGIN ATOM
M  V30 1 C 5.198722 -1.089566 0.106602 0
M  V30 2 O 4.793971 0.106048 0.725711 0
M  V30 3 C 3.578870 0.541312 1.046939 0
M  V30 4 O 3.331616 -0.583390 0.493994 0
M  V30 5 C 2.265094 1.070675 1.424407 0 CFG=2
M  V30 6 C 2.285627 1.481525 2.874995 0
M  V30 7 C 3.370787 2.525092 2.994155 0
M  V30 8 C 4.674147 2.115893 3.343661 0
M  V30 9 C 5.568062 3.147636 3.376997 0
M  V30 10 C 5.297510 4.511769 3.103898 0
M  V30 11 O 6.317924 5.459194 3.175654 0
M  V30 12 C 3.962966 4.776287 2.771268 0
M  V30 13 C 2.980096 3.786250 2.712156 0
M  V30 14 N 1.251225 0.241329 0.947327 0
M  V30 15 C -0.117022 0.253698 1.177723 0
M  V30 16 O -0.437717 1.187375 1.969682 0
M  V30 17 C -1.215469 -0.575112 0.698818 0
M  V30 18 C -2.538741 -0.317604 1.063772 0
M  V30 19 C -3.430056 -1.192773 0.479637 0
M  V30 20 C -4.802930 -0.905991 0.885831 0
M  V30 21 O -5.273250 -0.016547 1.646820 0
M  V30 22 O -6.144618 -1.215064 0.821007 0
M  V30 23 C -3.153196 -2.233155 -0.378360 0
M  V30 24 C -4.172161 -3.021146 -0.892087 0
M  V30 25 C -3.797039 -4.032255 -1.751230 0
M  V30 26 C -4.934397 -4.853813 -2.316208 0
M  V30 27 C -4.843897 -5.904127 -3.143391 0
M  V30 28 C -5.995450 -6.512584 -3.543938 0
M  V30 29 C -7.217334 -5.982954 -3.054080 0
M  V30 30 S -6.595415 -4.551659 -1.974952 0
M  V30 31 C -2.497270 -4.265370 -2.093909 0
M  V30 32 C -1.494596 -3.457647 -1.562344 0
M  V30 33 C -1.795406 -2.427805 -0.697968 0
M  V30 34 N -0.919592 -1.583189 -0.136138 0
M  V30 35 H 4.842279 -1.987624 0.673362 0
M  V30 36 H 4.788619 -1.153832 -0.910573 0
M  V30 37 H 6.318900 -1.139197 0.013685 0
M  V30 38 H 2.117116 2.078841 0.911657 0
M  V30 39 H 1.344396 1.790036 3.311642 0
M  V30 40 H 2.653876 0.619704 3.454599 0
M  V30 41 H 4.936838 1.092752 3.565824 0
M  V30 42 H 6.625812 2.961624 3.640344 0
M  V30 43 H 7.014328 5.460081 2.420709 0
M  V30 44 H 3.793044 5.845348 2.567651 0
M  V30 45 H 1.977435 4.070641 2.445545 0
M  V30 46 H 1.463067 -0.575541 0.282429 0
M  V30 47 H -2.766180 0.489449 1.735806 0
M  V30 48 H -6.581589 -2.074864 1.154934 0
M  V30 49 H -5.181328 -2.816038 -0.607450 0
M  V30 50 H -3.885786 -6.270276 -3.485808 0
M  V30 51 H -6.096720 -7.367891 -4.206121 0
M  V30 52 H -8.253883 -6.342555 -3.274472 0
M  V30 53 H -2.263833 -5.074991 -2.771763 0
M  V30 54 H -0.456492 -3.611452 -1.809751 0
M  V30 END ATOM
M  V30 BEGIN BOND
M  V30 1 1 1 2
M  V30 2 1 2 3
M  V30 3 2 3 4
M  V30 4 1 3 5
M  V30 5 1 5 6
M  V30 6 1 6 7
M  V30 7 2 7 8
M  V30 8 1 8 9
M  V30 9 2 9 10
M  V30 10 1 10 11
M  V30 11 1 10 12
M  V30 12 2 12 13
M  V30 13 1 5 14
M  V30 14 1 14 15
M  V30 15 2 15 16
M  V30 16 1 15 17
M  V30 17 2 17 18
M  V30 18 1 18 19
M  V30 19 1 19 20
M  V30 20 2 20 21
M  V30 21 1 20 22
M  V30 22 2 19 23
M  V30 23 1 23 24
M  V30 24 2 24 25
M  V30 25 1 25 26
M  V30 26 2 26 27
M  V30 27 1 27 28
M  V30 28 2 28 29
M  V30 29 1 29 30
M  V30 30 1 25 31
M  V30 31 2 31 32
M  V30 32 1 32 33
M  V30 33 2 33 34
M  V30 34 1 13 7
M  V30 35 1 34 17
M  V30 36 1 33 23
M  V30 37 1 30 26
M  V30 38 1 1 35
M  V30 39 1 1 36
M  V30 40 1 1 37
M  V30 41 1 5 38 CFG=3
M  V30 42 1 6 39
M  V30 43 1 6 40
M  V30 44 1 8 41
M  V30 45 1 9 42
M  V30 46 1 11 43
M  V30 47 1 12 44
M  V30 48 1 13 45
M  V30 49 1 14 46
M  V30 50 1 18 47
M  V30 51 1 22 48
M  V30 52 1 24 49
M  V30 53 1 27 50
M  V30 54 1 28 51
M  V30 55 1 29 52
M  V30 56 1 31 53
M  V30 57 1 32 54
M  V30 END BOND
M  V30 END CTAB
M  END
>  <Dataset>  (868) 
ChEMBL_Kinases

>  <Ligand_Instance>  (868) 
nan

>  <PDB_ID>  (868) 
nan

>  <Standardized_SMILES>  (868) 
COC(=O)[C@H](Cc1ccc(O)cc1)NC(=O)c1cc(C(=O)O)c2cc(-c3cccs3)ccc2n1

>  <Name>  (868) 
nan

>  <Pocket>  (868) 
nan

>  <ATP_Site>  (868) 
nan

>  <Peripheral>  (868) 
nan

>  <Num_H_Atoms_ProtBoundConf>  (868) 
nan

>  <Num_Resolved_Atoms>  (868) 
nan

>  <Num_Not_Resolved_Atoms>  (868) 
nan

$$$$
CHEMBL3099755
     RDKit          3D

  0  0  0  0  0  0  0  0  0  0999 V3000
M  V30 BEGIN CTAB
M  V30 COUNTS 57 60 0 0 0
M  V30 BEGIN ATOM
M  V30 1 C 4.221221 -1.954338 5.077034 0
M  V30 2 O 3.654848 -1.190460 4.039798 0
M  V30 3 C 4.172297 0.035837 3.672241 0
M  V30 4 O 5.156655 0.693854 4.128592 0
M  V30 5 C 3.582606 0.834162 2.573224 0 CFG=2
M  V30 6 C 2.966672 2.094706 3.235024 0
M  V30 7 C 2.362015 2.946919 2.167324 0
M  V30 8 C 2.994207 4.001714 1.565556 0
M  V30 9 C 2.314261 4.639660 0.548995 0
M  V30 10 C 1.060558 4.239162 0.157418 0
M  V30 11 O 0.367017 4.867584 -0.860085 0
M  V30 12 C 0.381595 3.164896 0.750817 0
M  V30 13 C 1.096350 2.544815 1.772382 0
M  V30 14 N 2.429165 0.064220 2.076204 0
M  V30 15 C 2.260739 -0.191740 0.732948 0
M  V30 16 O 3.206781 0.303556 0.064279 0
M  V30 17 C 1.422835 -0.808736 -0.240445 0
M  V30 18 C 0.341548 -1.064423 0.732411 0
M  V30 19 C -0.936356 -1.679391 0.592630 0
M  V30 20 C -1.947351 -1.873438 1.633741 0
M  V30 21 O -1.762084 -1.499591 2.847195 0
M  V30 22 O -3.170355 -2.352137 1.864557 0
M  V30 23 C -1.298488 -2.144573 -0.654938 0
M  V30 24 C -2.449768 -2.757672 -1.049089 0
M  V30 25 C -2.604084 -3.148201 -2.373550 0
M  V30 26 C -3.844068 -3.808308 -2.750489 0
M  V30 27 C -4.429760 -4.603545 -1.753441 0
M  V30 28 C -5.622555 -5.252925 -2.070544 0
M  V30 29 C -6.217376 -5.139603 -3.293148 0
M  V30 30 C -5.640004 -4.349960 -4.289145 0
M  V30 31 Cl -6.382451 -4.183604 -5.851253 0
M  V30 32 C -4.453461 -3.699429 -3.980145 0
M  V30 33 C -1.566260 -2.896300 -3.264753 0
M  V30 34 C -0.367656 -2.268637 -2.904520 0
M  V30 35 C -0.307255 -1.917377 -1.565718 0
M  V30 36 N 0.694894 -1.343770 -1.080478 0
M  V30 37 H 4.441865 -3.017936 4.766796 0
M  V30 38 H 3.528513 -2.066832 5.930162 0
M  V30 39 H 5.215501 -1.560923 5.402817 0
M  V30 40 H 4.263152 1.153016 1.799879 0
M  V30 41 H 3.731071 2.699402 3.726482 0
M  V30 42 H 2.210872 1.804719 3.979931 0
M  V30 43 H 3.981963 4.256836 1.920686 0
M  V30 44 H 2.803014 5.477886 0.058106 0
M  V30 45 H 0.065357 4.384209 -1.714204 0
M  V30 46 H -0.592141 2.840477 0.456929 0
M  V30 47 H 0.546352 1.699833 2.224364 0
M  V30 48 H 1.726649 -0.296158 2.733543 0
M  V30 49 H 0.221003 -0.838007 1.844382 0
M  V30 50 H -4.015125 -1.783396 1.928260 0
M  V30 51 H -3.192232 -2.913064 -0.306019 0
M  V30 52 H -4.042564 -4.766678 -0.755162 0
M  V30 53 H -6.096372 -5.874062 -1.319113 0
M  V30 54 H -7.143946 -5.640274 -3.536102 0
M  V30 55 H -4.005773 -3.070668 -4.764724 0
M  V30 56 H -1.679248 -3.201040 -4.298321 0
M  V30 57 H 0.407174 -2.104022 -3.638229 0
M  V30 END ATOM
M  V30 BEGIN BOND
M  V30 1 1 1 2
M  V30 2 1 2 3
M  V30 3 2 3 4
M  V30 4 1 3 5
M  V30 5 1 5 6
M  V30 6 1 6 7
M  V30 7 2 7 8
M  V30 8 1 8 9
M  V30 9 2 9 10
M  V30 10 1 10 11
M  V30 11 1 10 12
M  V30 12 2 12 13
M  V30 13 1 5 14
M  V30 14 1 14 15
M  V30 15 2 15 16
M  V30 16 1 15 17
M  V30 17 2 17 18
M  V30 18 1 18 19
M  V30 19 1 19 20
M  V30 20 2 20 21
M  V30 21 1 20 22
M  V30 22 2 19 23
M  V30 23 1 23 24
M  V30 24 2 24 25
M  V30 25 1 25 26
M  V30 26 2 26 27
M  V30 27 1 27 28
M  V30 28 2 28 29
M  V30 29 1 29 30
M  V30 30 1 30 31
M  V30 31 2 30 32
M  V30 32 1 25 33
M  V30 33 2 33 34
M  V30 34 1 34 35
M  V30 35 2 35 36
M  V30 36 1 13 7
M  V30 37 1 36 17
M  V30 38 1 35 23
M  V30 39 1 32 26
M  V30 40 1 1 37
M  V30 41 1 1 38
M  V30 42 1 1 39
M  V30 43 1 5 40 CFG=3
M  V30 44 1 6 41
M  V30 45 1 6 42
M  V30 46 1 8 43
M  V30 47 1 9 44
M  V30 48 1 11 45
M  V30 49 1 12 46
M  V30 50 1 13 47
M  V30 51 1 14 48
M  V30 52 1 18 49
M  V30 53 1 22 50
M  V30 54 1 24 51
M  V30 55 1 27 52
M  V30 56 1 28 53
M  V30 57 1 29 54
M  V30 58 1 32 55
M  V30 59 1 33 56
M  V30 60 1 34 57
M  V30 END BOND
M  V30 END CTAB
M  END
>  <Dataset>  (869) 
ChEMBL_Kinases

>  <Ligand_Instance>  (869) 
nan

>  <PDB_ID>  (869) 
nan

>  <Standardized_SMILES>  (869) 
COC(=O)[C@H](Cc1ccc(O)cc1)NC(=O)c1cc(C(=O)O)c2cc(-c3cccc(Cl)c3)ccc2n1

>  <Name>  (869) 
nan

>  <Pocket>  (869) 
nan

>  <ATP_Site>  (869) 
nan

>  <Peripheral>  (869) 
nan

>  <Num_H_Atoms_ProtBoundConf>  (869) 
nan

>  <Num_Resolved_Atoms>  (869) 
nan

>  <Num_Not_Resolved_Atoms>  (869) 
nan

$$$$
CHEMBL3099756
     RDKit          3D

  0  0  0  0  0  0  0  0  0  0999 V3000
M  V30 BEGIN CTAB
M  V30 COUNTS 57 60 0 0 0
M  V30 BEGIN ATOM
M  V30 1 C 1.670313 1.425291 6.296361 0
M  V30 2 O 1.761065 1.178963 4.914769 0
M  V30 3 C 2.849729 1.597660 4.142487 0
M  V30 4 O 3.865120 2.230533 4.557179 0
M  V30 5 C 2.989858 1.360094 2.678230 0 CFG=2
M  V30 6 C 3.011720 2.748955 2.049239 0
M  V30 7 C 3.148336 2.693260 0.571813 0
M  V30 8 C 4.380441 2.695520 -0.050259 0
M  V30 9 C 4.503088 2.643815 -1.419055 0
M  V30 10 C 3.387954 2.586560 -2.245635 0
M  V30 11 O 3.455277 2.533096 -3.629010 0
M  V30 12 C 2.135054 2.582687 -1.652864 0
M  V30 13 C 2.057363 2.635516 -0.280490 0
M  V30 14 N 1.864263 0.637527 2.118677 0
M  V30 15 C 2.111062 -0.528814 1.354583 0
M  V30 16 O 3.282592 -0.928131 1.166274 0
M  V30 17 C 0.961130 -1.265443 0.783979 0
M  V30 18 C 1.211452 -2.416451 0.030034 0
M  V30 19 C 0.091708 -3.023289 -0.451684 0
M  V30 20 C 0.387386 -4.218443 -1.232557 0
M  V30 21 O 1.497272 -4.742529 -1.508833 0
M  V30 22 O -0.162350 -5.255020 -1.964192 0
M  V30 23 C -1.206496 -2.602812 -0.257428 0
M  V30 24 C -2.283421 -3.278847 -0.782587 0
M  V30 25 C -3.559529 -2.801563 -0.548829 0
M  V30 26 C -4.650917 -3.560380 -1.130336 0
M  V30 27 C -4.638119 -4.030397 -2.427933 0
M  V30 28 C -5.669687 -4.757798 -3.005344 0
M  V30 29 C -6.784868 -5.037422 -2.249362 0
M  V30 30 C -6.827090 -4.580233 -0.946627 0
M  V30 31 C -5.790118 -3.852161 -0.374776 0
M  V30 32 Cl -5.946507 -3.320976 1.284239 0
M  V30 33 C -3.689905 -1.659882 0.206921 0
M  V30 34 C -2.622634 -0.972299 0.739208 0
M  V30 35 C -1.357614 -1.463496 0.495375 0
M  V30 36 N -0.291040 -0.827789 0.992838 0
M  V30 37 H 1.965447 0.534204 6.884860 0
M  V30 38 H 0.606219 1.655024 6.511831 0
M  V30 39 H 2.368670 2.234780 6.619691 0
M  V30 40 H 3.956822 0.886543 2.426601 0
M  V30 41 H 3.783213 3.389132 2.524517 0
M  V30 42 H 2.013802 3.188703 2.256145 0
M  V30 43 H 5.249713 2.739851 0.587004 0
M  V30 44 H 5.457126 2.644777 -1.922418 0
M  V30 45 H 2.975258 3.291121 -4.128158 0
M  V30 46 H 1.246503 2.538489 -2.277108 0
M  V30 47 H 1.079546 2.634145 0.222090 0
M  V30 48 H 0.915284 1.026102 2.314749 0
M  V30 49 H 2.216249 -2.727614 -0.110731 0
M  V30 50 H -0.586179 -6.079308 -1.604816 0
M  V30 51 H -2.119393 -4.161120 -1.362482 0
M  V30 52 H -3.788509 -3.827863 -3.032272 0
M  V30 53 H -5.598375 -5.096565 -4.025264 0
M  V30 54 H -7.576042 -5.604735 -2.717807 0
M  V30 55 H -7.733299 -4.836532 -0.411529 0
M  V30 56 H -4.690042 -1.291978 0.385864 0
M  V30 57 H -2.821888 -0.076212 1.325917 0
M  V30 END ATOM
M  V30 BEGIN BOND
M  V30 1 1 1 2
M  V30 2 1 2 3
M  V30 3 2 3 4
M  V30 4 1 3 5
M  V30 5 1 5 6
M  V30 6 1 6 7
M  V30 7 2 7 8
M  V30 8 1 8 9
M  V30 9 2 9 10
M  V30 10 1 10 11
M  V30 11 1 10 12
M  V30 12 2 12 13
M  V30 13 1 5 14
M  V30 14 1 14 15
M  V30 15 2 15 16
M  V30 16 1 15 17
M  V30 17 2 17 18
M  V30 18 1 18 19
M  V30 19 1 19 20
M  V30 20 2 20 21
M  V30 21 1 20 22
M  V30 22 2 19 23
M  V30 23 1 23 24
M  V30 24 2 24 25
M  V30 25 1 25 26
M  V30 26 2 26 27
M  V30 27 1 27 28
M  V30 28 2 28 29
M  V30 29 1 29 30
M  V30 30 2 30 31
M  V30 31 1 31 32
M  V30 32 1 25 33
M  V30 33 2 33 34
M  V30 34 1 34 35
M  V30 35 2 35 36
M  V30 36 1 13 7
M  V30 37 1 36 17
M  V30 38 1 35 23
M  V30 39 1 31 26
M  V30 40 1 1 37
M  V30 41 1 1 38
M  V30 42 1 1 39
M  V30 43 1 5 40 CFG=1
M  V30 44 1 6 41
M  V30 45 1 6 42
M  V30 46 1 8 43
M  V30 47 1 9 44
M  V30 48 1 11 45
M  V30 49 1 12 46
M  V30 50 1 13 47
M  V30 51 1 14 48
M  V30 52 1 18 49
M  V30 53 1 22 50
M  V30 54 1 24 51
M  V30 55 1 27 52
M  V30 56 1 28 53
M  V30 57 1 29 54
M  V30 58 1 30 55
M  V30 59 1 33 56
M  V30 60 1 34 57
M  V30 END BOND
M  V30 END CTAB
M  END
>  <Dataset>  (870) 
ChEMBL_Kinases

>  <Ligand_Instance>  (870) 
nan

>  <PDB_ID>  (870) 
nan

>  <Standardized_SMILES>  (870) 
COC(=O)[C@H](Cc1ccc(O)cc1)NC(=O)c1cc(C(=O)O)c2cc(-c3ccccc3Cl)ccc2n1

>  <Name>  (870) 
nan

>  <Pocket>  (870) 
nan

>  <ATP_Site>  (870) 
nan

>  <Peripheral>  (870) 
nan

>  <Num_H_Atoms_ProtBoundConf>  (870) 
nan

>  <Num_Resolved_Atoms>  (870) 
nan

>  <Num_Not_Resolved_Atoms>  (870) 
nan

$$$$
CHEMBL3099757
     RDKit          3D

  0  0  0  0  0  0  0  0  0  0999 V3000
M  V30 BEGIN CTAB
M  V30 COUNTS 57 60 0 0 0
M  V30 BEGIN ATOM
M  V30 1 C 1.292980 0.554962 6.447072 0
M  V30 2 O 1.508374 0.432514 5.056776 0
M  V30 3 C 2.718819 0.813195 4.465611 0
M  V30 4 O 3.714153 1.292600 5.103389 0
M  V30 5 C 3.053991 0.729456 3.023867 0 CFG=2
M  V30 6 C 3.279489 2.152365 2.542545 0
M  V30 7 C 3.623637 2.169648 1.096082 0
M  V30 8 C 4.941186 2.086636 0.689658 0
M  V30 9 C 5.278196 2.101931 -0.656678 0
M  V30 10 C 4.313417 2.200166 -1.633352 0
M  V30 11 O 4.635744 2.216930 -2.996161 0
M  V30 12 C 2.973907 2.285532 -1.253774 0
M  V30 13 C 2.690726 2.266251 0.096486 0
M  V30 14 N 1.917218 0.183455 2.307848 0
M  V30 15 C 2.049540 -1.002031 1.538097 0
M  V30 16 O 3.154806 -1.621762 1.449204 0
M  V30 17 C 0.866468 -1.524192 0.823505 0
M  V30 18 C 0.992972 -2.686888 0.068625 0
M  V30 19 C -0.176956 -3.072591 -0.549298 0
M  V30 20 C -0.004794 -4.298101 -1.333120 0
M  V30 21 O 1.020915 -4.987751 -1.492514 0
M  V30 22 O -0.630150 -5.218791 -2.150901 0
M  V30 23 C -1.392519 -2.425862 -0.476675 0
M  V30 24 C -2.490736 -2.920331 -1.147411 0
M  V30 25 C -3.691847 -2.225257 -1.037888 0
M  V30 26 C -4.912635 -2.662984 -1.706773 0
M  V30 27 C -4.906884 -3.322012 -2.915985 0
M  V30 28 C -6.063066 -3.744061 -3.563929 0
M  V30 29 C -7.244569 -3.456447 -2.907560 0
M  V30 30 Cl -8.728386 -3.981010 -3.707681 0
M  V30 31 C -7.307521 -2.799640 -1.696119 0
M  V30 32 C -6.131235 -2.402480 -1.096137 0
M  V30 33 C -3.702925 -1.085310 -0.263539 0
M  V30 34 C -2.616926 -0.573222 0.415602 0
M  V30 35 C -1.436978 -1.277491 0.293304 0
M  V30 36 N -0.310395 -0.876463 0.908522 0
M  V30 37 H 1.516289 -0.383173 7.006233 0
M  V30 38 H 0.258286 0.869635 6.707863 0
M  V30 39 H 2.008489 1.309442 6.878142 0
M  V30 40 H 3.967725 0.127418 2.888859 0
M  V30 41 H 4.085826 2.643691 3.114158 0
M  V30 42 H 2.372578 2.759086 2.701979 0
M  V30 43 H 5.721312 2.008150 1.450267 0
M  V30 44 H 6.335547 2.033627 -0.921480 0
M  V30 45 H 4.174429 2.847338 -3.622822 0
M  V30 46 H 2.220078 2.362661 -2.026935 0
M  V30 47 H 1.655815 2.333597 0.352768 0
M  V30 48 H 1.013506 0.698307 2.386873 0
M  V30 49 H 1.928338 -3.184910 0.012287 0
M  V30 50 H -1.227138 -5.958182 -1.803024 0
M  V30 51 H -2.431515 -3.805629 -1.733623 0
M  V30 52 H -3.947248 -3.511891 -3.368907 0
M  V30 53 H -6.060760 -4.260212 -4.510735 0
M  V30 54 H -8.254571 -2.610383 -1.245894 0
M  V30 55 H -6.233248 -1.888309 -0.142468 0
M  V30 56 H -4.647385 -0.551676 -0.186427 0
M  V30 57 H -2.672358 0.326698 1.013278 0
M  V30 END ATOM
M  V30 BEGIN BOND
M  V30 1 1 1 2
M  V30 2 1 2 3
M  V30 3 2 3 4
M  V30 4 1 3 5
M  V30 5 1 5 6
M  V30 6 1 6 7
M  V30 7 2 7 8
M  V30 8 1 8 9
M  V30 9 2 9 10
M  V30 10 1 10 11
M  V30 11 1 10 12
M  V30 12 2 12 13
M  V30 13 1 5 14
M  V30 14 1 14 15
M  V30 15 2 15 16
M  V30 16 1 15 17
M  V30 17 2 17 18
M  V30 18 1 18 19
M  V30 19 1 19 20
M  V30 20 2 20 21
M  V30 21 1 20 22
M  V30 22 2 19 23
M  V30 23 1 23 24
M  V30 24 2 24 25
M  V30 25 1 25 26
M  V30 26 2 26 27
M  V30 27 1 27 28
M  V30 28 2 28 29
M  V30 29 1 29 30
M  V30 30 1 29 31
M  V30 31 2 31 32
M  V30 32 1 25 33
M  V30 33 2 33 34
M  V30 34 1 34 35
M  V30 35 2 35 36
M  V30 36 1 13 7
M  V30 37 1 36 17
M  V30 38 1 35 23
M  V30 39 1 32 26
M  V30 40 1 1 37
M  V30 41 1 1 38
M  V30 42 1 1 39
M  V30 43 1 5 40 CFG=1
M  V30 44 1 6 41
M  V30 45 1 6 42
M  V30 46 1 8 43
M  V30 47 1 9 44
M  V30 48 1 11 45
M  V30 49 1 12 46
M  V30 50 1 13 47
M  V30 51 1 14 48
M  V30 52 1 18 49
M  V30 53 1 22 50
M  V30 54 1 24 51
M  V30 55 1 27 52
M  V30 56 1 28 53
M  V30 57 1 31 54
M  V30 58 1 32 55
M  V30 59 1 33 56
M  V30 60 1 34 57
M  V30 END BOND
M  V30 END CTAB
M  END
>  <Dataset>  (871) 
ChEMBL_Kinases

>  <Ligand_Instance>  (871) 
nan

>  <PDB_ID>  (871) 
nan

>  <Standardized_SMILES>  (871) 
COC(=O)[C@H](Cc1ccc(O)cc1)NC(=O)c1cc(C(=O)O)c2cc(-c3ccc(Cl)cc3)ccc2n1

>  <Name>  (871) 
nan

>  <Pocket>  (871) 
nan

>  <ATP_Site>  (871) 
nan

>  <Peripheral>  (871) 
nan

>  <Num_H_Atoms_ProtBoundConf>  (871) 
nan

>  <Num_Resolved_Atoms>  (871) 
nan

>  <Num_Not_Resolved_Atoms>  (871) 
nan

$$$$
CHEMBL3099749
     RDKit          3D

  0  0  0  0  0  0  0  0  0  0999 V3000
M  V30 BEGIN CTAB
M  V30 COUNTS 63 66 0 0 0
M  V30 BEGIN ATOM
M  V30 1 C 0.933517 4.521352 4.013195 0
M  V30 2 C 0.320664 3.894943 2.754029 0
M  V30 3 C 0.989260 4.445654 1.514586 0
M  V30 4 C 0.444573 3.877894 0.248407 0 CFG=2
M  V30 5 C -1.048079 4.182340 0.119523 0
M  V30 6 C -1.593736 3.609733 -1.155242 0
M  V30 7 C -1.581201 4.386425 -2.311665 0
M  V30 8 C -2.068404 3.919800 -3.523457 0
M  V30 9 C -2.577158 2.627790 -3.539092 0
M  V30 10 O -3.092618 2.051206 -4.694072 0
M  V30 11 C -2.605090 1.828506 -2.408680 0
M  V30 12 C -2.106930 2.331687 -1.209978 0
M  V30 13 N 0.605842 2.476712 0.060665 0
M  V30 14 C 1.183769 1.602547 -0.889157 0
M  V30 15 O 1.766565 2.040707 -1.931208 0
M  V30 16 C 1.070274 0.164301 -0.599849 0
M  V30 17 C 1.645793 -0.693671 -1.524656 0
M  V30 18 C 1.529519 -2.015457 -1.238704 0
M  V30 19 C 2.131783 -2.922221 -2.201501 0
M  V30 20 O 2.737996 -2.566807 -3.259716 0
M  V30 21 O 2.390901 -4.208020 -2.552356 0
M  V30 22 C 0.900314 -2.529684 -0.131307 0
M  V30 23 C 0.792406 -3.880529 0.139753 0
M  V30 24 C 0.141865 -4.322630 1.276393 0
M  V30 25 C 0.015865 -5.753684 1.582170 0
M  V30 26 C 0.931018 -6.730624 1.253532 0
M  V30 27 C 0.690058 -8.042586 1.598902 0
M  V30 28 C -0.458903 -8.382788 2.269637 0
M  V30 29 C -1.412904 -7.444125 2.624961 0
M  V30 30 C -2.684170 -7.778918 3.357541 0
M  V30 31 F -2.545829 -9.040517 3.852164 0
M  V30 32 F -2.976636 -6.852337 4.328723 0
M  V30 33 F -3.695071 -7.747303 2.395315 0
M  V30 34 C -1.145667 -6.122763 2.264334 0
M  V30 35 C -0.412926 -3.390581 2.161456 0
M  V30 36 C -0.316207 -2.027763 1.908722 0
M  V30 37 C 0.340237 -1.629485 0.764505 0
M  V30 38 N 0.449075 -0.317562 0.491915 0
M  V30 39 H 0.204461 5.029304 4.643023 0
M  V30 40 H 1.756381 5.174628 3.704783 0
M  V30 41 H 1.398736 3.717002 4.654991 0
M  V30 42 H -0.752174 4.174434 2.795022 0
M  V30 43 H 0.384421 2.805011 2.831466 0
M  V30 44 H 0.705699 5.535229 1.514079 0
M  V30 45 H 2.080718 4.445349 1.577159 0
M  V30 46 H 0.909417 4.393522 -0.617060 0
M  V30 47 H -1.568537 3.738998 0.980845 0
M  V30 48 H -1.200012 5.263528 0.135461 0
M  V30 49 H -1.196662 5.390391 -2.342064 0
M  V30 50 H -2.065260 4.512569 -4.430268 0
M  V30 51 H -2.474782 1.408836 -5.166467 0
M  V30 52 H -3.002158 0.813562 -2.410746 0
M  V30 53 H -2.131628 1.699672 -0.324654 0
M  V30 54 H 0.123449 2.090960 0.927758 0
M  V30 55 H 2.136700 -0.307481 -2.387924 0
M  V30 56 H 3.164673 -4.740066 -2.177978 0
M  V30 57 H 1.230214 -4.579230 -0.560363 0
M  V30 58 H 1.809062 -6.412478 0.731362 0
M  V30 59 H 1.414412 -8.815840 1.338450 0
M  V30 60 H -0.665208 -9.407726 2.549743 0
M  V30 61 H -1.912319 -5.403110 2.555611 0
M  V30 62 H -0.936929 -3.687859 3.072496 0
M  V30 63 H -0.757905 -1.333315 2.615778 0
M  V30 END ATOM
M  V30 BEGIN BOND
M  V30 1 1 1 2
M  V30 2 1 2 3
M  V30 3 1 3 4
M  V30 4 1 4 5
M  V30 5 1 5 6
M  V30 6 2 6 7
M  V30 7 1 7 8
M  V30 8 2 8 9
M  V30 9 1 9 10
M  V30 10 1 9 11
M  V30 11 2 11 12
M  V30 12 1 4 13
M  V30 13 1 13 14
M  V30 14 2 14 15
M  V30 15 1 14 16
M  V30 16 2 16 17
M  V30 17 1 17 18
M  V30 18 1 18 19
M  V30 19 2 19 20
M  V30 20 1 19 21
M  V30 21 2 18 22
M  V30 22 1 22 23
M  V30 23 2 23 24
M  V30 24 1 24 25
M  V30 25 2 25 26
M  V30 26 1 26 27
M  V30 27 2 27 28
M  V30 28 1 28 29
M  V30 29 1 29 30
M  V30 30 1 30 31
M  V30 31 1 30 32
M  V30 32 1 30 33
M  V30 33 2 29 34
M  V30 34 1 24 35
M  V30 35 2 35 36
M  V30 36 1 36 37
M  V30 37 2 37 38
M  V30 38 1 12 6
M  V30 39 1 38 16
M  V30 40 1 37 22
M  V30 41 1 34 25
M  V30 42 1 1 39
M  V30 43 1 1 40
M  V30 44 1 1 41
M  V30 45 1 2 42
M  V30 46 1 2 43
M  V30 47 1 3 44
M  V30 48 1 3 45
M  V30 49 1 4 46 CFG=3
M  V30 50 1 5 47
M  V30 51 1 5 48
M  V30 52 1 7 49
M  V30 53 1 8 50
M  V30 54 1 10 51
M  V30 55 1 11 52
M  V30 56 1 12 53
M  V30 57 1 13 54
M  V30 58 1 17 55
M  V30 59 1 21 56
M  V30 60 1 23 57
M  V30 61 1 26 58
M  V30 62 1 27 59
M  V30 63 1 28 60
M  V30 64 1 34 61
M  V30 65 1 35 62
M  V30 66 1 36 63
M  V30 END BOND
M  V30 END CTAB
M  END
>  <Dataset>  (872) 
ChEMBL_Kinases

>  <Ligand_Instance>  (872) 
nan

>  <PDB_ID>  (872) 
nan

>  <Standardized_SMILES>  (872) 
CCC[C@H](Cc1ccc(O)cc1)NC(=O)c1cc(C(=O)O)c2cc(-c3cccc(C(F)(F)F)c3)ccc2n1

>  <Name>  (872) 
nan

>  <Pocket>  (872) 
nan

>  <ATP_Site>  (872) 
nan

>  <Peripheral>  (872) 
nan

>  <Num_H_Atoms_ProtBoundConf>  (872) 
nan

>  <Num_Resolved_Atoms>  (872) 
nan

>  <Num_Not_Resolved_Atoms>  (872) 
nan

$$$$
CHEMBL3092464
     RDKit          3D

  0  0  0  0  0  0  0  0  0  0999 V3000
M  V30 BEGIN CTAB
M  V30 COUNTS 41 44 0 0 0
M  V30 BEGIN ATOM
M  V30 1 C 1.110105 -7.588129 2.923194 0
M  V30 2 C 1.496117 -6.168543 3.159044 0
M  V30 3 N 2.060743 -5.617422 4.252649 0
M  V30 4 N 2.246847 -4.321094 4.066024 0
M  V30 5 C 1.797812 -3.990206 2.818783 0
M  V30 6 N 1.783050 -2.795392 2.196704 0
M  V30 7 C 1.285992 -2.696911 0.947510 0
M  V30 8 C 1.248284 -1.426362 0.232770 0
M  V30 9 C 0.765431 -1.206556 -1.041624 0
M  V30 10 C 0.789330 0.053711 -1.602509 0
M  V30 11 C 1.292386 1.148051 -0.924368 0
M  V30 12 N 1.327149 2.451011 -1.479958 0
M  V30 13 S 0.838469 3.827493 -0.564575 0
M  V30 14 O 0.973544 5.056991 -1.439951 0
M  V30 15 O 1.763442 4.055508 0.600566 0
M  V30 16 C -0.825805 3.758788 -0.068960 0
M  V30 17 C -1.707509 2.739091 -0.348392 0
M  V30 18 C -3.010737 2.692374 0.043604 0
M  V30 19 Cl -4.021848 1.326277 -0.385286 0
M  V30 20 C -3.515286 3.750591 0.788629 0
M  V30 21 C -2.654640 4.799741 1.091045 0
M  V30 22 C -1.338917 4.814513 0.677436 0
M  V30 23 F -0.570911 5.895405 1.027045 0
M  V30 24 C 1.779641 0.955418 0.347328 0
M  V30 25 C 1.744746 -0.303373 0.880920 0
M  V30 26 C 0.813452 -3.861019 0.377234 0
M  V30 27 N 0.824988 -5.059827 0.993480 0
M  V30 28 C 1.319907 -5.157178 2.236947 0
M  V30 29 H 0.010405 -7.704505 2.778298 0
M  V30 30 H 1.434653 -8.188542 3.802489 0
M  V30 31 H 1.598759 -7.903872 1.995576 0
M  V30 32 H 2.667414 -3.680284 4.767564 0
M  V30 33 H 0.376897 -2.075639 -1.553663 0
M  V30 34 H 0.398988 0.178944 -2.606973 0
M  V30 35 H 1.675759 2.442693 -2.473822 0
M  V30 36 H -1.329115 1.915173 -0.923826 0
M  V30 37 H -4.547182 3.698164 1.090502 0
M  V30 38 H -3.073184 5.611835 1.672836 0
M  V30 39 H 2.183572 1.776904 0.919925 0
M  V30 40 H 2.140722 -0.418023 1.893826 0
M  V30 41 H 0.399361 -3.881850 -0.612939 0
M  V30 END ATOM
M  V30 BEGIN BOND
M  V30 1 1 1 2
M  V30 2 2 2 3
M  V30 3 1 3 4
M  V30 4 1 4 5
M  V30 5 2 5 6
M  V30 6 1 6 7
M  V30 7 1 7 8
M  V30 8 2 8 9
M  V30 9 1 9 10
M  V30 10 2 10 11
M  V30 11 1 11 12
M  V30 12 1 12 13
M  V30 13 2 13 14
M  V30 14 2 13 15
M  V30 15 1 13 16
M  V30 16 2 16 17
M  V30 17 1 17 18
M  V30 18 1 18 19
M  V30 19 2 18 20
M  V30 20 1 20 21
M  V30 21 2 21 22
M  V30 22 1 22 23
M  V30 23 1 11 24
M  V30 24 2 24 25
M  V30 25 2 7 26
M  V30 26 1 26 27
M  V30 27 2 27 28
M  V30 28 1 28 2
M  V30 29 1 28 5
M  V30 30 1 25 8
M  V30 31 1 22 16
M  V30 32 1 1 29
M  V30 33 1 1 30
M  V30 34 1 1 31
M  V30 35 1 4 32
M  V30 36 1 9 33
M  V30 37 1 10 34
M  V30 38 1 12 35
M  V30 39 1 17 36
M  V30 40 1 20 37
M  V30 41 1 21 38
M  V30 42 1 24 39
M  V30 43 1 25 40
M  V30 44 1 26 41
M  V30 END BOND
M  V30 END CTAB
M  END
>  <Dataset>  (873) 
ChEMBL_Kinases

>  <Ligand_Instance>  (873) 
nan

>  <PDB_ID>  (873) 
nan

>  <Standardized_SMILES>  (873) 
Cc1n[nH]c2nc(-c3ccc(NS(=O)(=O)c4cc(Cl)ccc4F)cc3)cnc12

>  <Name>  (873) 
nan

>  <Pocket>  (873) 
nan

>  <ATP_Site>  (873) 
nan

>  <Peripheral>  (873) 
nan

>  <Num_H_Atoms_ProtBoundConf>  (873) 
nan

>  <Num_Resolved_Atoms>  (873) 
nan

>  <Num_Not_Resolved_Atoms>  (873) 
nan

$$$$
CHEMBL3092463
     RDKit          3D

  0  0  0  0  0  0  0  0  0  0999 V3000
M  V30 BEGIN CTAB
M  V30 COUNTS 40 43 0 0 0
M  V30 BEGIN ATOM
M  V30 1 N 3.525086 -6.929076 3.133333 0
M  V30 2 C 3.138855 -5.546307 3.270474 0
M  V30 3 N 3.149905 -4.798568 4.388679 0
M  V30 4 N 2.726736 -3.571567 4.128444 0
M  V30 5 C 2.421580 -3.479605 2.810729 0
M  V30 6 N 1.951518 -2.466774 2.022592 0
M  V30 7 C 1.723607 -2.630978 0.706391 0
M  V30 8 C 1.221730 -1.491087 -0.051483 0
M  V30 9 C 1.016112 -0.318181 0.644461 0
M  V30 10 C 0.534161 0.783673 -0.072073 0
M  V30 11 C 0.248745 0.786558 -1.422219 0
M  V30 12 N -0.237287 1.957325 -2.061092 0
M  V30 13 S -0.529476 3.442591 -1.266869 0
M  V30 14 O -1.001489 4.444012 -2.277520 0
M  V30 15 O 0.751718 4.013243 -0.681601 0
M  V30 16 C -1.745433 3.333365 -0.014963 0
M  V30 17 C -1.626575 3.599598 1.333282 0
M  V30 18 C -2.712970 3.451220 2.158159 0
M  V30 19 Cl -2.435529 3.820886 3.856292 0
M  V30 20 C -3.948835 3.042027 1.713209 0
M  V30 21 C -4.056683 2.777607 0.358376 0
M  V30 22 C -2.981456 2.915090 -0.511948 0
M  V30 23 Cl -3.310138 2.532877 -2.203971 0
M  V30 24 C 0.476853 -0.430960 -2.075030 0
M  V30 25 F 0.207224 -0.464657 -3.402356 0
M  V30 26 C 0.951165 -1.538350 -1.402685 0
M  V30 27 C 1.986640 -3.877416 0.178560 0
M  V30 28 N 2.452547 -4.893545 0.942304 0
M  V30 29 C 2.676924 -4.720336 2.254582 0
M  V30 30 H 3.280566 -7.651795 3.853580 0
M  V30 31 H 4.073302 -7.298446 2.307179 0
M  V30 32 H 2.630791 -2.777692 4.804292 0
M  V30 33 H 1.209485 -0.209832 1.716198 0
M  V30 34 H 0.383416 1.685689 0.497505 0
M  V30 35 H -0.412400 1.840456 -3.103399 0
M  V30 36 H -0.632782 3.914083 1.607048 0
M  V30 37 H -4.784581 2.935413 2.391123 0
M  V30 38 H -5.039452 2.452213 0.004644 0
M  V30 39 H 1.109601 -2.450964 -1.951746 0
M  V30 40 H 1.810297 -4.030236 -0.876652 0
M  V30 END ATOM
M  V30 BEGIN BOND
M  V30 1 1 1 2
M  V30 2 2 2 3
M  V30 3 1 3 4
M  V30 4 1 4 5
M  V30 5 2 5 6
M  V30 6 1 6 7
M  V30 7 1 7 8
M  V30 8 2 8 9
M  V30 9 1 9 10
M  V30 10 2 10 11
M  V30 11 1 11 12
M  V30 12 1 12 13
M  V30 13 2 13 14
M  V30 14 2 13 15
M  V30 15 1 13 16
M  V30 16 2 16 17
M  V30 17 1 17 18
M  V30 18 1 18 19
M  V30 19 2 18 20
M  V30 20 1 20 21
M  V30 21 2 21 22
M  V30 22 1 22 23
M  V30 23 1 11 24
M  V30 24 1 24 25
M  V30 25 2 24 26
M  V30 26 2 7 27
M  V30 27 1 27 28
M  V30 28 2 28 29
M  V30 29 1 29 2
M  V30 30 1 29 5
M  V30 31 1 26 8
M  V30 32 1 22 16
M  V30 33 1 1 30
M  V30 34 1 1 31
M  V30 35 1 4 32
M  V30 36 1 9 33
M  V30 37 1 10 34
M  V30 38 1 12 35
M  V30 39 1 17 36
M  V30 40 1 20 37
M  V30 41 1 21 38
M  V30 42 1 26 39
M  V30 43 1 27 40
M  V30 END BOND
M  V30 END CTAB
M  END
>  <Dataset>  (874) 
ChEMBL_Kinases

>  <Ligand_Instance>  (874) 
nan

>  <PDB_ID>  (874) 
nan

>  <Standardized_SMILES>  (874) 
Nc1n[nH]c2nc(-c3ccc(NS(=O)(=O)c4cc(Cl)ccc4Cl)c(F)c3)cnc12

>  <Name>  (874) 
nan

>  <Pocket>  (874) 
nan

>  <ATP_Site>  (874) 
nan

>  <Peripheral>  (874) 
nan

>  <Num_H_Atoms_ProtBoundConf>  (874) 
nan

>  <Num_Resolved_Atoms>  (874) 
nan

>  <Num_Not_Resolved_Atoms>  (874) 
nan

$$$$
CHEMBL3092462
     RDKit          3D

  0  0  0  0  0  0  0  0  0  0999 V3000
M  V30 BEGIN CTAB
M  V30 COUNTS 40 43 0 0 0
M  V30 BEGIN ATOM
M  V30 1 N 4.751447 -6.250038 2.783971 0
M  V30 2 C 3.562761 -5.475071 2.893453 0
M  V30 3 N 2.635093 -5.491808 3.867394 0
M  V30 4 N 1.676590 -4.612806 3.592409 0
M  V30 5 C 1.964554 -3.995569 2.415138 0
M  V30 6 N 1.326348 -3.041709 1.705197 0
M  V30 7 C 1.808890 -2.572692 0.540596 0
M  V30 8 C 1.054093 -1.540416 -0.161712 0
M  V30 9 C -0.113115 -1.105965 0.412983 0
M  V30 10 C -0.821351 -0.128296 -0.258868 0
M  V30 11 C -0.459397 0.451140 -1.457738 0
M  V30 12 N -1.234143 1.451624 -2.101845 0
M  V30 13 S -2.635050 2.132376 -1.408574 0
M  V30 14 O -3.731131 1.109356 -1.211966 0
M  V30 15 O -3.241016 3.155599 -2.340829 0
M  V30 16 C -2.257992 2.951352 0.088020 0
M  V30 17 C -1.046407 3.119576 0.725121 0
M  V30 18 C -0.993850 3.815802 1.912151 0
M  V30 19 Cl 0.617031 3.942264 2.596891 0
M  V30 20 C -2.096536 4.367680 2.518508 0
M  V30 21 C -3.320705 4.196592 1.872765 0
M  V30 22 C -3.403364 3.500112 0.676608 0
M  V30 23 F -4.679859 3.422875 0.174087 0
M  V30 24 C 0.722159 -0.022408 -1.991280 0
M  V30 25 F 1.171191 0.475883 -3.163621 0
M  V30 26 C 1.466723 -0.997758 -1.359999 0
M  V30 27 C 2.997202 -3.121214 0.107767 0
M  V30 28 N 3.643217 -4.074806 0.809340 0
M  V30 29 C 3.157174 -4.536330 1.966821 0
M  V30 30 H 4.907080 -7.247300 3.049811 0
M  V30 31 H 5.649782 -5.870905 2.399407 0
M  V30 32 H 0.837178 -4.418280 4.173979 0
M  V30 33 H -0.474475 -1.503155 1.351039 0
M  V30 34 H -1.745981 0.201075 0.217179 0
M  V30 35 H -0.915332 1.772368 -3.043108 0
M  V30 36 H -0.242344 2.662214 0.186023 0
M  V30 37 H -1.944745 4.894411 3.449333 0
M  V30 38 H -4.175623 4.633302 2.357916 0
M  V30 39 H 2.381404 -1.328503 -1.824262 0
M  V30 40 H 3.405978 -2.769019 -0.814278 0
M  V30 END ATOM
M  V30 BEGIN BOND
M  V30 1 1 1 2
M  V30 2 2 2 3
M  V30 3 1 3 4
M  V30 4 1 4 5
M  V30 5 2 5 6
M  V30 6 1 6 7
M  V30 7 1 7 8
M  V30 8 2 8 9
M  V30 9 1 9 10
M  V30 10 2 10 11
M  V30 11 1 11 12
M  V30 12 1 12 13
M  V30 13 2 13 14
M  V30 14 2 13 15
M  V30 15 1 13 16
M  V30 16 2 16 17
M  V30 17 1 17 18
M  V30 18 1 18 19
M  V30 19 2 18 20
M  V30 20 1 20 21
M  V30 21 2 21 22
M  V30 22 1 22 23
M  V30 23 1 11 24
M  V30 24 1 24 25
M  V30 25 2 24 26
M  V30 26 2 7 27
M  V30 27 1 27 28
M  V30 28 2 28 29
M  V30 29 1 29 2
M  V30 30 1 29 5
M  V30 31 1 26 8
M  V30 32 1 22 16
M  V30 33 1 1 30
M  V30 34 1 1 31
M  V30 35 1 4 32
M  V30 36 1 9 33
M  V30 37 1 10 34
M  V30 38 1 12 35
M  V30 39 1 17 36
M  V30 40 1 20 37
M  V30 41 1 21 38
M  V30 42 1 26 39
M  V30 43 1 27 40
M  V30 END BOND
M  V30 END CTAB
M  END
>  <Dataset>  (875) 
ChEMBL_Kinases

>  <Ligand_Instance>  (875) 
nan

>  <PDB_ID>  (875) 
nan

>  <Standardized_SMILES>  (875) 
Nc1n[nH]c2nc(-c3ccc(NS(=O)(=O)c4cc(Cl)ccc4F)c(F)c3)cnc12

>  <Name>  (875) 
nan

>  <Pocket>  (875) 
nan

>  <ATP_Site>  (875) 
nan

>  <Peripheral>  (875) 
nan

>  <Num_H_Atoms_ProtBoundConf>  (875) 
nan

>  <Num_Resolved_Atoms>  (875) 
nan

>  <Num_Not_Resolved_Atoms>  (875) 
nan

$$$$
CHEMBL3092461
     RDKit          3D

  0  0  0  0  0  0  0  0  0  0999 V3000
M  V30 BEGIN CTAB
M  V30 COUNTS 40 43 0 0 0
M  V30 BEGIN ATOM
M  V30 1 N 3.110307 -7.427250 1.326211 0
M  V30 2 C 2.869062 -6.209864 2.022946 0
M  V30 3 N 2.862878 -5.916199 3.337468 0
M  V30 4 N 2.583407 -4.630972 3.526455 0
M  V30 5 C 2.401294 -4.066496 2.300808 0
M  V30 6 N 2.100890 -2.786749 2.001189 0
M  V30 7 C 1.958743 -2.416499 0.696679 0
M  V30 8 C 1.633511 -1.038631 0.336152 0
M  V30 9 C 1.466809 -0.553579 -0.943647 0
M  V30 10 C 1.159146 0.773867 -1.163603 0
M  V30 11 C 1.003560 1.680433 -0.109187 0
M  V30 12 N 0.692949 3.029322 -0.308272 0
M  V30 13 S -0.497570 3.877669 0.610448 0
M  V30 14 O -0.136244 3.854960 2.086608 0
M  V30 15 O -0.551782 5.320760 0.197510 0
M  V30 16 C -2.074683 3.158898 0.386239 0
M  V30 17 C -2.428812 2.079077 -0.384401 0
M  V30 18 C -3.739351 1.661743 -0.429947 0
M  V30 19 Cl -4.100544 0.277021 -1.438161 0
M  V30 20 C -4.746871 2.284832 0.275234 0
M  V30 21 C -4.378549 3.364480 1.042673 0
M  V30 22 C -3.055198 3.811561 1.108788 0
M  V30 23 Cl -2.792904 5.211702 2.150295 0
M  V30 24 C 1.166301 1.214562 1.178015 0
M  V30 25 C 1.473253 -0.118746 1.353383 0
M  V30 26 C 2.135538 -3.398422 -0.257301 0
M  V30 27 N 2.436867 -4.684455 0.031740 0
M  V30 28 C 2.576859 -5.044092 1.341177 0
M  V30 29 H 2.504057 -8.264705 1.114869 0
M  V30 30 H 3.994583 -7.733812 0.865006 0
M  V30 31 H 2.510300 -4.120111 4.439078 0
M  V30 32 H 1.587497 -1.254589 -1.750996 0
M  V30 33 H 1.032612 1.131882 -2.186172 0
M  V30 34 H 1.272327 3.452563 -1.080720 0
M  V30 35 H -1.592414 1.640471 -0.908390 0
M  V30 36 H -5.760293 1.933808 0.217813 0
M  V30 37 H -5.174747 3.857246 1.600231 0
M  V30 38 H 1.062885 1.850115 2.040812 0
M  V30 39 H 1.597409 -0.463572 2.387317 0
M  V30 40 H 2.040397 -3.186676 -1.308520 0
M  V30 END ATOM
M  V30 BEGIN BOND
M  V30 1 1 1 2
M  V30 2 2 2 3
M  V30 3 1 3 4
M  V30 4 1 4 5
M  V30 5 2 5 6
M  V30 6 1 6 7
M  V30 7 1 7 8
M  V30 8 2 8 9
M  V30 9 1 9 10
M  V30 10 2 10 11
M  V30 11 1 11 12
M  V30 12 1 12 13
M  V30 13 2 13 14
M  V30 14 2 13 15
M  V30 15 1 13 16
M  V30 16 2 16 17
M  V30 17 1 17 18
M  V30 18 1 18 19
M  V30 19 2 18 20
M  V30 20 1 20 21
M  V30 21 2 21 22
M  V30 22 1 22 23
M  V30 23 1 11 24
M  V30 24 2 24 25
M  V30 25 2 7 26
M  V30 26 1 26 27
M  V30 27 2 27 28
M  V30 28 1 28 2
M  V30 29 1 28 5
M  V30 30 1 25 8
M  V30 31 1 22 16
M  V30 32 1 1 29
M  V30 33 1 1 30
M  V30 34 1 4 31
M  V30 35 1 9 32
M  V30 36 1 10 33
M  V30 37 1 12 34
M  V30 38 1 17 35
M  V30 39 1 20 36
M  V30 40 1 21 37
M  V30 41 1 24 38
M  V30 42 1 25 39
M  V30 43 1 26 40
M  V30 END BOND
M  V30 END CTAB
M  END
>  <Dataset>  (876) 
ChEMBL_Kinases

>  <Ligand_Instance>  (876) 
nan

>  <PDB_ID>  (876) 
nan

>  <Standardized_SMILES>  (876) 
Nc1n[nH]c2nc(-c3ccc(NS(=O)(=O)c4cc(Cl)ccc4Cl)cc3)cnc12

>  <Name>  (876) 
nan

>  <Pocket>  (876) 
nan

>  <ATP_Site>  (876) 
nan

>  <Peripheral>  (876) 
nan

>  <Num_H_Atoms_ProtBoundConf>  (876) 
nan

>  <Num_Resolved_Atoms>  (876) 
nan

>  <Num_Not_Resolved_Atoms>  (876) 
nan

$$$$
CHEMBL3092194
     RDKit          3D

  0  0  0  0  0  0  0  0  0  0999 V3000
M  V30 BEGIN CTAB
M  V30 COUNTS 52 55 0 0 0
M  V30 BEGIN ATOM
M  V30 1 C 7.015107 0.670359 1.645120 0
M  V30 2 N 7.222087 -0.752414 1.573377 0
M  V30 3 S 6.070869 -1.683166 2.420021 0
M  V30 4 O 6.465935 -3.115781 2.351279 0
M  V30 5 O 6.109842 -1.237541 3.866322 0
M  V30 6 N 4.464757 -1.505055 1.856733 0
M  V30 7 C 3.651837 -0.344539 1.815614 0
M  V30 8 C 3.708131 0.407872 2.992261 0
M  V30 9 C 2.952408 1.565893 3.064638 0
M  V30 10 C 2.169208 1.965262 2.011605 0
M  V30 11 C 2.089006 1.247265 0.834760 0
M  V30 12 C 1.288118 1.547823 -0.368318 0
M  V30 13 C 0.008425 0.793876 -0.360680 0
M  V30 14 C -1.127959 1.070925 0.369379 0
M  V30 15 C -1.104990 2.254750 1.231988 0
M  V30 16 C -2.218960 0.236871 0.246294 0
M  V30 17 C -3.366889 0.487509 0.964174 0
M  V30 18 C -4.468206 -0.350289 0.843691 0
M  V30 19 C -4.477993 -1.461732 0.013958 0
M  V30 20 O -5.668952 -2.164445 0.035980 0
M  V30 21 C -5.940455 -3.304505 -0.695496 0
M  V30 22 N -7.201809 -3.706544 -0.414396 0
M  V30 23 C -7.754453 -4.812619 -0.990257 0
M  V30 24 C -7.001683 -5.543695 -1.887897 0
M  V30 25 C -5.702405 -5.127569 -2.175986 0
M  V30 26 N -5.226638 -4.029540 -1.570746 0
M  V30 27 C -3.330005 -1.712669 -0.704107 0
M  V30 28 C -2.245852 -0.871846 -0.572877 0
M  V30 29 O -1.151767 -1.146085 -1.282236 0
M  V30 30 C -0.121184 -0.350614 -1.159730 0
M  V30 31 O 0.869876 -0.696583 -1.875506 0
M  V30 32 C 2.846229 0.108115 0.791528 0
M  V30 33 H 7.987115 1.172050 1.366213 0
M  V30 34 H 6.181466 1.014875 0.994183 0
M  V30 35 H 6.823374 0.948640 2.691081 0
M  V30 36 H 7.422751 -1.077731 0.602280 0
M  V30 37 H 3.884612 -2.269725 1.464252 0
M  V30 38 H 4.279232 0.204703 3.885883 0
M  V30 39 H 2.947378 2.199550 3.947701 0
M  V30 40 H 1.581619 2.869405 2.060528 0
M  V30 41 H 1.845193 1.241606 -1.292377 0
M  V30 42 H 1.121394 2.638719 -0.503539 0
M  V30 43 H -0.723093 2.028288 2.228730 0
M  V30 44 H -0.417467 3.020530 0.775029 0
M  V30 45 H -2.089837 2.809257 1.266210 0
M  V30 46 H -3.407105 1.327171 1.615566 0
M  V30 47 H -5.338491 -0.067460 1.457371 0
M  V30 48 H -8.757359 -5.164484 -0.790834 0
M  V30 49 H -7.340355 -6.446354 -2.409462 0
M  V30 50 H -5.007749 -5.609140 -2.859351 0
M  V30 51 H -3.371286 -2.578003 -1.335515 0
M  V30 52 H 2.921315 -0.597732 -0.050750 0
M  V30 END ATOM
M  V30 BEGIN BOND
M  V30 1 1 1 2
M  V30 2 1 2 3
M  V30 3 2 3 4
M  V30 4 2 3 5
M  V30 5 1 3 6
M  V30 6 1 6 7
M  V30 7 2 7 8
M  V30 8 1 8 9
M  V30 9 2 9 10
M  V30 10 1 10 11
M  V30 11 1 11 12
M  V30 12 1 12 13
M  V30 13 2 13 14
M  V30 14 1 14 15
M  V30 15 1 14 16
M  V30 16 2 16 17
M  V30 17 1 17 18
M  V30 18 2 18 19
M  V30 19 1 19 20
M  V30 20 1 20 21
M  V30 21 2 21 22
M  V30 22 1 22 23
M  V30 23 2 23 24
M  V30 24 1 24 25
M  V30 25 2 25 26
M  V30 26 1 19 27
M  V30 27 2 27 28
M  V30 28 1 28 29
M  V30 29 1 29 30
M  V30 30 2 30 31
M  V30 31 2 11 32
M  V30 32 1 32 7
M  V30 33 1 30 13
M  V30 34 1 28 16
M  V30 35 1 26 21
M  V30 36 1 1 33
M  V30 37 1 1 34
M  V30 38 1 1 35
M  V30 39 1 2 36
M  V30 40 1 6 37
M  V30 41 1 8 38
M  V30 42 1 9 39
M  V30 43 1 10 40
M  V30 44 1 12 41
M  V30 45 1 12 42
M  V30 46 1 15 43
M  V30 47 1 15 44
M  V30 48 1 15 45
M  V30 49 1 17 46
M  V30 50 1 18 47
M  V30 51 1 23 48
M  V30 52 1 24 49
M  V30 53 1 25 50
M  V30 54 1 27 51
M  V30 55 1 32 52
M  V30 END BOND
M  V30 END CTAB
M  END
>  <Dataset>  (877) 
ChEMBL_Kinases

>  <Ligand_Instance>  (877) 
nan

>  <PDB_ID>  (877) 
nan

>  <Standardized_SMILES>  (877) 
CNS(=O)(=O)Nc1cccc(Cc2c(C)c3ccc(Oc4ncccn4)cc3oc2=O)c1

>  <Name>  (877) 
nan

>  <Pocket>  (877) 
nan

>  <ATP_Site>  (877) 
nan

>  <Peripheral>  (877) 
nan

>  <Num_H_Atoms_ProtBoundConf>  (877) 
nan

>  <Num_Resolved_Atoms>  (877) 
nan

>  <Num_Not_Resolved_Atoms>  (877) 
nan

$$$$
CHEMBL3092192
     RDKit          3D

  0  0  0  0  0  0  0  0  0  0999 V3000
M  V30 BEGIN CTAB
M  V30 COUNTS 54 56 0 0 0
M  V30 BEGIN ATOM
M  V30 1 C 5.518330 -0.296731 4.920369 0
M  V30 2 N 6.460202 -1.085959 4.208149 0
M  V30 3 S 5.811840 -1.699264 2.769135 0
M  V30 4 O 6.877927 -2.614877 2.175837 0
M  V30 5 O 4.659223 -2.664408 3.077731 0
M  V30 6 N 5.318162 -0.576249 1.602647 0
M  V30 7 C 4.405755 0.488338 1.403120 0
M  V30 8 C 4.247100 1.594411 2.207542 0
M  V30 9 C 3.345087 2.604199 1.959651 0
M  V30 10 C 2.571928 2.469059 0.832288 0
M  V30 11 C 2.630089 1.433339 -0.039205 0
M  V30 12 C 1.826077 1.214920 -1.269441 0
M  V30 13 C 0.643671 0.356850 -1.014103 0
M  V30 14 C -0.559176 0.691933 -0.428035 0
M  V30 15 C -0.706805 2.106156 -0.031544 0
M  V30 16 C -1.518120 -0.264040 -0.267245 0
M  V30 17 C -2.715040 0.065979 0.317964 0
M  V30 18 C -3.758686 -0.813978 0.534311 0
M  V30 19 F -4.929589 -0.456699 1.115388 0
M  V30 20 C -3.586648 -2.121837 0.133199 0
M  V30 21 O -4.617508 -3.028197 0.337774 0
M  V30 22 C -5.612669 -3.212798 -0.605831 0
M  V30 23 O -4.840520 -2.334294 -1.088020 0
M  V30 24 N -6.778930 -3.727862 -1.218740 0
M  V30 25 C -7.670943 -4.733485 -0.674981 0
M  V30 26 C -7.072722 -3.164147 -2.520735 0
M  V30 27 C -2.396322 -2.502722 -0.461829 0
M  V30 28 C -1.387064 -1.582886 -0.653645 0
M  V30 29 O -0.240091 -1.911458 -1.215953 0
M  V30 30 C 0.690903 -1.000057 -1.375517 0
M  V30 31 O 1.715380 -1.521285 -1.935104 0
M  V30 32 C 3.563796 0.474088 0.296029 0
M  V30 33 H 4.513691 -0.284854 4.404837 0
M  V30 34 H 5.277824 -0.758706 5.921535 0
M  V30 35 H 5.819203 0.745037 5.080836 0
M  V30 36 H 7.423251 -0.751104 4.158092 0
M  V30 37 H 5.851562 -0.639232 0.676513 0
M  V30 38 H 4.851494 1.703634 3.072367 0
M  V30 39 H 3.247266 3.458641 2.612991 0
M  V30 40 H 1.863678 3.254411 0.623906 0
M  V30 41 H 1.559285 2.165167 -1.769127 0
M  V30 42 H 2.472787 0.679747 -1.992290 0
M  V30 43 H -0.379313 2.205911 1.018241 0
M  V30 44 H -1.751223 2.467761 -0.170198 0
M  V30 45 H -0.078896 2.787364 -0.640928 0
M  V30 46 H -2.917083 1.071350 0.658297 0
M  V30 47 H -8.534064 -4.203329 -0.212627 0
M  V30 48 H -8.015493 -5.415872 -1.468450 0
M  V30 49 H -7.156569 -5.261727 0.168144 0
M  V30 50 H -6.215187 -2.665485 -2.999311 0
M  V30 51 H -7.394524 -3.957866 -3.238075 0
M  V30 52 H -7.870139 -2.372706 -2.434771 0
M  V30 53 H -2.243000 -3.535772 -0.786644 0
M  V30 54 H 3.671770 -0.401863 -0.365844 0
M  V30 END ATOM
M  V30 BEGIN BOND
M  V30 1 1 1 2
M  V30 2 1 2 3
M  V30 3 2 3 4
M  V30 4 2 3 5
M  V30 5 1 3 6
M  V30 6 1 6 7
M  V30 7 2 7 8
M  V30 8 1 8 9
M  V30 9 2 9 10
M  V30 10 1 10 11
M  V30 11 1 11 12
M  V30 12 1 12 13
M  V30 13 2 13 14
M  V30 14 1 14 15
M  V30 15 1 14 16
M  V30 16 2 16 17
M  V30 17 1 17 18
M  V30 18 1 18 19
M  V30 19 2 18 20
M  V30 20 1 20 21
M  V30 21 1 21 22
M  V30 22 2 22 23
M  V30 23 1 22 24
M  V30 24 1 24 25
M  V30 25 1 24 26
M  V30 26 1 20 27
M  V30 27 2 27 28
M  V30 28 1 28 29
M  V30 29 1 29 30
M  V30 30 2 30 31
M  V30 31 2 11 32
M  V30 32 1 32 7
M  V30 33 1 30 13
M  V30 34 1 28 16
M  V30 35 1 1 33
M  V30 36 1 1 34
M  V30 37 1 1 35
M  V30 38 1 2 36
M  V30 39 1 6 37
M  V30 40 1 8 38
M  V30 41 1 9 39
M  V30 42 1 10 40
M  V30 43 1 12 41
M  V30 44 1 12 42
M  V30 45 1 15 43
M  V30 46 1 15 44
M  V30 47 1 15 45
M  V30 48 1 17 46
M  V30 49 1 25 47
M  V30 50 1 25 48
M  V30 51 1 25 49
M  V30 52 1 26 50
M  V30 53 1 26 51
M  V30 54 1 26 52
M  V30 55 1 27 53
M  V30 56 1 32 54
M  V30 END BOND
M  V30 END CTAB
M  END
>  <Dataset>  (878) 
ChEMBL_Kinases

>  <Ligand_Instance>  (878) 
nan

>  <PDB_ID>  (878) 
nan

>  <Standardized_SMILES>  (878) 
CNS(=O)(=O)Nc1cccc(Cc2c(C)c3cc(F)c(OC(=O)N(C)C)cc3oc2=O)c1

>  <Name>  (878) 
nan

>  <Pocket>  (878) 
nan

>  <ATP_Site>  (878) 
nan

>  <Peripheral>  (878) 
nan

>  <Num_H_Atoms_ProtBoundConf>  (878) 
nan

>  <Num_Resolved_Atoms>  (878) 
nan

>  <Num_Not_Resolved_Atoms>  (878) 
nan

$$$$
CHEMBL3092039
     RDKit          3D

  0  0  0  0  0  0  0  0  0  0999 V3000
M  V30 BEGIN CTAB
M  V30 COUNTS 70 74 0 0 0
M  V30 BEGIN ATOM
M  V30 1 C 4.916290 -1.938068 3.208173 0
M  V30 2 O 3.763524 -2.526101 2.591560 0
M  V30 3 C 2.725990 -1.718608 2.152835 0
M  V30 4 C 2.812990 -0.357209 2.313595 0
M  V30 5 C 1.837321 0.492361 1.908878 0
M  V30 6 N 2.025395 1.873627 2.117597 0
M  V30 7 C 3.266870 2.356697 2.694198 0
M  V30 8 C 3.303126 3.862671 2.577660 0
M  V30 9 N 2.969044 4.330065 1.269234 0
M  V30 10 S 2.914286 6.028395 1.138946 0
M  V30 11 C 1.706151 6.776914 2.170438 0
M  V30 12 O 4.243347 6.678388 1.388656 0
M  V30 13 O 2.569611 6.355213 -0.303426 0
M  V30 14 C 1.750893 3.778156 0.733030 0
M  V30 15 C 1.102423 2.955143 1.825756 0
M  V30 16 C 0.729323 -0.045516 1.318868 0
M  V30 17 C 0.656722 -1.413518 1.164632 0
M  V30 18 C 1.614069 -2.325859 1.555045 0
M  V30 19 N 1.513028 -3.724003 1.387131 0
M  V30 20 C 0.478288 -4.497326 0.800205 0
M  V30 21 N 0.656929 -5.825899 0.797194 0
M  V30 22 C -0.204996 -6.714989 0.288198 0
M  V30 23 C -1.348863 -6.187401 -0.265058 0
M  V30 24 C -2.235587 -7.105987 -0.790483 0
M  V30 25 C -3.401652 -6.625946 -1.360030 0
M  V30 26 C -3.603982 -5.259156 -1.366493 0
M  V30 27 C -2.708144 -4.353511 -0.837537 0
M  V30 28 N -2.998166 -2.949146 -0.898491 0
M  V30 29 C -4.151973 -2.307852 -1.501579 0
M  V30 30 C -4.084849 -0.841310 -1.185551 0
M  V30 31 C -4.705547 0.051199 -2.220907 0
M  V30 32 C -3.806487 -0.175935 -3.446482 0
M  V30 33 C -4.148563 -1.540256 -3.942025 0
M  V30 34 C -4.285213 -2.622518 -2.954464 0
M  V30 35 C -1.542616 -4.822814 -0.267271 0
M  V30 36 N -0.636860 -3.988521 0.260593 0
M  V30 37 H 5.553224 -2.717670 3.669302 0
M  V30 38 H 4.592430 -1.295518 4.062942 0
M  V30 39 H 5.450114 -1.274658 2.497130 0
M  V30 40 H 3.709581 0.024064 2.787587 0
M  V30 41 H 3.287894 2.082894 3.760251 0
M  V30 42 H 4.152019 1.915915 2.190682 0
M  V30 43 H 2.755131 4.343339 3.408069 0
M  V30 44 H 4.380988 4.154427 2.753943 0
M  V30 45 H 1.409284 7.758184 1.716542 0
M  V30 46 H 0.774962 6.194246 2.286378 0
M  V30 47 H 2.094219 7.030704 3.174086 0
M  V30 48 H 1.067731 4.553217 0.334462 0
M  V30 49 H 2.034885 3.121681 -0.112271 0
M  V30 50 H 1.003325 3.533817 2.770779 0
M  V30 51 H 0.103032 2.577359 1.522446 0
M  V30 52 H -0.057244 0.619976 0.990456 0
M  V30 53 H -0.251114 -1.744479 0.691368 0
M  V30 54 H 2.364368 -4.232560 1.773645 0
M  V30 55 H -0.024028 -7.779987 0.305388 0
M  V30 56 H -2.047431 -8.177867 -0.769953 0
M  V30 57 H -4.093319 -7.350697 -1.770712 0
M  V30 58 H -4.544783 -4.994895 -1.827307 0
M  V30 59 H -2.260300 -2.334730 -0.438627 0
M  V30 60 H -5.041843 -2.707185 -0.971316 0
M  V30 61 H -4.530621 -0.663011 -0.162294 0
M  V30 62 H -3.014706 -0.544138 -1.086074 0
M  V30 63 H -5.749040 -0.211758 -2.405978 0
M  V30 64 H -4.565515 1.092066 -1.868802 0
M  V30 65 H -2.751332 -0.139789 -3.098008 0
M  V30 66 H -4.030703 0.564253 -4.220308 0
M  V30 67 H -3.383098 -1.760891 -4.743097 0
M  V30 68 H -5.087159 -1.399279 -4.559795 0
M  V30 69 H -3.476649 -3.377168 -3.189763 0
M  V30 70 H -5.234651 -3.165563 -3.175267 0
M  V30 END ATOM
M  V30 BEGIN BOND
M  V30 1 1 1 2
M  V30 2 1 2 3
M  V30 3 2 3 4
M  V30 4 1 4 5
M  V30 5 1 5 6
M  V30 6 1 6 7
M  V30 7 1 7 8
M  V30 8 1 8 9
M  V30 9 1 9 10
M  V30 10 1 10 11
M  V30 11 2 10 12
M  V30 12 2 10 13
M  V30 13 1 9 14
M  V30 14 1 14 15
M  V30 15 2 5 16
M  V30 16 1 16 17
M  V30 17 2 17 18
M  V30 18 1 18 19
M  V30 19 1 19 20
M  V30 20 2 20 21
M  V30 21 1 21 22
M  V30 22 2 22 23
M  V30 23 1 23 24
M  V30 24 2 24 25
M  V30 25 1 25 26
M  V30 26 2 26 27
M  V30 27 1 27 28
M  V30 28 1 28 29
M  V30 29 1 29 30
M  V30 30 1 30 31
M  V30 31 1 31 32
M  V30 32 1 32 33
M  V30 33 1 33 34
M  V30 34 1 27 35
M  V30 35 2 35 36
M  V30 36 1 18 3
M  V30 37 1 36 20
M  V30 38 1 15 6
M  V30 39 1 35 23
M  V30 40 1 34 29
M  V30 41 1 1 37
M  V30 42 1 1 38
M  V30 43 1 1 39
M  V30 44 1 4 40
M  V30 45 1 7 41
M  V30 46 1 7 42
M  V30 47 1 8 43
M  V30 48 1 8 44
M  V30 49 1 11 45
M  V30 50 1 11 46
M  V30 51 1 11 47
M  V30 52 1 14 48
M  V30 53 1 14 49
M  V30 54 1 15 50
M  V30 55 1 15 51
M  V30 56 1 16 52
M  V30 57 1 17 53
M  V30 58 1 19 54
M  V30 59 1 22 55
M  V30 60 1 24 56
M  V30 61 1 25 57
M  V30 62 1 26 58
M  V30 63 1 28 59
M  V30 64 1 29 60
M  V30 65 1 30 61
M  V30 66 1 30 62
M  V30 67 1 31 63
M  V30 68 1 31 64
M  V30 69 1 32 65
M  V30 70 1 32 66
M  V30 71 1 33 67
M  V30 72 1 33 68
M  V30 73 1 34 69
M  V30 74 1 34 70
M  V30 END BOND
M  V30 END CTAB
M  END
>  <Dataset>  (879) 
ChEMBL_Kinases

>  <Ligand_Instance>  (879) 
nan

>  <PDB_ID>  (879) 
nan

>  <Standardized_SMILES>  (879) 
COc1cc(N2CCN(S(C)(=O)=O)CC2)ccc1Nc1ncc2cccc(NC3CCCCC3)c2n1

>  <Name>  (879) 
nan

>  <Pocket>  (879) 
nan

>  <ATP_Site>  (879) 
nan

>  <Peripheral>  (879) 
nan

>  <Num_H_Atoms_ProtBoundConf>  (879) 
nan

>  <Num_Resolved_Atoms>  (879) 
nan

>  <Num_Not_Resolved_Atoms>  (879) 
nan

$$$$
CHEMBL3092038
     RDKit          3D

  0  0  0  0  0  0  0  0  0  0999 V3000
M  V30 BEGIN CTAB
M  V30 COUNTS 61 65 0 0 0
M  V30 BEGIN ATOM
M  V30 1 C 2.831609 -2.033832 2.363722 0
M  V30 2 O 1.522244 -2.022431 1.856077 0
M  V30 3 C 0.947618 -0.824312 1.406075 0
M  V30 4 C 1.672063 0.345614 1.463311 0
M  V30 5 C 1.148370 1.541924 1.033637 0
M  V30 6 N 1.893874 2.743662 1.095545 0
M  V30 7 C 3.227531 2.938198 1.630556 0
M  V30 8 C 4.236067 3.189961 0.529461 0
M  V30 9 N 3.569113 3.837957 -0.582501 0
M  V30 10 S 4.767758 4.742319 -1.461592 0
M  V30 11 C 6.025515 3.706142 -2.115924 0
M  V30 12 O 4.053809 5.469949 -2.578819 0
M  V30 13 O 5.430206 5.736758 -0.536553 0
M  V30 14 C 2.639665 4.804849 0.011258 0
M  V30 15 C 1.469742 4.028025 0.631750 0
M  V30 16 C -0.130578 1.553513 0.537561 0
M  V30 17 C -0.829985 0.364994 0.493288 0
M  V30 18 C -0.360684 -0.861622 0.907810 0
M  V30 19 N -1.076192 -2.080426 0.864328 0
M  V30 20 C -2.393642 -2.306212 0.389833 0
M  V30 21 N -3.228865 -1.394708 -0.122177 0
M  V30 22 C -4.454313 -1.584016 -0.567923 0
M  V30 23 C -4.939106 -2.851116 -0.505941 0
M  V30 24 C -6.208850 -3.149889 -0.948439 0
M  V30 25 C -6.726465 -4.417767 -0.899872 0
M  V30 26 C -5.877285 -5.385808 -0.370777 0
M  V30 27 C -4.600281 -5.149694 0.086839 0
M  V30 28 C -3.769256 -6.216035 0.632093 0
M  V30 29 C -3.553710 -7.479640 0.131834 0
M  V30 30 C -2.729800 -8.368183 0.785523 0
M  V30 31 C -2.130169 -7.941377 1.959915 0
M  V30 32 N -2.333970 -6.707597 2.458035 0
M  V30 33 C -3.132539 -5.850668 1.821814 0
M  V30 34 C -4.139919 -3.834451 0.006202 0
M  V30 35 N -2.905531 -3.538609 0.434249 0
M  V30 36 H 2.935748 -1.297281 3.193390 0
M  V30 37 H 3.510290 -1.708178 1.555042 0
M  V30 38 H 3.070983 -3.046839 2.731585 0
M  V30 39 H 2.671853 0.257129 1.864949 0
M  V30 40 H 3.290434 3.769896 2.368481 0
M  V30 41 H 3.616756 2.014212 2.153934 0
M  V30 42 H 5.054922 3.877484 0.850943 0
M  V30 43 H 4.659064 2.237725 0.152577 0
M  V30 44 H 5.725997 2.686634 -2.355115 0
M  V30 45 H 6.927279 3.643310 -1.443644 0
M  V30 46 H 6.424023 4.159408 -3.069394 0
M  V30 47 H 2.250204 5.508422 -0.772277 0
M  V30 48 H 3.208535 5.349414 0.787906 0
M  V30 49 H 1.187582 4.609030 1.558835 0
M  V30 50 H 0.619301 4.062609 -0.037563 0
M  V30 51 H -0.589997 2.467935 0.187172 0
M  V30 52 H -1.813758 0.433580 0.100260 0
M  V30 53 H -0.559069 -2.928235 1.233487 0
M  V30 54 H -5.017305 -0.754532 -0.955345 0
M  V30 55 H -6.819705 -2.336578 -1.352177 0
M  V30 56 H -7.716271 -4.687240 -1.237815 0
M  V30 57 H -6.233004 -6.404034 -0.307748 0
M  V30 58 H -4.089804 -7.679898 -0.800951 0
M  V30 59 H -2.595825 -9.354047 0.344125 0
M  V30 60 H -1.473664 -8.647235 2.481965 0
M  V30 61 H -3.186431 -4.898774 2.362610 0
M  V30 END ATOM
M  V30 BEGIN BOND
M  V30 1 1 1 2
M  V30 2 1 2 3
M  V30 3 2 3 4
M  V30 4 1 4 5
M  V30 5 1 5 6
M  V30 6 1 6 7
M  V30 7 1 7 8
M  V30 8 1 8 9
M  V30 9 1 9 10
M  V30 10 1 10 11
M  V30 11 2 10 12
M  V30 12 2 10 13
M  V30 13 1 9 14
M  V30 14 1 14 15
M  V30 15 2 5 16
M  V30 16 1 16 17
M  V30 17 2 17 18
M  V30 18 1 18 19
M  V30 19 1 19 20
M  V30 20 2 20 21
M  V30 21 1 21 22
M  V30 22 2 22 23
M  V30 23 1 23 24
M  V30 24 2 24 25
M  V30 25 1 25 26
M  V30 26 2 26 27
M  V30 27 1 27 28
M  V30 28 2 28 29
M  V30 29 1 29 30
M  V30 30 2 30 31
M  V30 31 1 31 32
M  V30 32 2 32 33
M  V30 33 1 27 34
M  V30 34 2 34 35
M  V30 35 1 18 3
M  V30 36 1 35 20
M  V30 37 1 15 6
M  V30 38 1 34 23
M  V30 39 1 33 28
M  V30 40 1 1 36
M  V30 41 1 1 37
M  V30 42 1 1 38
M  V30 43 1 4 39
M  V30 44 1 7 40
M  V30 45 1 7 41
M  V30 46 1 8 42
M  V30 47 1 8 43
M  V30 48 1 11 44
M  V30 49 1 11 45
M  V30 50 1 11 46
M  V30 51 1 14 47
M  V30 52 1 14 48
M  V30 53 1 15 49
M  V30 54 1 15 50
M  V30 55 1 16 51
M  V30 56 1 17 52
M  V30 57 1 19 53
M  V30 58 1 22 54
M  V30 59 1 24 55
M  V30 60 1 25 56
M  V30 61 1 26 57
M  V30 62 1 29 58
M  V30 63 1 30 59
M  V30 64 1 31 60
M  V30 65 1 33 61
M  V30 END BOND
M  V30 END CTAB
M  END
>  <Dataset>  (880) 
ChEMBL_Kinases

>  <Ligand_Instance>  (880) 
nan

>  <PDB_ID>  (880) 
nan

>  <Standardized_SMILES>  (880) 
COc1cc(N2CCN(S(C)(=O)=O)CC2)ccc1Nc1ncc2cccc(-c3cccnc3)c2n1

>  <Name>  (880) 
nan

>  <Pocket>  (880) 
nan

>  <ATP_Site>  (880) 
nan

>  <Peripheral>  (880) 
nan

>  <Num_H_Atoms_ProtBoundConf>  (880) 
nan

>  <Num_Resolved_Atoms>  (880) 
nan

>  <Num_Not_Resolved_Atoms>  (880) 
nan

$$$$
CHEMBL3092037
     RDKit          3D

  0  0  0  0  0  0  0  0  0  0999 V3000
M  V30 BEGIN CTAB
M  V30 COUNTS 62 66 0 0 0
M  V30 BEGIN ATOM
M  V30 1 C 2.283194 -1.625750 3.688169 0
M  V30 2 O 1.238340 -1.552097 2.801314 0
M  V30 3 C 0.915969 -0.521801 1.933622 0
M  V30 4 C 1.743351 0.598589 1.932579 0
M  V30 5 C 1.481365 1.679888 1.083812 0
M  V30 6 N 2.320159 2.827890 1.040103 0
M  V30 7 C 3.724577 2.906164 1.411613 0
M  V30 8 C 4.629875 3.156514 0.218276 0
M  V30 9 N 3.856345 3.841681 -0.778474 0
M  V30 10 S 4.697120 4.322312 -2.168437 0
M  V30 11 C 5.378952 2.960809 -3.064719 0
M  V30 12 O 3.781611 5.104159 -3.079002 0
M  V30 13 O 5.862094 5.251938 -1.866257 0
M  V30 14 C 3.062039 4.845384 -0.148998 0
M  V30 15 C 1.971470 4.159374 0.652343 0
M  V30 16 C 0.380396 1.589320 0.258430 0
M  V30 17 C -0.399185 0.459063 0.303588 0
M  V30 18 C -0.187737 -0.631232 1.115792 0
M  V30 19 N -1.008897 -1.785653 1.153901 0
M  V30 20 C -2.140047 -2.059406 0.346961 0
M  V30 21 N -2.594766 -1.297993 -0.648308 0
M  V30 22 C -3.651255 -1.508066 -1.433869 0
M  V30 23 C -4.375908 -2.660089 -1.196594 0
M  V30 24 C -5.470350 -2.906065 -1.991873 0
M  V30 25 C -6.210288 -4.034766 -1.789217 0
M  V30 26 C -5.798416 -4.881432 -0.766725 0
M  V30 27 C -4.690179 -4.620624 0.033172 0
M  V30 28 C -4.333586 -5.561367 1.096259 0
M  V30 29 C -4.285011 -6.918177 0.876104 0
M  V30 30 C -3.956174 -7.832346 1.878228 0
M  V30 31 C -3.674629 -7.278388 3.134934 0
M  V30 32 C -3.721424 -5.904111 3.366185 0
M  V30 33 C -4.049618 -5.041708 2.351650 0
M  V30 34 C -3.951165 -3.481031 -0.181647 0
M  V30 35 N -2.866971 -3.159489 0.542584 0
M  V30 36 H 2.982059 -0.772591 3.692890 0
M  V30 37 H 2.865464 -2.573711 3.477754 0
M  V30 38 H 1.973626 -1.755708 4.753297 0
M  V30 39 H 2.604425 0.756185 2.534679 0
M  V30 40 H 3.913481 3.634194 2.212728 0
M  V30 41 H 4.059937 1.912958 1.810267 0
M  V30 42 H 5.033170 2.201355 -0.187034 0
M  V30 43 H 5.527795 3.757225 0.522141 0
M  V30 44 H 4.840173 2.007389 -2.854844 0
M  V30 45 H 6.444679 2.774375 -2.881374 0
M  V30 46 H 5.229064 3.135332 -4.171767 0
M  V30 47 H 3.692832 5.459524 0.524390 0
M  V30 48 H 2.647498 5.562707 -0.903211 0
M  V30 49 H 1.735041 4.778476 1.559068 0
M  V30 50 H 1.063566 4.168137 0.028995 0
M  V30 51 H 0.158873 2.423027 -0.411475 0
M  V30 52 H -1.217655 0.496422 -0.371190 0
M  V30 53 H -0.742277 -2.516616 1.864608 0
M  V30 54 H -3.882686 -0.769817 -2.213722 0
M  V30 55 H -5.765025 -2.221339 -2.783114 0
M  V30 56 H -7.076618 -4.255560 -2.401677 0
M  V30 57 H -6.423789 -5.765079 -0.644091 0
M  V30 58 H -4.510172 -7.340367 -0.116182 0
M  V30 59 H -3.917656 -8.892945 1.699221 0
M  V30 60 H -3.425224 -7.958914 3.922109 0
M  V30 61 H -3.492208 -5.528310 4.376732 0
M  V30 62 H -4.080807 -3.980083 2.539014 0
M  V30 END ATOM
M  V30 BEGIN BOND
M  V30 1 1 1 2
M  V30 2 1 2 3
M  V30 3 2 3 4
M  V30 4 1 4 5
M  V30 5 1 5 6
M  V30 6 1 6 7
M  V30 7 1 7 8
M  V30 8 1 8 9
M  V30 9 1 9 10
M  V30 10 1 10 11
M  V30 11 2 10 12
M  V30 12 2 10 13
M  V30 13 1 9 14
M  V30 14 1 14 15
M  V30 15 2 5 16
M  V30 16 1 16 17
M  V30 17 2 17 18
M  V30 18 1 18 19
M  V30 19 1 19 20
M  V30 20 2 20 21
M  V30 21 1 21 22
M  V30 22 2 22 23
M  V30 23 1 23 24
M  V30 24 2 24 25
M  V30 25 1 25 26
M  V30 26 2 26 27
M  V30 27 1 27 28
M  V30 28 2 28 29
M  V30 29 1 29 30
M  V30 30 2 30 31
M  V30 31 1 31 32
M  V30 32 2 32 33
M  V30 33 1 27 34
M  V30 34 2 34 35
M  V30 35 1 18 3
M  V30 36 1 35 20
M  V30 37 1 15 6
M  V30 38 1 34 23
M  V30 39 1 33 28
M  V30 40 1 1 36
M  V30 41 1 1 37
M  V30 42 1 1 38
M  V30 43 1 4 39
M  V30 44 1 7 40
M  V30 45 1 7 41
M  V30 46 1 8 42
M  V30 47 1 8 43
M  V30 48 1 11 44
M  V30 49 1 11 45
M  V30 50 1 11 46
M  V30 51 1 14 47
M  V30 52 1 14 48
M  V30 53 1 15 49
M  V30 54 1 15 50
M  V30 55 1 16 51
M  V30 56 1 17 52
M  V30 57 1 19 53
M  V30 58 1 22 54
M  V30 59 1 24 55
M  V30 60 1 25 56
M  V30 61 1 26 57
M  V30 62 1 29 58
M  V30 63 1 30 59
M  V30 64 1 31 60
M  V30 65 1 32 61
M  V30 66 1 33 62
M  V30 END BOND
M  V30 END CTAB
M  END
>  <Dataset>  (881) 
ChEMBL_Kinases

>  <Ligand_Instance>  (881) 
nan

>  <PDB_ID>  (881) 
nan

>  <Standardized_SMILES>  (881) 
COc1cc(N2CCN(S(C)(=O)=O)CC2)ccc1Nc1ncc2cccc(-c3ccccc3)c2n1

>  <Name>  (881) 
nan

>  <Pocket>  (881) 
nan

>  <ATP_Site>  (881) 
nan

>  <Peripheral>  (881) 
nan

>  <Num_H_Atoms_ProtBoundConf>  (881) 
nan

>  <Num_Resolved_Atoms>  (881) 
nan

>  <Num_Not_Resolved_Atoms>  (881) 
nan

$$$$
CHEMBL3092036
     RDKit          3D

  0  0  0  0  0  0  0  0  0  0999 V3000
M  V30 BEGIN CTAB
M  V30 COUNTS 63 67 0 0 0
M  V30 BEGIN ATOM
M  V30 1 C 1.262951 4.766906 3.315620 0
M  V30 2 O 0.315971 3.947044 2.668911 0
M  V30 3 C 0.705313 2.676212 2.275046 0
M  V30 4 C 1.983471 2.214713 2.504787 0
M  V30 5 C 2.394962 0.959798 2.124367 0
M  V30 6 N 3.721597 0.523327 2.377268 0
M  V30 7 C 4.760563 1.273884 3.054345 0
M  V30 8 C 5.753164 1.679322 1.959465 0
M  V30 9 O 6.008755 0.603532 1.128899 0
M  V30 10 C 5.729179 -0.621686 1.714785 0
M  V30 11 C 4.232804 -0.787571 1.968641 0
M  V30 12 C 1.494922 0.134752 1.490570 0
M  V30 13 C 0.214140 0.637835 1.277073 0
M  V30 14 C -0.237393 1.884269 1.640705 0
M  V30 15 N -1.566330 2.313748 1.380245 0
M  V30 16 C -2.656766 1.656645 0.750222 0
M  V30 17 N -3.809246 2.336609 0.647585 0
M  V30 18 C -4.897202 1.815537 0.071839 0
M  V30 19 C -4.818585 0.538330 -0.428001 0
M  V30 20 C -5.963146 0.048777 -1.009342 0
M  V30 21 C -5.951483 -1.226651 -1.530538 0
M  V30 22 C -4.772233 -1.957069 -1.439873 0
M  V30 23 C -3.620862 -1.479198 -0.861256 0
M  V30 24 N -2.427518 -2.226571 -0.785567 0
M  V30 25 C -2.125591 -3.526744 -1.275496 0
M  V30 26 C -2.078950 -3.680377 -2.761548 0
M  V30 27 C -2.158413 -5.152833 -3.100897 0
M  V30 28 C -1.113358 -5.955857 -2.361523 0
M  V30 29 C -1.055417 -5.671279 -0.890597 0
M  V30 30 C -0.901393 -4.174893 -0.710186 0
M  V30 31 C -3.661384 -0.201885 -0.348632 0
M  V30 32 N -2.636528 0.426579 0.250361 0
M  V30 33 H 0.777533 5.748835 3.540770 0
M  V30 34 H 1.625778 4.299585 4.235377 0
M  V30 35 H 2.099483 4.993547 2.616338 0
M  V30 36 H 2.641977 2.915171 3.007040 0
M  V30 37 H 4.416501 2.148901 3.607987 0
M  V30 38 H 5.297289 0.632832 3.784138 0
M  V30 39 H 5.224778 2.452758 1.354306 0
M  V30 40 H 6.670492 2.131236 2.384723 0
M  V30 41 H 6.338213 -0.824315 2.618390 0
M  V30 42 H 6.010159 -1.408135 0.987509 0
M  V30 43 H 3.799249 -1.156676 1.040437 0
M  V30 44 H 4.156269 -1.505288 2.828014 0
M  V30 45 H 1.803108 -0.846481 1.190600 0
M  V30 46 H -0.416670 -0.072072 0.779350 0
M  V30 47 H -1.733023 3.294868 1.731004 0
M  V30 48 H -5.776819 2.455914 0.041900 0
M  V30 49 H -6.869746 0.641952 -1.066250 0
M  V30 50 H -6.850694 -1.618622 -1.989849 0
M  V30 51 H -4.845133 -2.930073 -1.854770 0
M  V30 52 H -1.598067 -1.815114 -0.306184 0
M  V30 53 H -2.979649 -4.205647 -0.945101 0
M  V30 54 H -2.956905 -3.197764 -3.212733 0
M  V30 55 H -1.169822 -3.236709 -3.219006 0
M  V30 56 H -1.956723 -5.264424 -4.185145 0
M  V30 57 H -3.165365 -5.556376 -2.900001 0
M  V30 58 H -0.107558 -5.825350 -2.787350 0
M  V30 59 H -1.388388 -7.026445 -2.473367 0
M  V30 60 H -0.134850 -6.173722 -0.505071 0
M  V30 61 H -1.958292 -5.968502 -0.335429 0
M  V30 62 H -0.042386 -3.893360 -1.384085 0
M  V30 63 H -0.692193 -3.898297 0.339473 0
M  V30 END ATOM
M  V30 BEGIN BOND
M  V30 1 1 1 2
M  V30 2 1 2 3
M  V30 3 2 3 4
M  V30 4 1 4 5
M  V30 5 1 5 6
M  V30 6 1 6 7
M  V30 7 1 7 8
M  V30 8 1 8 9
M  V30 9 1 9 10
M  V30 10 1 10 11
M  V30 11 2 5 12
M  V30 12 1 12 13
M  V30 13 2 13 14
M  V30 14 1 14 15
M  V30 15 1 15 16
M  V30 16 2 16 17
M  V30 17 1 17 18
M  V30 18 2 18 19
M  V30 19 1 19 20
M  V30 20 2 20 21
M  V30 21 1 21 22
M  V30 22 2 22 23
M  V30 23 1 23 24
M  V30 24 1 24 25
M  V30 25 1 25 26
M  V30 26 1 26 27
M  V30 27 1 27 28
M  V30 28 1 28 29
M  V30 29 1 29 30
M  V30 30 1 23 31
M  V30 31 2 31 32
M  V30 32 1 14 3
M  V30 33 1 32 16
M  V30 34 1 11 6
M  V30 35 1 31 19
M  V30 36 1 30 25
M  V30 37 1 1 33
M  V30 38 1 1 34
M  V30 39 1 1 35
M  V30 40 1 4 36
M  V30 41 1 7 37
M  V30 42 1 7 38
M  V30 43 1 8 39
M  V30 44 1 8 40
M  V30 45 1 10 41
M  V30 46 1 10 42
M  V30 47 1 11 43
M  V30 48 1 11 44
M  V30 49 1 12 45
M  V30 50 1 13 46
M  V30 51 1 15 47
M  V30 52 1 18 48
M  V30 53 1 20 49
M  V30 54 1 21 50
M  V30 55 1 22 51
M  V30 56 1 24 52
M  V30 57 1 25 53
M  V30 58 1 26 54
M  V30 59 1 26 55
M  V30 60 1 27 56
M  V30 61 1 27 57
M  V30 62 1 28 58
M  V30 63 1 28 59
M  V30 64 1 29 60
M  V30 65 1 29 61
M  V30 66 1 30 62
M  V30 67 1 30 63
M  V30 END BOND
M  V30 END CTAB
M  END
>  <Dataset>  (882) 
ChEMBL_Kinases

>  <Ligand_Instance>  (882) 
nan

>  <PDB_ID>  (882) 
nan

>  <Standardized_SMILES>  (882) 
COc1cc(N2CCOCC2)ccc1Nc1ncc2cccc(NC3CCCCC3)c2n1

>  <Name>  (882) 
nan

>  <Pocket>  (882) 
nan

>  <ATP_Site>  (882) 
nan

>  <Peripheral>  (882) 
nan

>  <Num_H_Atoms_ProtBoundConf>  (882) 
nan

>  <Num_Resolved_Atoms>  (882) 
nan

>  <Num_Not_Resolved_Atoms>  (882) 
nan

$$$$
CHEMBL3092035
     RDKit          3D

  0  0  0  0  0  0  0  0  0  0999 V3000
M  V30 BEGIN CTAB
M  V30 COUNTS 55 59 0 0 0
M  V30 BEGIN ATOM
M  V30 1 C -0.277773 -0.761581 5.278586 0
M  V30 2 O -0.903631 -0.429119 4.058960 0
M  V30 3 C -0.217049 -0.063685 2.917401 0
M  V30 4 C 1.152079 0.027954 2.804142 0
M  V30 5 C 1.806666 0.395488 1.650896 0
M  V30 6 N 3.216039 0.466895 1.553431 0
M  V30 7 C 4.137797 0.068959 2.601654 0
M  V30 8 C 5.247234 1.116728 2.602096 0
M  V30 9 O 6.014797 0.979047 1.457634 0
M  V30 10 C 5.302148 0.456297 0.391007 0
M  V30 11 C 3.857339 0.960764 0.352470 0
M  V30 12 C 1.038621 0.689338 0.544481 0
M  V30 13 C -0.338948 0.605448 0.631069 0
M  V30 14 C -0.986107 0.232986 1.799977 0
M  V30 15 N -2.424238 0.132561 1.869016 0
M  V30 16 C -3.132943 0.424574 0.644541 0
M  V30 17 N -3.953220 1.392592 0.191324 0
M  V30 18 C -4.417773 1.314291 -1.061812 0
M  V30 19 C -4.116108 0.304546 -1.936398 0
M  V30 20 C -4.594643 0.232253 -3.222738 0
M  V30 21 C -4.220733 -0.819469 -3.998271 0
M  V30 22 C -3.383615 -1.822606 -3.564181 0
M  V30 23 C -2.880389 -1.783788 -2.272645 0
M  V30 24 C -1.971123 -2.732181 -1.596471 0
M  V30 25 C -2.408176 -3.107359 -0.319301 0
M  V30 26 C -1.640721 -3.977108 0.448645 0
M  V30 27 C -0.457104 -4.449779 -0.079303 0
M  V30 28 C -0.018375 -4.090750 -1.327355 0
M  V30 29 C -0.774277 -3.230159 -2.091209 0
M  V30 30 C -3.269765 -0.691697 -1.468214 0
M  V30 31 N -2.829880 -0.570705 -0.204004 0
M  V30 32 H -1.084543 -1.248184 5.900756 0
M  V30 33 H 0.495292 -1.535358 5.055936 0
M  V30 34 H 0.083401 0.090202 5.856746 0
M  V30 35 H 1.681553 -0.212456 3.695976 0
M  V30 36 H 4.557934 -0.942420 2.356364 0
M  V30 37 H 3.694987 -0.022924 3.590059 0
M  V30 38 H 5.829974 1.092085 3.532132 0
M  V30 39 H 4.744151 2.102466 2.560788 0
M  V30 40 H 5.799280 0.845545 -0.526966 0
M  V30 41 H 5.332952 -0.634689 0.333653 0
M  V30 42 H 3.425296 0.530845 -0.582490 0
M  V30 43 H 3.829471 2.055582 0.263586 0
M  V30 44 H 1.459848 0.988385 -0.403219 0
M  V30 45 H -0.925255 0.845188 -0.261738 0
M  V30 46 H -2.856583 -0.133708 2.756157 0
M  V30 47 H -5.063178 2.116561 -1.352433 0
M  V30 48 H -5.249269 1.019286 -3.559470 0
M  V30 49 H -4.565278 -0.923091 -5.013770 0
M  V30 50 H -3.037342 -2.682739 -4.106367 0
M  V30 51 H -3.327688 -2.805617 0.193516 0
M  V30 52 H -1.942519 -4.295194 1.454254 0
M  V30 53 H 0.115638 -5.121855 0.545941 0
M  V30 54 H 0.911024 -4.459649 -1.746096 0
M  V30 55 H -0.520195 -2.879933 -3.091497 0
M  V30 END ATOM
M  V30 BEGIN BOND
M  V30 1 1 1 2
M  V30 2 1 2 3
M  V30 3 2 3 4
M  V30 4 1 4 5
M  V30 5 1 5 6
M  V30 6 1 6 7
M  V30 7 1 7 8
M  V30 8 1 8 9
M  V30 9 1 9 10
M  V30 10 1 10 11
M  V30 11 2 5 12
M  V30 12 1 12 13
M  V30 13 2 13 14
M  V30 14 1 14 15
M  V30 15 1 15 16
M  V30 16 2 16 17
M  V30 17 1 17 18
M  V30 18 2 18 19
M  V30 19 1 19 20
M  V30 20 2 20 21
M  V30 21 1 21 22
M  V30 22 2 22 23
M  V30 23 1 23 24
M  V30 24 2 24 25
M  V30 25 1 25 26
M  V30 26 2 26 27
M  V30 27 1 27 28
M  V30 28 2 28 29
M  V30 29 1 23 30
M  V30 30 2 30 31
M  V30 31 1 14 3
M  V30 32 1 31 16
M  V30 33 1 11 6
M  V30 34 1 30 19
M  V30 35 1 29 24
M  V30 36 1 1 32
M  V30 37 1 1 33
M  V30 38 1 1 34
M  V30 39 1 4 35
M  V30 40 1 7 36
M  V30 41 1 7 37
M  V30 42 1 8 38
M  V30 43 1 8 39
M  V30 44 1 10 40
M  V30 45 1 10 41
M  V30 46 1 11 42
M  V30 47 1 11 43
M  V30 48 1 12 44
M  V30 49 1 13 45
M  V30 50 1 15 46
M  V30 51 1 18 47
M  V30 52 1 20 48
M  V30 53 1 21 49
M  V30 54 1 22 50
M  V30 55 1 25 51
M  V30 56 1 26 52
M  V30 57 1 27 53
M  V30 58 1 28 54
M  V30 59 1 29 55
M  V30 END BOND
M  V30 END CTAB
M  END
>  <Dataset>  (883) 
ChEMBL_Kinases

>  <Ligand_Instance>  (883) 
nan

>  <PDB_ID>  (883) 
nan

>  <Standardized_SMILES>  (883) 
COc1cc(N2CCOCC2)ccc1Nc1ncc2cccc(-c3ccccc3)c2n1

>  <Name>  (883) 
nan

>  <Pocket>  (883) 
nan

>  <ATP_Site>  (883) 
nan

>  <Peripheral>  (883) 
nan

>  <Num_H_Atoms_ProtBoundConf>  (883) 
nan

>  <Num_Resolved_Atoms>  (883) 
nan

>  <Num_Not_Resolved_Atoms>  (883) 
nan

$$$$
CHEMBL3092032
     RDKit          3D

  0  0  0  0  0  0  0  0  0  0999 V3000
M  V30 BEGIN CTAB
M  V30 COUNTS 59 63 0 0 0
M  V30 BEGIN ATOM
M  V30 1 C 2.791817 -2.675916 3.574385 0
M  V30 2 O 1.517638 -2.792942 2.973393 0
M  V30 3 C 0.817036 -1.637853 2.676742 0
M  V30 4 C 1.284974 -0.364533 2.932255 0
M  V30 5 C 0.599419 0.792292 2.642996 0
M  V30 6 N 1.130586 2.063501 2.933497 0
M  V30 7 C 2.411690 2.361996 3.530920 0
M  V30 8 C 3.345704 3.000259 2.492719 0
M  V30 9 N 2.563733 3.859671 1.707639 0
M  V30 10 S 2.877972 4.005624 0.070409 0
M  V30 11 C 2.662182 2.429438 -0.765540 0
M  V30 12 O 2.111220 5.088635 -0.604390 0
M  V30 13 O 4.353243 4.337954 -0.111411 0
M  V30 14 C 1.401649 4.425833 2.252155 0
M  V30 15 C 0.441750 3.308299 2.670382 0
M  V30 16 C -0.623313 0.614953 2.063256 0
M  V30 17 C -1.156805 -0.609604 1.778381 0
M  V30 18 C -0.442983 -1.757323 2.081816 0
M  V30 19 N -1.011691 -3.046931 1.792318 0
M  V30 20 C -2.268133 -3.302921 1.176739 0
M  V30 21 N -3.508896 -3.388535 1.713893 0
M  V30 22 C -4.544435 -3.653058 0.892204 0
M  V30 23 C -4.419796 -3.843204 -0.468097 0
M  V30 24 C -5.338843 -4.122243 -1.481242 0
M  V30 25 C -4.546440 -4.188183 -2.611453 0
M  V30 26 N -3.253472 -3.969133 -2.318958 0
M  V30 27 C -2.098483 -3.944857 -3.150023 0
M  V30 28 C -1.865936 -5.059248 -3.958418 0
M  V30 29 C -0.758967 -5.130138 -4.804538 0
M  V30 30 C 0.138494 -4.084823 -4.858067 0
M  V30 31 C -0.128394 -2.997452 -4.040202 0
M  V30 32 N -1.186352 -2.935528 -3.234896 0
M  V30 33 C -3.145867 -3.751066 -0.990694 0
M  V30 34 N -2.117318 -3.486586 -0.164330 0
M  V30 35 H 3.546342 -2.317854 2.847183 0
M  V30 36 H 3.165644 -3.672259 3.925276 0
M  V30 37 H 2.821991 -2.012685 4.451454 0
M  V30 38 H 2.259029 -0.369656 3.387392 0
M  V30 39 H 2.303660 3.096068 4.379063 0
M  V30 40 H 2.895545 1.465922 3.949780 0
M  V30 41 H 4.197011 3.501335 3.016050 0
M  V30 42 H 3.785744 2.211816 1.839095 0
M  V30 43 H 1.607590 2.114518 -0.740668 0
M  V30 44 H 2.985592 2.601376 -1.823428 0
M  V30 45 H 3.307832 1.700853 -0.263162 0
M  V30 46 H 0.928568 5.067797 1.469059 0
M  V30 47 H 1.631481 5.037825 3.162660 0
M  V30 48 H -0.313094 3.228325 1.868339 0
M  V30 49 H -0.127033 3.652526 3.578877 0
M  V30 50 H -1.256403 1.437858 1.789322 0
M  V30 51 H -2.120353 -0.751387 1.321555 0
M  V30 52 H -0.479038 -3.898425 2.044612 0
M  V30 53 H -5.520607 -3.715106 1.352049 0
M  V30 54 H -6.408629 -4.252157 -1.388004 0
M  V30 55 H -4.903640 -4.389849 -3.614141 0
M  V30 56 H -2.575973 -5.898868 -3.922697 0
M  V30 57 H -0.654387 -6.025546 -5.394040 0
M  V30 58 H 0.978737 -4.190814 -5.530681 0
M  V30 59 H 0.580277 -2.182928 -4.089236 0
M  V30 END ATOM
M  V30 BEGIN BOND
M  V30 1 1 1 2
M  V30 2 1 2 3
M  V30 3 2 3 4
M  V30 4 1 4 5
M  V30 5 1 5 6
M  V30 6 1 6 7
M  V30 7 1 7 8
M  V30 8 1 8 9
M  V30 9 1 9 10
M  V30 10 1 10 11
M  V30 11 2 10 12
M  V30 12 2 10 13
M  V30 13 1 9 14
M  V30 14 1 14 15
M  V30 15 2 5 16
M  V30 16 1 16 17
M  V30 17 2 17 18
M  V30 18 1 18 19
M  V30 19 1 19 20
M  V30 20 2 20 21
M  V30 21 1 21 22
M  V30 22 2 22 23
M  V30 23 1 23 24
M  V30 24 2 24 25
M  V30 25 1 25 26
M  V30 26 1 26 27
M  V30 27 2 27 28
M  V30 28 1 28 29
M  V30 29 2 29 30
M  V30 30 1 30 31
M  V30 31 2 31 32
M  V30 32 1 26 33
M  V30 33 2 33 34
M  V30 34 1 18 3
M  V30 35 1 34 20
M  V30 36 1 15 6
M  V30 37 1 33 23
M  V30 38 1 32 27
M  V30 39 1 1 35
M  V30 40 1 1 36
M  V30 41 1 1 37
M  V30 42 1 4 38
M  V30 43 1 7 39
M  V30 44 1 7 40
M  V30 45 1 8 41
M  V30 46 1 8 42
M  V30 47 1 11 43
M  V30 48 1 11 44
M  V30 49 1 11 45
M  V30 50 1 14 46
M  V30 51 1 14 47
M  V30 52 1 15 48
M  V30 53 1 15 49
M  V30 54 1 16 50
M  V30 55 1 17 51
M  V30 56 1 19 52
M  V30 57 1 22 53
M  V30 58 1 24 54
M  V30 59 1 25 55
M  V30 60 1 28 56
M  V30 61 1 29 57
M  V30 62 1 30 58
M  V30 63 1 31 59
M  V30 END BOND
M  V30 END CTAB
M  END
>  <Dataset>  (884) 
ChEMBL_Kinases

>  <Ligand_Instance>  (884) 
nan

>  <PDB_ID>  (884) 
nan

>  <Standardized_SMILES>  (884) 
COc1cc(N2CCN(S(C)(=O)=O)CC2)ccc1Nc1ncc2ccn(-c3ccccn3)c2n1

>  <Name>  (884) 
nan

>  <Pocket>  (884) 
nan

>  <ATP_Site>  (884) 
nan

>  <Peripheral>  (884) 
nan

>  <Num_H_Atoms_ProtBoundConf>  (884) 
nan

>  <Num_Resolved_Atoms>  (884) 
nan

>  <Num_Not_Resolved_Atoms>  (884) 
nan

$$$$
CHEMBL3092030
     RDKit          3D

  0  0  0  0  0  0  0  0  0  0999 V3000
M  V30 BEGIN CTAB
M  V30 COUNTS 66 70 0 0 0
M  V30 BEGIN ATOM
M  V30 1 C 3.224197 -3.221744 2.735234 0
M  V30 2 O 1.900405 -3.306184 2.271026 0
M  V30 3 C 1.124165 -2.157969 2.319739 0
M  V30 4 C 1.605068 -0.957713 2.801659 0
M  V30 5 C 0.806590 0.161750 2.835155 0
M  V30 6 N 1.293565 1.398089 3.330487 0
M  V30 7 C 2.607296 1.564064 3.913863 0
M  V30 8 C 3.439706 2.266122 2.831381 0
M  V30 9 N 2.562249 3.193788 2.192203 0
M  V30 10 S 3.328021 4.306102 1.151735 0
M  V30 11 C 4.120350 3.362592 -0.156683 0
M  V30 12 O 2.324879 5.260884 0.590552 0
M  V30 13 O 4.421686 5.020265 1.895693 0
M  V30 14 C 1.552328 3.744280 3.040143 0
M  V30 15 C 0.542001 2.636524 3.307023 0
M  V30 16 C -0.477597 0.012984 2.367042 0
M  V30 17 C -0.981875 -1.172978 1.881078 0
M  V30 18 C -0.165026 -2.299784 1.851656 0
M  V30 19 N -0.684819 -3.527147 1.347051 0
M  V30 20 C -2.048619 -3.582151 0.878197 0
M  V30 21 N -3.105194 -3.906246 1.659622 0
M  V30 22 C -4.347170 -3.920465 1.094487 0
M  V30 23 C -4.449438 -3.604568 -0.234430 0
M  V30 24 C -5.540331 -3.533768 -1.066022 0
M  V30 25 C -5.082356 -3.167396 -2.317992 0
M  V30 26 N -3.728304 -3.007615 -2.286710 0
M  V30 27 C -2.853184 -2.623716 -3.397084 0
M  V30 28 C -1.512944 -3.248049 -3.338183 0
M  V30 29 C -0.374327 -2.421131 -2.908582 0
M  V30 30 C -0.612333 -1.014571 -2.544465 0
M  V30 31 C -2.019058 -0.547744 -2.469426 0
M  V30 32 C -2.858345 -1.126989 -3.547551 0
M  V30 33 C -3.356402 -3.278402 -1.006344 0
M  V30 34 N -2.144298 -3.272290 -0.424096 0
M  V30 35 H 3.764411 -2.435587 2.158068 0
M  V30 36 H 3.784286 -4.161879 2.667020 0
M  V30 37 H 3.217235 -2.921628 3.812162 0
M  V30 38 H 2.615785 -0.975983 3.133143 0
M  V30 39 H 2.593519 2.307585 4.762463 0
M  V30 40 H 3.066428 0.637580 4.265932 0
M  V30 41 H 3.702137 1.479096 2.098348 0
M  V30 42 H 4.363233 2.709924 3.233584 0
M  V30 43 H 3.457040 2.495438 -0.347947 0
M  V30 44 H 4.270367 3.966584 -1.067176 0
M  V30 45 H 5.070826 2.968682 0.245583 0
M  V30 46 H 1.002966 4.518003 2.469332 0
M  V30 47 H 1.972949 4.178563 3.968089 0
M  V30 48 H -0.205194 2.593694 2.511092 0
M  V30 49 H 0.073106 2.788337 4.318729 0
M  V30 50 H -1.183520 0.830459 2.351794 0
M  V30 51 H -1.983906 -1.273188 1.520269 0
M  V30 52 H -0.034941 -4.359061 1.338829 0
M  V30 53 H -5.177154 -4.175137 1.707222 0
M  V30 54 H -6.564663 -3.716417 -0.840332 0
M  V30 55 H -5.698761 -3.026338 -3.196707 0
M  V30 56 H -3.405407 -2.990933 -4.313218 0
M  V30 57 H -1.646827 -4.164280 -2.687211 0
M  V30 58 H -1.269980 -3.715683 -4.334071 0
M  V30 59 H 0.464598 -2.443323 -3.668803 0
M  V30 60 H 0.124968 -2.935216 -2.032486 0
M  V30 61 H -0.061329 -0.298374 -3.225065 0
M  V30 62 H -0.162666 -0.755487 -1.538598 0
M  V30 63 H -2.532676 -0.715223 -1.498822 0
M  V30 64 H -2.039077 0.574246 -2.595012 0
M  V30 65 H -2.613910 -0.788842 -4.561417 0
M  V30 66 H -3.917947 -0.798734 -3.335016 0
M  V30 END ATOM
M  V30 BEGIN BOND
M  V30 1 1 1 2
M  V30 2 1 2 3
M  V30 3 2 3 4
M  V30 4 1 4 5
M  V30 5 1 5 6
M  V30 6 1 6 7
M  V30 7 1 7 8
M  V30 8 1 8 9
M  V30 9 1 9 10
M  V30 10 1 10 11
M  V30 11 2 10 12
M  V30 12 2 10 13
M  V30 13 1 9 14
M  V30 14 1 14 15
M  V30 15 2 5 16
M  V30 16 1 16 17
M  V30 17 2 17 18
M  V30 18 1 18 19
M  V30 19 1 19 20
M  V30 20 2 20 21
M  V30 21 1 21 22
M  V30 22 2 22 23
M  V30 23 1 23 24
M  V30 24 2 24 25
M  V30 25 1 25 26
M  V30 26 1 26 27
M  V30 27 1 27 28
M  V30 28 1 28 29
M  V30 29 1 29 30
M  V30 30 1 30 31
M  V30 31 1 31 32
M  V30 32 1 26 33
M  V30 33 2 33 34
M  V30 34 1 18 3
M  V30 35 1 34 20
M  V30 36 1 15 6
M  V30 37 1 33 23
M  V30 38 1 32 27
M  V30 39 1 1 35
M  V30 40 1 1 36
M  V30 41 1 1 37
M  V30 42 1 4 38
M  V30 43 1 7 39
M  V30 44 1 7 40
M  V30 45 1 8 41
M  V30 46 1 8 42
M  V30 47 1 11 43
M  V30 48 1 11 44
M  V30 49 1 11 45
M  V30 50 1 14 46
M  V30 51 1 14 47
M  V30 52 1 15 48
M  V30 53 1 15 49
M  V30 54 1 16 50
M  V30 55 1 17 51
M  V30 56 1 19 52
M  V30 57 1 22 53
M  V30 58 1 24 54
M  V30 59 1 25 55
M  V30 60 1 27 56
M  V30 61 1 28 57
M  V30 62 1 28 58
M  V30 63 1 29 59
M  V30 64 1 29 60
M  V30 65 1 30 61
M  V30 66 1 30 62
M  V30 67 1 31 63
M  V30 68 1 31 64
M  V30 69 1 32 65
M  V30 70 1 32 66
M  V30 END BOND
M  V30 END CTAB
M  END
>  <Dataset>  (885) 
ChEMBL_Kinases

>  <Ligand_Instance>  (885) 
nan

>  <PDB_ID>  (885) 
nan

>  <Standardized_SMILES>  (885) 
COc1cc(N2CCN(S(C)(=O)=O)CC2)ccc1Nc1ncc2ccn(C3CCCCC3)c2n1

>  <Name>  (885) 
nan

>  <Pocket>  (885) 
nan

>  <ATP_Site>  (885) 
nan

>  <Peripheral>  (885) 
nan

>  <Num_H_Atoms_ProtBoundConf>  (885) 
nan

>  <Num_Resolved_Atoms>  (885) 
nan

>  <Num_Not_Resolved_Atoms>  (885) 
nan

$$$$
CHEMBL3092029
     RDKit          3D

  0  0  0  0  0  0  0  0  0  0999 V3000
M  V30 BEGIN CTAB
M  V30 COUNTS 58 62 0 0 0
M  V30 BEGIN ATOM
M  V30 1 C 1.007124 2.177683 -2.530022 0
M  V30 2 C 1.429960 1.646865 -1.206814 0
M  V30 3 C 2.754715 1.355514 -0.951768 0
M  V30 4 C 3.154441 0.864469 0.267855 0
M  V30 5 N 4.510163 0.559105 0.545941 0
M  V30 6 C 5.640362 0.653179 -0.351956 0
M  V30 7 C 6.116209 -0.750273 -0.646751 0
M  V30 8 O 5.465525 -1.627861 0.212147 0
M  V30 9 C 5.661745 -1.277450 1.544541 0
M  V30 10 C 5.024325 0.086523 1.813967 0
M  V30 11 C 2.187696 0.673454 1.225476 0
M  V30 12 C 0.864223 0.966227 0.965870 0
M  V30 13 C 0.439500 1.464595 -0.263514 0
M  V30 14 N -0.935886 1.756483 -0.489445 0
M  V30 15 C -1.887938 1.527194 0.551103 0
M  V30 16 N -2.260713 2.398745 1.522078 0
M  V30 17 C -3.189854 1.987801 2.425085 0
M  V30 18 C -3.718742 0.721356 2.332651 0
M  V30 19 C -4.657814 0.020111 3.076822 0
M  V30 20 C -4.824110 -1.239800 2.541101 0
M  V30 21 N -4.003922 -1.323401 1.482038 0
M  V30 22 C -3.879249 -2.475059 0.648976 0
M  V30 23 C -3.362441 -3.621750 1.493330 0
M  V30 24 C -3.564996 -4.879856 0.688287 0
M  V30 25 C -3.294578 -4.797175 -0.752902 0
M  V30 26 C -2.872321 -3.511086 -1.341373 0
M  V30 27 C -2.870421 -2.310945 -0.446475 0
M  V30 28 C -3.331258 -0.166683 1.333737 0
M  V30 29 N -2.408782 0.310845 0.478145 0
M  V30 30 H 0.741356 3.254807 -2.342977 0
M  V30 31 H 1.836625 2.178032 -3.266652 0
M  V30 32 H 0.133967 1.581668 -2.864344 0
M  V30 33 H 3.434301 1.539184 -1.764601 0
M  V30 34 H 5.343799 1.088088 -1.344542 0
M  V30 35 H 6.489251 1.224909 0.087093 0
M  V30 36 H 7.218453 -0.828822 -0.516146 0
M  V30 37 H 5.915043 -1.044808 -1.695451 0
M  V30 38 H 6.731267 -1.309654 1.772749 0
M  V30 39 H 5.100625 -2.044818 2.143315 0
M  V30 40 H 4.308747 0.052052 2.629001 0
M  V30 41 H 5.839483 0.785719 2.170955 0
M  V30 42 H 2.362006 0.299063 2.208912 0
M  V30 43 H 0.080903 0.826366 1.699095 0
M  V30 44 H -1.207185 2.133506 -1.419558 0
M  V30 45 H -3.490962 2.676963 3.200962 0
M  V30 46 H -5.183406 0.419668 3.958824 0
M  V30 47 H -5.525365 -1.962553 2.980067 0
M  V30 48 H -4.861563 -2.810313 0.225059 0
M  V30 49 H -3.919111 -3.666166 2.435207 0
M  V30 50 H -2.250896 -3.524051 1.624076 0
M  V30 51 H -4.633864 -5.178878 0.907195 0
M  V30 52 H -2.979414 -5.673820 1.213014 0
M  V30 53 H -4.180113 -5.239178 -1.299408 0
M  V30 54 H -2.486930 -5.554660 -0.982492 0
M  V30 55 H -3.539526 -3.279969 -2.208383 0
M  V30 56 H -1.849708 -3.555838 -1.803710 0
M  V30 57 H -3.005480 -1.400869 -1.065366 0
M  V30 58 H -1.870661 -2.212287 0.037240 0
M  V30 END ATOM
M  V30 BEGIN BOND
M  V30 1 1 1 2
M  V30 2 2 2 3
M  V30 3 1 3 4
M  V30 4 1 4 5
M  V30 5 1 5 6
M  V30 6 1 6 7
M  V30 7 1 7 8
M  V30 8 1 8 9
M  V30 9 1 9 10
M  V30 10 2 4 11
M  V30 11 1 11 12
M  V30 12 2 12 13
M  V30 13 1 13 14
M  V30 14 1 14 15
M  V30 15 2 15 16
M  V30 16 1 16 17
M  V30 17 2 17 18
M  V30 18 1 18 19
M  V30 19 2 19 20
M  V30 20 1 20 21
M  V30 21 1 21 22
M  V30 22 1 22 23
M  V30 23 1 23 24
M  V30 24 1 24 25
M  V30 25 1 25 26
M  V30 26 1 26 27
M  V30 27 1 21 28
M  V30 28 2 28 29
M  V30 29 1 13 2
M  V30 30 1 29 15
M  V30 31 1 10 5
M  V30 32 1 28 18
M  V30 33 1 27 22
M  V30 34 1 1 30
M  V30 35 1 1 31
M  V30 36 1 1 32
M  V30 37 1 3 33
M  V30 38 1 6 34
M  V30 39 1 6 35
M  V30 40 1 7 36
M  V30 41 1 7 37
M  V30 42 1 9 38
M  V30 43 1 9 39
M  V30 44 1 10 40
M  V30 45 1 10 41
M  V30 46 1 11 42
M  V30 47 1 12 43
M  V30 48 1 14 44
M  V30 49 1 17 45
M  V30 50 1 19 46
M  V30 51 1 20 47
M  V30 52 1 22 48
M  V30 53 1 23 49
M  V30 54 1 23 50
M  V30 55 1 24 51
M  V30 56 1 24 52
M  V30 57 1 25 53
M  V30 58 1 25 54
M  V30 59 1 26 55
M  V30 60 1 26 56
M  V30 61 1 27 57
M  V30 62 1 27 58
M  V30 END BOND
M  V30 END CTAB
M  END
>  <Dataset>  (886) 
ChEMBL_Kinases

>  <Ligand_Instance>  (886) 
nan

>  <PDB_ID>  (886) 
nan

>  <Standardized_SMILES>  (886) 
Cc1cc(N2CCOCC2)ccc1Nc1ncc2ccn(C3CCCCC3)c2n1

>  <Name>  (886) 
nan

>  <Pocket>  (886) 
nan

>  <ATP_Site>  (886) 
nan

>  <Peripheral>  (886) 
nan

>  <Num_H_Atoms_ProtBoundConf>  (886) 
nan

>  <Num_Resolved_Atoms>  (886) 
nan

>  <Num_Not_Resolved_Atoms>  (886) 
nan

$$$$
CHEMBL3092028
     RDKit          3D

  0  0  0  0  0  0  0  0  0  0999 V3000
M  V30 BEGIN CTAB
M  V30 COUNTS 59 63 0 0 0
M  V30 BEGIN ATOM
M  V30 1 C -0.281465 4.237447 -1.187148 0
M  V30 2 O -0.822490 3.163794 -0.478199 0
M  V30 3 C -0.093396 2.228574 0.216409 0
M  V30 4 C 1.269791 2.126127 0.372375 0
M  V30 5 C 1.881166 1.135175 1.098272 0
M  V30 6 N 3.281866 1.135217 1.172436 0
M  V30 7 C 4.003878 2.202377 0.489616 0
M  V30 8 C 5.464738 1.983272 0.728804 0
M  V30 9 O 5.808667 0.722115 0.244199 0
M  V30 10 C 5.171880 -0.296999 0.897585 0
M  V30 11 C 4.098914 0.160182 1.868646 0
M  V30 12 C 1.034269 0.218963 1.682708 0
M  V30 13 C -0.345771 0.256953 1.570502 0
M  V30 14 C -0.929407 1.285909 0.818531 0
M  V30 15 N -2.360312 1.273142 0.709082 0
M  V30 16 C -3.128359 0.257869 1.352272 0
M  V30 17 N -4.048325 0.267494 2.336309 0
M  V30 18 C -4.607871 -0.850476 2.773048 0
M  V30 19 C -4.280843 -2.083074 2.246929 0
M  V30 20 C -4.689210 -3.391169 2.504729 0
M  V30 21 C -3.947710 -4.147462 1.611438 0
M  V30 22 N -3.154425 -3.370398 0.870866 0
M  V30 23 C -2.213212 -3.753712 -0.165225 0
M  V30 24 C -1.884615 -2.634846 -1.121566 0
M  V30 25 C -1.126123 -3.252781 -2.265741 0
M  V30 26 C 0.114249 -3.973303 -1.846204 0
M  V30 27 C -0.002518 -4.725685 -0.560589 0
M  V30 28 C -0.899830 -4.158412 0.470985 0
M  V30 29 C -3.340699 -2.080902 1.243625 0
M  V30 30 N -2.799248 -0.927978 0.830164 0
M  V30 31 H -0.679086 4.235331 -2.233968 0
M  V30 32 H 0.805397 4.241367 -1.249678 0
M  V30 33 H -0.667694 5.181252 -0.705214 0
M  V30 34 H 1.829556 2.901700 -0.130310 0
M  V30 35 H 3.832687 2.048040 -0.613927 0
M  V30 36 H 3.649637 3.209212 0.735926 0
M  V30 37 H 6.086355 2.757540 0.226870 0
M  V30 38 H 5.696174 1.987400 1.811411 0
M  V30 39 H 4.723159 -1.062659 0.213642 0
M  V30 40 H 5.926182 -0.833876 1.505467 0
M  V30 41 H 3.487024 -0.732118 2.078433 0
M  V30 42 H 4.587052 0.571844 2.773155 0
M  V30 43 H 1.492303 -0.582194 2.269498 0
M  V30 44 H -0.871113 -0.529905 2.091386 0
M  V30 45 H -2.806361 2.031390 0.144424 0
M  V30 46 H -5.333882 -0.758384 3.560669 0
M  V30 47 H -5.424531 -3.675662 3.249099 0
M  V30 48 H -4.028532 -5.216500 1.552448 0
M  V30 49 H -2.629050 -4.602805 -0.735806 0
M  V30 50 H -1.216398 -1.878950 -0.655259 0
M  V30 51 H -2.805357 -2.184037 -1.528564 0
M  V30 52 H -1.837056 -3.909068 -2.800326 0
M  V30 53 H -0.847411 -2.435253 -2.960189 0
M  V30 54 H 0.365009 -4.706744 -2.640152 0
M  V30 55 H 0.968736 -3.254142 -1.814397 0
M  V30 56 H -0.232647 -5.805880 -0.712217 0
M  V30 57 H 1.035651 -4.724313 -0.111717 0
M  V30 58 H -1.149187 -4.975096 1.188323 0
M  V30 59 H -0.461338 -3.319839 1.015664 0
M  V30 END ATOM
M  V30 BEGIN BOND
M  V30 1 1 1 2
M  V30 2 1 2 3
M  V30 3 2 3 4
M  V30 4 1 4 5
M  V30 5 1 5 6
M  V30 6 1 6 7
M  V30 7 1 7 8
M  V30 8 1 8 9
M  V30 9 1 9 10
M  V30 10 1 10 11
M  V30 11 2 5 12
M  V30 12 1 12 13
M  V30 13 2 13 14
M  V30 14 1 14 15
M  V30 15 1 15 16
M  V30 16 2 16 17
M  V30 17 1 17 18
M  V30 18 2 18 19
M  V30 19 1 19 20
M  V30 20 2 20 21
M  V30 21 1 21 22
M  V30 22 1 22 23
M  V30 23 1 23 24
M  V30 24 1 24 25
M  V30 25 1 25 26
M  V30 26 1 26 27
M  V30 27 1 27 28
M  V30 28 1 22 29
M  V30 29 2 29 30
M  V30 30 1 14 3
M  V30 31 1 30 16
M  V30 32 1 11 6
M  V30 33 1 29 19
M  V30 34 1 28 23
M  V30 35 1 1 31
M  V30 36 1 1 32
M  V30 37 1 1 33
M  V30 38 1 4 34
M  V30 39 1 7 35
M  V30 40 1 7 36
M  V30 41 1 8 37
M  V30 42 1 8 38
M  V30 43 1 10 39
M  V30 44 1 10 40
M  V30 45 1 11 41
M  V30 46 1 11 42
M  V30 47 1 12 43
M  V30 48 1 13 44
M  V30 49 1 15 45
M  V30 50 1 18 46
M  V30 51 1 20 47
M  V30 52 1 21 48
M  V30 53 1 23 49
M  V30 54 1 24 50
M  V30 55 1 24 51
M  V30 56 1 25 52
M  V30 57 1 25 53
M  V30 58 1 26 54
M  V30 59 1 26 55
M  V30 60 1 27 56
M  V30 61 1 27 57
M  V30 62 1 28 58
M  V30 63 1 28 59
M  V30 END BOND
M  V30 END CTAB
M  END
>  <Dataset>  (887) 
ChEMBL_Kinases

>  <Ligand_Instance>  (887) 
nan

>  <PDB_ID>  (887) 
nan

>  <Standardized_SMILES>  (887) 
COc1cc(N2CCOCC2)ccc1Nc1ncc2ccn(C3CCCCC3)c2n1

>  <Name>  (887) 
nan

>  <Pocket>  (887) 
nan

>  <ATP_Site>  (887) 
nan

>  <Peripheral>  (887) 
nan

>  <Num_H_Atoms_ProtBoundConf>  (887) 
nan

>  <Num_Resolved_Atoms>  (887) 
nan

>  <Num_Not_Resolved_Atoms>  (887) 
nan

$$$$
CHEMBL3093063
     RDKit          3D

  0  0  0  0  0  0  0  0  0  0999 V3000
M  V30 BEGIN CTAB
M  V30 COUNTS 35 38 0 0 0
M  V30 BEGIN ATOM
M  V30 1 F 0.468427 -1.664232 2.058674 0
M  V30 2 C 1.100395 -2.736371 1.550971 0
M  V30 3 C 0.385210 -3.877700 1.319698 0
M  V30 4 C 1.070463 -4.970485 0.815264 0
M  V30 5 C 2.414040 -4.854335 0.576250 0
M  V30 6 C 3.111712 -3.676378 0.822946 0
M  V30 7 C 2.443546 -2.552249 1.333736 0
M  V30 8 C 3.300194 -1.366046 1.528703 0
M  V30 9 N 3.241695 -0.378125 0.501783 0
M  V30 10 C 2.257539 0.487980 -0.033569 0
M  V30 11 N 2.496625 1.365972 -1.049103 0
M  V30 12 N 1.380748 2.007999 -1.296416 0
M  V30 13 C 0.418259 1.577583 -0.474333 0
M  V30 14 C -0.941040 2.100180 -0.503553 0
M  V30 15 C -1.430937 3.087010 -1.332301 0
M  V30 16 N -2.729630 3.319437 -1.091400 0
M  V30 17 C -3.154513 2.508517 -0.105804 0
M  V30 18 N -4.332420 2.325485 0.513215 0
M  V30 19 C -4.567343 1.449560 1.493435 0
M  V30 20 C -3.467004 0.699969 1.854992 0
M  V30 21 C -2.210695 0.822544 1.269184 0
M  V30 22 C -2.050234 1.766307 0.246526 0
M  V30 23 O 0.998396 0.668431 0.259432 0
M  V30 24 H -0.668935 -3.881833 1.536641 0
M  V30 25 H 0.504106 -5.868916 0.635200 0
M  V30 26 H 2.882299 -5.758277 0.179885 0
M  V30 27 H 4.183632 -3.743693 0.579024 0
M  V30 28 H 4.341438 -1.681323 1.766832 0
M  V30 29 H 2.922940 -0.892150 2.503431 0
M  V30 30 H 4.206759 -0.305336 0.040361 0
M  V30 31 H -0.908903 3.653760 -2.104477 0
M  V30 32 H -3.358385 4.009508 -1.564462 0
M  V30 33 H -5.524464 1.318992 1.978533 0
M  V30 34 H -3.526691 -0.058924 2.651496 0
M  V30 35 H -1.363067 0.225687 1.568495 0
M  V30 END ATOM
M  V30 BEGIN BOND
M  V30 1 1 1 2
M  V30 2 2 2 3
M  V30 3 1 3 4
M  V30 4 2 4 5
M  V30 5 1 5 6
M  V30 6 2 6 7
M  V30 7 1 7 8
M  V30 8 1 8 9
M  V30 9 1 9 10
M  V30 10 2 10 11
M  V30 11 1 11 12
M  V30 12 2 12 13
M  V30 13 1 13 14
M  V30 14 2 14 15
M  V30 15 1 15 16
M  V30 16 1 16 17
M  V30 17 2 17 18
M  V30 18 1 18 19
M  V30 19 2 19 20
M  V30 20 1 20 21
M  V30 21 2 21 22
M  V30 22 1 13 23
M  V30 23 1 7 2
M  V30 24 1 23 10
M  V30 25 1 22 14
M  V30 26 1 22 17
M  V30 27 1 3 24
M  V30 28 1 4 25
M  V30 29 1 5 26
M  V30 30 1 6 27
M  V30 31 1 8 28
M  V30 32 1 8 29
M  V30 33 1 9 30
M  V30 34 1 15 31
M  V30 35 1 16 32
M  V30 36 1 19 33
M  V30 37 1 20 34
M  V30 38 1 21 35
M  V30 END BOND
M  V30 END CTAB
M  END
>  <Dataset>  (888) 
ChEMBL_Kinases

>  <Ligand_Instance>  (888) 
nan

>  <PDB_ID>  (888) 
nan

>  <Standardized_SMILES>  (888) 
Fc1ccccc1CNc1nnc(-c2c[nH]c3ncccc23)o1

>  <Name>  (888) 
nan

>  <Pocket>  (888) 
nan

>  <ATP_Site>  (888) 
nan

>  <Peripheral>  (888) 
nan

>  <Num_H_Atoms_ProtBoundConf>  (888) 
nan

>  <Num_Resolved_Atoms>  (888) 
nan

>  <Num_Not_Resolved_Atoms>  (888) 
nan

$$$$
CHEMBL3091533
     RDKit          3D

  0  0  0  0  0  0  0  0  0  0999 V3000
M  V30 BEGIN CTAB
M  V30 COUNTS 49 52 0 0 0
M  V30 BEGIN ATOM
M  V30 1 C 3.228641 -2.843249 1.809761 0
M  V30 2 C 4.454315 -2.254643 1.235306 0
M  V30 3 C 5.650724 -2.866858 1.585212 0
M  V30 4 N 6.806445 -2.383901 1.103376 0
M  V30 5 C 6.748415 -1.316563 0.294445 0
M  V30 6 C 5.563802 -0.716749 -0.046834 0
M  V30 7 C 4.342610 -1.159406 0.410393 0
M  V30 8 C 3.111228 -0.493844 0.028635 0
M  V30 9 C 3.191037 0.627796 -0.762639 0
M  V30 10 C 2.089809 1.337294 -1.170496 0
M  V30 11 O 2.174032 2.381259 -1.907578 0
M  V30 12 N 0.858875 0.931994 -0.787762 0
M  V30 13 C -0.276316 1.667716 -1.246446 0
M  V30 14 C 0.742168 -0.155190 -0.016531 0
M  V30 15 N -0.515144 -0.641722 0.489511 0
M  V30 16 C -0.560334 -1.975596 1.058829 0
M  V30 17 C -1.231426 -2.074962 2.384693 0
M  V30 18 O -2.343942 -1.230655 2.488842 0
M  V30 19 C -2.763279 -1.010795 1.207283 0 CFG=1
M  V30 20 C -4.150916 -0.503636 1.111678 0
M  V30 21 C -4.377497 0.518645 2.036969 0
M  V30 22 C -5.577217 1.165023 2.163596 0
M  V30 23 C -6.604740 0.753434 1.305633 0
M  V30 24 F -7.828208 1.352334 1.373830 0
M  V30 25 C -6.415880 -0.257719 0.374764 0
M  V30 26 C -5.195008 -0.885720 0.275665 0
M  V30 27 C -1.781046 -0.007560 0.572315 0
M  V30 28 N 1.862634 -0.829775 0.364586 0
M  V30 29 H 3.473137 -3.567867 2.608569 0
M  V30 30 H 2.642619 -3.348288 1.017660 0
M  V30 31 H 2.599116 -2.069473 2.311057 0
M  V30 32 H 5.666501 -3.726437 2.240326 0
M  V30 33 H 7.722009 -0.988673 -0.050538 0
M  V30 34 H 5.721365 0.116580 -0.699995 0
M  V30 35 H 4.109911 1.085918 -1.155295 0
M  V30 36 H -0.805192 1.028383 -1.983085 0
M  V30 37 H 0.062806 2.538752 -1.893744 0
M  V30 38 H -0.870279 2.138894 -0.477560 0
M  V30 39 H 0.497154 -2.339426 1.233104 0
M  V30 40 H -0.927440 -2.719094 0.292677 0
M  V30 41 H -1.675850 -3.112223 2.426803 0
M  V30 42 H -0.562335 -2.032253 3.262180 0
M  V30 43 H -2.725929 -1.923060 0.597264 0
M  V30 44 H -3.644510 0.913636 2.748077 0
M  V30 45 H -5.807133 1.948435 2.849453 0
M  V30 46 H -7.176214 -0.603136 -0.302350 0
M  V30 47 H -4.893524 -1.683438 -0.390503 0
M  V30 48 H -1.730145 0.884623 1.259710 0
M  V30 49 H -2.286947 0.223744 -0.385245 0
M  V30 END ATOM
M  V30 BEGIN BOND
M  V30 1 1 1 2
M  V30 2 2 2 3
M  V30 3 1 3 4
M  V30 4 2 4 5
M  V30 5 1 5 6
M  V30 6 2 6 7
M  V30 7 1 7 8
M  V30 8 2 8 9
M  V30 9 1 9 10
M  V30 10 2 10 11
M  V30 11 1 10 12
M  V30 12 1 12 13
M  V30 13 1 12 14
M  V30 14 1 14 15
M  V30 15 1 15 16
M  V30 16 1 16 17
M  V30 17 1 17 18
M  V30 18 1 18 19
M  V30 19 1 19 20
M  V30 20 2 20 21
M  V30 21 1 21 22
M  V30 22 2 22 23
M  V30 23 1 23 24
M  V30 24 1 23 25
M  V30 25 2 25 26
M  V30 26 1 19 27
M  V30 27 2 14 28
M  V30 28 1 7 2
M  V30 29 1 28 8
M  V30 30 1 27 15
M  V30 31 1 26 20
M  V30 32 1 1 29
M  V30 33 1 1 30
M  V30 34 1 1 31
M  V30 35 1 3 32
M  V30 36 1 5 33
M  V30 37 1 6 34
M  V30 38 1 9 35
M  V30 39 1 13 36
M  V30 40 1 13 37
M  V30 41 1 13 38
M  V30 42 1 16 39
M  V30 43 1 16 40
M  V30 44 1 17 41
M  V30 45 1 17 42
M  V30 46 1 19 43 CFG=3
M  V30 47 1 21 44
M  V30 48 1 22 45
M  V30 49 1 25 46
M  V30 50 1 26 47
M  V30 51 1 27 48
M  V30 52 1 27 49
M  V30 END BOND
M  V30 END CTAB
M  END
>  <Dataset>  (889) 
ChEMBL_Kinases

>  <Ligand_Instance>  (889) 
nan

>  <PDB_ID>  (889) 
nan

>  <Standardized_SMILES>  (889) 
Cc1cnccc1-c1cc(=O)n(C)c(N2CCO[C@@H](c3ccc(F)cc3)C2)n1

>  <Name>  (889) 
nan

>  <Pocket>  (889) 
nan

>  <ATP_Site>  (889) 
nan

>  <Peripheral>  (889) 
nan

>  <Num_H_Atoms_ProtBoundConf>  (889) 
nan

>  <Num_Resolved_Atoms>  (889) 
nan

>  <Num_Not_Resolved_Atoms>  (889) 
nan

$$$$
CHEMBL3091534
     RDKit          3D

  0  0  0  0  0  0  0  0  0  0999 V3000
M  V30 BEGIN CTAB
M  V30 COUNTS 50 53 0 0 0
M  V30 BEGIN ATOM
M  V30 1 C 2.361412 -3.277176 2.353144 0
M  V30 2 O 2.554943 -1.920112 2.005354 0
M  V30 3 C 3.761684 -1.284699 2.084301 0
M  V30 4 C 4.840727 -2.034533 2.533444 0
M  V30 5 N 6.075104 -1.490703 2.644077 0
M  V30 6 C 6.242987 -0.188815 2.306210 0
M  V30 7 C 5.154417 0.531447 1.863671 0
M  V30 8 C 3.875420 0.042118 1.727743 0
M  V30 9 C 2.783263 0.852040 1.253084 0
M  V30 10 C 2.976618 2.141630 0.876796 0
M  V30 11 C 1.966349 2.941809 0.411681 0
M  V30 12 O 2.114597 4.146487 0.053700 0
M  V30 13 N 0.736072 2.409267 0.331279 0
M  V30 14 C -0.372192 3.210523 -0.130210 0
M  V30 15 C 0.485812 1.144023 0.687430 0
M  V30 16 N -0.729050 0.406478 0.623970 0
M  V30 17 C -0.827726 -0.891387 1.323554 0
M  V30 18 C -0.743558 -1.952758 0.276645 0
M  V30 19 O -1.026197 -1.459363 -0.998408 0
M  V30 20 C -2.148911 -0.631805 -0.984425 0 CFG=1
M  V30 21 C -3.389729 -1.423140 -0.875629 0
M  V30 22 C -4.556691 -1.299622 -0.159937 0
M  V30 23 C -5.580180 -2.215405 -0.246422 0
M  V30 24 C -5.484063 -3.317845 -1.067350 0
M  V30 25 F -6.571727 -4.123231 -1.041809 0
M  V30 26 C -4.326786 -3.471552 -1.799391 0
M  V30 27 C -3.305851 -2.550359 -1.707604 0
M  V30 28 C -2.032850 0.500797 0.012491 0
M  V30 29 N 1.536982 0.444322 1.129100 0
M  V30 30 H 2.837528 -3.516190 3.341162 0
M  V30 31 H 1.264035 -3.459259 2.531839 0
M  V30 32 H 2.754576 -3.992278 1.610185 0
M  V30 33 H 4.763775 -3.075625 2.816651 0
M  V30 34 H 7.236723 0.222772 2.402919 0
M  V30 35 H 5.397233 1.546783 1.624325 0
M  V30 36 H 3.925779 2.665565 0.901578 0
M  V30 37 H -0.013602 4.282991 -0.115419 0
M  V30 38 H -0.650906 3.038172 -1.166484 0
M  V30 39 H -1.222038 3.240029 0.604955 0
M  V30 40 H 0.024651 -0.916183 2.038455 0
M  V30 41 H -1.739461 -0.957083 1.948378 0
M  V30 42 H 0.302155 -2.330507 0.240388 0
M  V30 43 H -1.370129 -2.822446 0.550535 0
M  V30 44 H -2.170342 -0.164876 -2.000337 0
M  V30 45 H -4.569325 -0.428949 0.450020 0
M  V30 46 H -6.414546 -1.961875 0.380757 0
M  V30 47 H -4.315160 -4.355485 -2.421828 0
M  V30 48 H -2.466431 -2.836909 -2.360457 0
M  V30 49 H -2.845192 0.466574 0.790697 0
M  V30 50 H -2.198681 1.474906 -0.485544 0
M  V30 END ATOM
M  V30 BEGIN BOND
M  V30 1 1 1 2
M  V30 2 1 2 3
M  V30 3 2 3 4
M  V30 4 1 4 5
M  V30 5 2 5 6
M  V30 6 1 6 7
M  V30 7 2 7 8
M  V30 8 1 8 9
M  V30 9 2 9 10
M  V30 10 1 10 11
M  V30 11 2 11 12
M  V30 12 1 11 13
M  V30 13 1 13 14
M  V30 14 1 13 15
M  V30 15 1 15 16
M  V30 16 1 16 17
M  V30 17 1 17 18
M  V30 18 1 18 19
M  V30 19 1 19 20
M  V30 20 1 20 21
M  V30 21 2 21 22
M  V30 22 1 22 23
M  V30 23 2 23 24
M  V30 24 1 24 25
M  V30 25 1 24 26
M  V30 26 2 26 27
M  V30 27 1 20 28
M  V30 28 2 15 29
M  V30 29 1 8 3
M  V30 30 1 29 9
M  V30 31 1 28 16
M  V30 32 1 27 21
M  V30 33 1 1 30
M  V30 34 1 1 31
M  V30 35 1 1 32
M  V30 36 1 4 33
M  V30 37 1 6 34
M  V30 38 1 7 35
M  V30 39 1 10 36
M  V30 40 1 14 37
M  V30 41 1 14 38
M  V30 42 1 14 39
M  V30 43 1 17 40
M  V30 44 1 17 41
M  V30 45 1 18 42
M  V30 46 1 18 43
M  V30 47 1 20 44 CFG=3
M  V30 48 1 22 45
M  V30 49 1 23 46
M  V30 50 1 26 47
M  V30 51 1 27 48
M  V30 52 1 28 49
M  V30 53 1 28 50
M  V30 END BOND
M  V30 END CTAB
M  END
>  <Dataset>  (890) 
ChEMBL_Kinases

>  <Ligand_Instance>  (890) 
nan

>  <PDB_ID>  (890) 
nan

>  <Standardized_SMILES>  (890) 
COc1cnccc1-c1cc(=O)n(C)c(N2CCO[C@@H](c3ccc(F)cc3)C2)n1

>  <Name>  (890) 
nan

>  <Pocket>  (890) 
nan

>  <ATP_Site>  (890) 
nan

>  <Peripheral>  (890) 
nan

>  <Num_H_Atoms_ProtBoundConf>  (890) 
nan

>  <Num_Resolved_Atoms>  (890) 
nan

>  <Num_Not_Resolved_Atoms>  (890) 
nan

$$$$
CHEMBL3091535
     RDKit          3D

  0  0  0  0  0  0  0  0  0  0999 V3000
M  V30 BEGIN CTAB
M  V30 COUNTS 46 49 0 0 0
M  V30 BEGIN ATOM
M  V30 1 C 1.846240 -4.104814 1.821574 0
M  V30 2 N 0.565432 -3.664550 1.362768 0
M  V30 3 C 0.363418 -2.339302 1.419798 0
M  V30 4 N 1.212395 -1.287690 1.855566 0
M  V30 5 C 1.618936 -0.803499 3.156457 0
M  V30 6 C 2.907547 -0.054238 3.171059 0
M  V30 7 O 3.130730 0.801530 2.106658 0
M  V30 8 C 2.009658 0.881982 1.330710 0 CFG=1
M  V30 9 C 1.972076 1.945565 0.331755 0
M  V30 10 C 1.611025 1.940614 -0.994476 0
M  V30 11 C 1.627590 3.069332 -1.782458 0
M  V30 12 C 2.021798 4.275981 -1.243258 0
M  V30 13 F 2.047760 5.408133 -2.001288 0
M  V30 14 C 2.397355 4.330934 0.095967 0
M  V30 15 C 2.369458 3.165043 0.873152 0
M  V30 16 C 1.774517 -0.499143 0.738694 0
M  V30 17 N -0.805455 -1.818974 1.006292 0
M  V30 18 C -1.839558 -2.509172 0.520802 0
M  V30 19 C -3.070973 -1.828369 0.069082 0
M  V30 20 C -3.034284 -0.439975 0.197022 0
M  V30 21 C -4.122646 0.308153 -0.197839 0
M  V30 22 N -5.181053 -0.339037 -0.693772 0
M  V30 23 C -5.189636 -1.690550 -0.807109 0
M  V30 24 Cl -6.641051 -2.405672 -1.477705 0
M  V30 25 C -4.149600 -2.500830 -0.436761 0
M  V30 26 C -1.637690 -3.870132 0.461391 0
M  V30 27 C -0.433986 -4.422178 0.885345 0
M  V30 28 O -0.227408 -5.658003 0.840343 0
M  V30 29 H 2.554974 -4.304190 0.980205 0
M  V30 30 H 1.728096 -5.107761 2.327361 0
M  V30 31 H 2.350546 -3.468318 2.536968 0
M  V30 32 H 1.702237 -1.621670 3.907364 0
M  V30 33 H 0.767758 -0.174145 3.555269 0
M  V30 34 H 2.864311 0.628108 4.078546 0
M  V30 35 H 3.763924 -0.784688 3.315618 0
M  V30 36 H 1.154360 1.089684 2.037050 0
M  V30 37 H 1.315554 1.001989 -1.386304 0
M  V30 38 H 1.323354 2.979084 -2.826682 0
M  V30 39 H 2.696918 5.302437 0.462428 0
M  V30 40 H 2.687924 3.375180 1.893525 0
M  V30 41 H 2.697379 -0.918205 0.342832 0
M  V30 42 H 0.964426 -0.371465 -0.017000 0
M  V30 43 H -2.170077 0.107141 0.604136 0
M  V30 44 H -4.079742 1.396685 -0.089172 0
M  V30 45 H -4.144147 -3.574829 -0.521607 0
M  V30 46 H -2.432093 -4.492647 0.077594 0
M  V30 END ATOM
M  V30 BEGIN BOND
M  V30 1 1 1 2
M  V30 2 1 2 3
M  V30 3 1 3 4
M  V30 4 1 4 5
M  V30 5 1 5 6
M  V30 6 1 6 7
M  V30 7 1 7 8
M  V30 8 1 8 9
M  V30 9 2 9 10
M  V30 10 1 10 11
M  V30 11 2 11 12
M  V30 12 1 12 13
M  V30 13 1 12 14
M  V30 14 2 14 15
M  V30 15 1 8 16
M  V30 16 2 3 17
M  V30 17 1 17 18
M  V30 18 1 18 19
M  V30 19 2 19 20
M  V30 20 1 20 21
M  V30 21 2 21 22
M  V30 22 1 22 23
M  V30 23 1 23 24
M  V30 24 2 23 25
M  V30 25 2 18 26
M  V30 26 1 26 27
M  V30 27 2 27 28
M  V30 28 1 27 2
M  V30 29 1 16 4
M  V30 30 1 25 19
M  V30 31 1 15 9
M  V30 32 1 1 29
M  V30 33 1 1 30
M  V30 34 1 1 31
M  V30 35 1 5 32
M  V30 36 1 5 33
M  V30 37 1 6 34
M  V30 38 1 6 35
M  V30 39 1 8 36 CFG=1
M  V30 40 1 10 37
M  V30 41 1 11 38
M  V30 42 1 14 39
M  V30 43 1 15 40
M  V30 44 1 16 41
M  V30 45 1 16 42
M  V30 46 1 20 43
M  V30 47 1 21 44
M  V30 48 1 25 45
M  V30 49 1 26 46
M  V30 END BOND
M  V30 END CTAB
M  END
>  <Dataset>  (891) 
ChEMBL_Kinases

>  <Ligand_Instance>  (891) 
nan

>  <PDB_ID>  (891) 
nan

>  <Standardized_SMILES>  (891) 
Cn1c(N2CCO[C@@H](c3ccc(F)cc3)C2)nc(-c2ccnc(Cl)c2)cc1=O

>  <Name>  (891) 
nan

>  <Pocket>  (891) 
nan

>  <ATP_Site>  (891) 
nan

>  <Peripheral>  (891) 
nan

>  <Num_H_Atoms_ProtBoundConf>  (891) 
nan

>  <Num_Resolved_Atoms>  (891) 
nan

>  <Num_Not_Resolved_Atoms>  (891) 
nan

$$$$
CHEMBL3091537
     RDKit          3D

  0  0  0  0  0  0  0  0  0  0999 V3000
M  V30 BEGIN CTAB
M  V30 COUNTS 46 49 0 0 0
M  V30 BEGIN ATOM
M  V30 1 C 1.542417 -4.202943 1.783502 0
M  V30 2 N 0.298179 -3.560121 1.441697 0
M  V30 3 C 0.309182 -2.309706 0.906606 0
M  V30 4 N 1.500025 -1.582915 0.652210 0
M  V30 5 C 1.926863 -1.842098 -0.690429 0
M  V30 6 C 3.180216 -1.050500 -1.024566 0
M  V30 7 O 3.130683 0.236305 -0.528361 0
M  V30 8 C 2.970976 0.375019 0.820898 0 CFG=1
M  V30 9 C 2.290557 1.702019 1.024585 0
M  V30 10 C 1.212611 1.990172 0.212871 0
M  V30 11 C 0.561359 3.183142 0.357676 0
M  V30 12 C 0.984088 4.084576 1.308445 0
M  V30 13 C 0.303495 5.341618 1.467724 0
M  V30 14 N -0.230770 6.365592 1.586945 0
M  V30 15 C 2.073997 3.817338 2.144165 0
M  V30 16 C 2.744549 2.597133 2.000185 0
M  V30 17 C 2.244068 -0.703370 1.517037 0
M  V30 18 N -0.861357 -1.714485 0.591555 0
M  V30 19 C -2.034098 -2.344030 0.800906 0
M  V30 20 C -3.253614 -1.652779 0.440177 0
M  V30 21 C -3.245432 -0.394624 -0.100440 0
M  V30 22 C -4.367490 0.344294 -0.477189 0
M  V30 23 N -5.548691 -0.285777 -0.268370 0
M  V30 24 C -5.579986 -1.520260 0.260781 0
M  V30 25 N -4.474903 -2.210112 0.615641 0
M  V30 26 C -2.107284 -3.606932 1.338182 0
M  V30 27 C -0.894831 -4.179801 1.645938 0
M  V30 28 O -0.824242 -5.322742 2.139310 0
M  V30 29 H 2.075986 -4.588370 0.916778 0
M  V30 30 H 1.286840 -5.100719 2.422177 0
M  V30 31 H 2.135326 -3.551742 2.447125 0
M  V30 32 H 2.193771 -2.911901 -0.777844 0
M  V30 33 H 1.100573 -1.600762 -1.400818 0
M  V30 34 H 3.177780 -0.946543 -2.137871 0
M  V30 35 H 4.111182 -1.604539 -0.777506 0
M  V30 36 H 3.973353 0.475338 1.284431 0
M  V30 37 H 0.890278 1.255172 -0.542162 0
M  V30 38 H -0.284586 3.428017 -0.267788 0
M  V30 39 H 2.393228 4.550209 2.893557 0
M  V30 40 H 3.598714 2.349303 2.630378 0
M  V30 41 H 1.501761 -0.241311 2.221869 0
M  V30 42 H 2.923614 -1.304078 2.183297 0
M  V30 43 H -2.254162 0.047736 -0.238387 0
M  V30 44 H -4.246299 1.334182 -0.896404 0
M  V30 45 H -6.518543 -2.043719 0.436926 0
M  V30 46 H -3.021086 -4.146758 1.522464 0
M  V30 END ATOM
M  V30 BEGIN BOND
M  V30 1 1 1 2
M  V30 2 1 2 3
M  V30 3 1 3 4
M  V30 4 1 4 5
M  V30 5 1 5 6
M  V30 6 1 6 7
M  V30 7 1 7 8
M  V30 8 1 8 9
M  V30 9 2 9 10
M  V30 10 1 10 11
M  V30 11 2 11 12
M  V30 12 1 12 13
M  V30 13 3 13 14
M  V30 14 1 12 15
M  V30 15 2 15 16
M  V30 16 1 8 17
M  V30 17 2 3 18
M  V30 18 1 18 19
M  V30 19 1 19 20
M  V30 20 2 20 21
M  V30 21 1 21 22
M  V30 22 2 22 23
M  V30 23 1 23 24
M  V30 24 2 24 25
M  V30 25 2 19 26
M  V30 26 1 26 27
M  V30 27 2 27 28
M  V30 28 1 27 2
M  V30 29 1 17 4
M  V30 30 1 25 20
M  V30 31 1 16 9
M  V30 32 1 1 29
M  V30 33 1 1 30
M  V30 34 1 1 31
M  V30 35 1 5 32
M  V30 36 1 5 33
M  V30 37 1 6 34
M  V30 38 1 6 35
M  V30 39 1 8 36 CFG=1
M  V30 40 1 10 37
M  V30 41 1 11 38
M  V30 42 1 15 39
M  V30 43 1 16 40
M  V30 44 1 17 41
M  V30 45 1 17 42
M  V30 46 1 21 43
M  V30 47 1 22 44
M  V30 48 1 24 45
M  V30 49 1 26 46
M  V30 END BOND
M  V30 END CTAB
M  END
>  <Dataset>  (892) 
ChEMBL_Kinases

>  <Ligand_Instance>  (892) 
nan

>  <PDB_ID>  (892) 
nan

>  <Standardized_SMILES>  (892) 
Cn1c(N2CCO[C@@H](c3ccc(C#N)cc3)C2)nc(-c2ccncn2)cc1=O

>  <Name>  (892) 
nan

>  <Pocket>  (892) 
nan

>  <ATP_Site>  (892) 
nan

>  <Peripheral>  (892) 
nan

>  <Num_H_Atoms_ProtBoundConf>  (892) 
nan

>  <Num_Resolved_Atoms>  (892) 
nan

>  <Num_Not_Resolved_Atoms>  (892) 
nan

$$$$
CHEMBL3091538
     RDKit          3D

  0  0  0  0  0  0  0  0  0  0999 V3000
M  V30 BEGIN CTAB
M  V30 COUNTS 49 52 0 0 0
M  V30 BEGIN ATOM
M  V30 1 C -0.908022 -7.839857 2.183184 0
M  V30 2 O 0.218278 -7.354256 1.494439 0
M  V30 3 C 0.133115 -6.066942 0.948124 0
M  V30 4 C -1.041854 -5.365761 1.120755 0
M  V30 5 C -1.113055 -4.094704 0.576248 0
M  V30 6 C -0.036615 -3.538309 -0.124156 0
M  V30 7 C -0.219706 -2.182947 -0.660925 0 CFG=1
M  V30 8 C 0.542714 -1.105666 0.067304 0
M  V30 9 N 0.045786 0.154781 -0.449904 0
M  V30 10 C -0.275590 1.154150 0.509149 0
M  V30 11 N 0.645012 2.133233 0.655165 0
M  V30 12 C 0.501502 3.153533 1.527923 0
M  V30 13 C 1.499276 4.203273 1.653992 0
M  V30 14 C 1.425321 5.277618 2.512488 0
M  V30 15 C 2.382226 6.262454 2.620648 0
M  V30 16 N 3.500041 6.203668 1.835972 0
M  V30 17 C 3.561807 5.139003 0.993021 0
M  V30 18 N 2.627405 4.177658 0.887075 0
M  V30 19 C -0.643588 3.172776 2.291603 0
M  V30 20 C -1.602747 2.176535 2.157236 0
M  V30 21 O -2.675500 2.116751 2.812422 0
M  V30 22 N -1.403012 1.185606 1.269573 0
M  V30 23 C -2.351222 0.133947 1.091041 0
M  V30 24 C -0.082327 0.334650 -1.883620 0
M  V30 25 C -0.503036 -0.968144 -2.520105 0
M  V30 26 O 0.208224 -2.064896 -2.005171 0
M  V30 27 C 1.107709 -4.272546 -0.269541 0
M  V30 28 C 1.235765 -5.560554 0.259470 0
M  V30 29 H -0.716728 -8.807215 2.684366 0
M  V30 30 H -1.170048 -7.108989 2.970655 0
M  V30 31 H -1.771093 -7.950000 1.477673 0
M  V30 32 H -1.901276 -5.747489 1.651503 0
M  V30 33 H -2.041908 -3.525301 0.706756 0
M  V30 34 H -1.287539 -1.891319 -0.668132 0
M  V30 35 H 0.562636 -1.189263 1.142793 0
M  V30 36 H 1.606562 -1.200399 -0.299359 0
M  V30 37 H 0.563419 5.365860 3.148572 0
M  V30 38 H 2.234904 7.083080 3.333299 0
M  V30 39 H 4.452862 5.106974 0.379816 0
M  V30 40 H -0.858601 3.924813 3.007176 0
M  V30 41 H -2.052160 -0.858581 1.442549 0
M  V30 42 H -3.269561 0.393082 1.687218 0
M  V30 43 H -2.734389 0.106961 0.031166 0
M  V30 44 H 0.950748 0.539373 -2.281421 0
M  V30 45 H -0.798466 1.109611 -2.157789 0
M  V30 46 H -0.425077 -0.921487 -3.618595 0
M  V30 47 H -1.573190 -1.189597 -2.264357 0
M  V30 48 H 1.896501 -3.799193 -0.811034 0
M  V30 49 H 2.147398 -6.113425 0.129336 0
M  V30 END ATOM
M  V30 BEGIN BOND
M  V30 1 1 1 2
M  V30 2 1 2 3
M  V30 3 2 3 4
M  V30 4 1 4 5
M  V30 5 2 5 6
M  V30 6 1 6 7
M  V30 7 1 7 8
M  V30 8 1 8 9
M  V30 9 1 9 10
M  V30 10 2 10 11
M  V30 11 1 11 12
M  V30 12 1 12 13
M  V30 13 2 13 14
M  V30 14 1 14 15
M  V30 15 2 15 16
M  V30 16 1 16 17
M  V30 17 2 17 18
M  V30 18 2 12 19
M  V30 19 1 19 20
M  V30 20 2 20 21
M  V30 21 1 20 22
M  V30 22 1 22 23
M  V30 23 1 9 24
M  V30 24 1 24 25
M  V30 25 1 25 26
M  V30 26 1 6 27
M  V30 27 2 27 28
M  V30 28 1 28 3
M  V30 29 1 26 7
M  V30 30 1 22 10
M  V30 31 1 18 13
M  V30 32 1 1 29
M  V30 33 1 1 30
M  V30 34 1 1 31
M  V30 35 1 4 32
M  V30 36 1 5 33
M  V30 37 1 7 34 CFG=3
M  V30 38 1 8 35
M  V30 39 1 8 36
M  V30 40 1 14 37
M  V30 41 1 15 38
M  V30 42 1 17 39
M  V30 43 1 19 40
M  V30 44 1 23 41
M  V30 45 1 23 42
M  V30 46 1 23 43
M  V30 47 1 24 44
M  V30 48 1 24 45
M  V30 49 1 25 46
M  V30 50 1 25 47
M  V30 51 1 27 48
M  V30 52 1 28 49
M  V30 END BOND
M  V30 END CTAB
M  END
>  <Dataset>  (893) 
ChEMBL_Kinases

>  <Ligand_Instance>  (893) 
nan

>  <PDB_ID>  (893) 
nan

>  <Standardized_SMILES>  (893) 
COc1ccc([C@H]2CN(c3nc(-c4ccncn4)cc(=O)n3C)CCO2)cc1

>  <Name>  (893) 
nan

>  <Pocket>  (893) 
nan

>  <ATP_Site>  (893) 
nan

>  <Peripheral>  (893) 
nan

>  <Num_H_Atoms_ProtBoundConf>  (893) 
nan

>  <Num_Resolved_Atoms>  (893) 
nan

>  <Num_Not_Resolved_Atoms>  (893) 
nan

$$$$
CHEMBL3091539
     RDKit          3D

  0  0  0  0  0  0  0  0  0  0999 V3000
M  V30 BEGIN CTAB
M  V30 COUNTS 45 48 0 0 0
M  V30 BEGIN ATOM
M  V30 1 C 1.178505 -3.045509 2.236232 0
M  V30 2 N 0.010149 -2.543147 1.571061 0
M  V30 3 C 0.131314 -1.639255 0.586433 0
M  V30 4 N 1.343535 -1.056965 0.124190 0
M  V30 5 C 1.154508 -0.197184 -1.040142 0
M  V30 6 C 2.417905 0.238408 -1.692457 0
M  V30 7 O 3.306195 0.858602 -0.836280 0
M  V30 8 C 3.373577 0.284752 0.405190 0 CFG=1
M  V30 9 C 2.935670 1.209150 1.463754 0
M  V30 10 C 3.371756 0.811763 2.722271 0
M  V30 11 C 3.052809 1.524828 3.866632 0
M  V30 12 C 2.286030 2.663984 3.805047 0
M  V30 13 C 1.849670 3.064646 2.559815 0
M  V30 14 C 2.167502 2.354766 1.422240 0
M  V30 15 F 1.788476 2.695598 0.166690 0
M  V30 16 C 2.716977 -1.068680 0.467827 0
M  V30 17 N -1.036174 -1.294290 0.042468 0
M  V30 18 C -2.246598 -1.730843 0.359378 0
M  V30 19 C -3.401373 -1.232771 -0.372554 0
M  V30 20 C -4.669226 -1.649899 -0.089905 0
M  V30 21 C -5.735578 -1.163652 -0.805315 0
M  V30 22 N -5.627190 -0.272810 -1.802813 0
M  V30 23 C -4.335538 0.132297 -2.066544 0
M  V30 24 N -3.251460 -0.334377 -1.370203 0
M  V30 25 C -2.314776 -2.650257 1.370260 0
M  V30 26 C -1.158377 -3.059306 1.983373 0
M  V30 27 O -1.237449 -3.903683 2.909526 0
M  V30 28 H 1.934683 -3.443109 1.534773 0
M  V30 29 H 1.514718 -2.345081 2.997377 0
M  V30 30 H 0.912929 -3.983132 2.836111 0
M  V30 31 H 0.438592 0.608957 -0.780996 0
M  V30 32 H 0.593945 -0.774507 -1.847835 0
M  V30 33 H 2.132133 0.949099 -2.496412 0
M  V30 34 H 2.911982 -0.631275 -2.148473 0
M  V30 35 H 4.477659 0.077530 0.594398 0
M  V30 36 H 3.984850 -0.067332 2.935243 0
M  V30 37 H 3.385820 1.226807 4.864356 0
M  V30 38 H 2.003981 3.262452 4.661210 0
M  V30 39 H 1.234014 3.962298 2.411713 0
M  V30 40 H 3.303117 -1.705668 -0.262669 0
M  V30 41 H 2.971404 -1.435680 1.489554 0
M  V30 42 H -4.838146 -2.354910 0.688318 0
M  V30 43 H -6.752587 -1.513654 -0.564781 0
M  V30 44 H -4.205230 0.848937 -2.864632 0
M  V30 45 H -3.245871 -3.050901 1.686718 0
M  V30 END ATOM
M  V30 BEGIN BOND
M  V30 1 1 1 2
M  V30 2 1 2 3
M  V30 3 1 3 4
M  V30 4 1 4 5
M  V30 5 1 5 6
M  V30 6 1 6 7
M  V30 7 1 7 8
M  V30 8 1 8 9
M  V30 9 2 9 10
M  V30 10 1 10 11
M  V30 11 2 11 12
M  V30 12 1 12 13
M  V30 13 2 13 14
M  V30 14 1 14 15
M  V30 15 1 8 16
M  V30 16 2 3 17
M  V30 17 1 17 18
M  V30 18 1 18 19
M  V30 19 2 19 20
M  V30 20 1 20 21
M  V30 21 2 21 22
M  V30 22 1 22 23
M  V30 23 2 23 24
M  V30 24 2 18 25
M  V30 25 1 25 26
M  V30 26 2 26 27
M  V30 27 1 26 2
M  V30 28 1 16 4
M  V30 29 1 24 19
M  V30 30 1 14 9
M  V30 31 1 1 28
M  V30 32 1 1 29
M  V30 33 1 1 30
M  V30 34 1 5 31
M  V30 35 1 5 32
M  V30 36 1 6 33
M  V30 37 1 6 34
M  V30 38 1 8 35 CFG=1
M  V30 39 1 10 36
M  V30 40 1 11 37
M  V30 41 1 12 38
M  V30 42 1 13 39
M  V30 43 1 16 40
M  V30 44 1 16 41
M  V30 45 1 20 42
M  V30 46 1 21 43
M  V30 47 1 23 44
M  V30 48 1 25 45
M  V30 END BOND
M  V30 END CTAB
M  END
>  <Dataset>  (894) 
ChEMBL_Kinases

>  <Ligand_Instance>  (894) 
nan

>  <PDB_ID>  (894) 
nan

>  <Standardized_SMILES>  (894) 
Cn1c(N2CCO[C@@H](c3ccccc3F)C2)nc(-c2ccncn2)cc1=O

>  <Name>  (894) 
nan

>  <Pocket>  (894) 
nan

>  <ATP_Site>  (894) 
nan

>  <Peripheral>  (894) 
nan

>  <Num_H_Atoms_ProtBoundConf>  (894) 
nan

>  <Num_Resolved_Atoms>  (894) 
nan

>  <Num_Not_Resolved_Atoms>  (894) 
nan

$$$$
CHEMBL3091540
     RDKit          3D

  0  0  0  0  0  0  0  0  0  0999 V3000
M  V30 BEGIN CTAB
M  V30 COUNTS 49 52 0 0 0
M  V30 BEGIN ATOM
M  V30 1 C -0.118255 -1.269689 3.032441 0
M  V30 2 O 0.416432 -1.821188 1.877321 0
M  V30 3 C 1.799374 -2.170786 1.663860 0
M  V30 4 C 2.401079 -1.832692 2.834692 0
M  V30 5 C 3.762859 -2.184806 2.622329 0
M  V30 6 C 4.233921 -2.735188 1.461388 0
M  V30 7 C 3.391062 -2.994598 0.363670 0
M  V30 8 C 2.000304 -2.681677 0.440804 0
M  V30 9 C 0.885211 -2.689827 -0.479928 0 CFG=1
M  V30 10 C 0.764520 -1.243339 -1.010113 0
M  V30 11 N -0.613533 -1.115283 -1.427146 0
M  V30 12 C -1.421509 -0.312132 -0.638126 0
M  V30 13 N -1.249855 0.484528 0.270383 0
M  V30 14 C -1.081366 1.284542 1.182922 0
M  V30 15 C -0.664017 2.290402 2.142051 0
M  V30 16 C 0.464621 3.062093 1.870318 0
M  V30 17 C 0.973112 3.873134 2.898746 0
M  V30 18 N 0.230962 3.701640 3.911923 0
M  V30 19 C -0.761401 3.112258 4.363230 0
M  V30 20 N -1.297666 2.295853 3.374317 0
M  V30 21 C -2.528928 1.243735 1.216019 0
M  V30 22 C -3.331104 0.441763 0.327529 0
M  V30 23 O -4.647449 0.547586 0.536136 0
M  V30 24 N -2.752850 -0.319017 -0.578659 0
M  V30 25 C -3.567439 -1.193211 -1.390506 0
M  V30 26 C -0.714386 -1.930292 -2.581063 0
M  V30 27 C 0.465593 -2.838614 -2.729327 0
M  V30 28 O 0.897703 -3.499658 -1.570161 0
M  V30 29 H 0.171640 -0.219351 3.230251 0
M  V30 30 H 0.118507 -1.874466 3.953681 0
M  V30 31 H -1.246224 -1.381674 2.918838 0
M  V30 32 H 2.081484 -1.400577 3.740984 0
M  V30 33 H 4.488135 -1.970185 3.433399 0
M  V30 34 H 5.293300 -3.014013 1.283204 0
M  V30 35 H 3.615312 -3.407624 -0.599063 0
M  V30 36 H -0.062910 -2.885758 0.056530 0
M  V30 37 H 0.976582 -0.579550 -0.172091 0
M  V30 38 H 1.421574 -1.068611 -1.864673 0
M  V30 39 H 0.892593 2.989968 0.864198 0
M  V30 40 H 1.845460 4.488714 2.720147 0
M  V30 41 H -1.337086 3.011613 5.262031 0
M  V30 42 H -3.187016 1.807060 1.948622 0
M  V30 43 H -3.472588 -2.258203 -1.038358 0
M  V30 44 H -3.436275 -1.049661 -2.452781 0
M  V30 45 H -4.646700 -0.937840 -1.187975 0
M  V30 46 H -1.640158 -2.549333 -2.660018 0
M  V30 47 H -0.661563 -1.230339 -3.473404 0
M  V30 48 H 1.330514 -2.413380 -3.281226 0
M  V30 49 H 0.111322 -3.669780 -3.421746 0
M  V30 END ATOM
M  V30 BEGIN BOND
M  V30 1 1 1 2
M  V30 2 1 2 3
M  V30 3 2 3 4
M  V30 4 1 4 5
M  V30 5 2 5 6
M  V30 6 1 6 7
M  V30 7 2 7 8
M  V30 8 1 8 9
M  V30 9 1 9 10
M  V30 10 1 10 11
M  V30 11 1 11 12
M  V30 12 2 12 13
M  V30 13 1 13 14
M  V30 14 1 14 15
M  V30 15 2 15 16
M  V30 16 1 16 17
M  V30 17 2 17 18
M  V30 18 1 18 19
M  V30 19 2 19 20
M  V30 20 2 14 21
M  V30 21 1 21 22
M  V30 22 2 22 23
M  V30 23 1 22 24
M  V30 24 1 24 25
M  V30 25 1 11 26
M  V30 26 1 26 27
M  V30 27 1 27 28
M  V30 28 1 8 3
M  V30 29 1 28 9
M  V30 30 1 24 12
M  V30 31 1 20 15
M  V30 32 1 1 29
M  V30 33 1 1 30
M  V30 34 1 1 31
M  V30 35 1 4 32
M  V30 36 1 5 33
M  V30 37 1 6 34
M  V30 38 1 7 35
M  V30 39 1 9 36 CFG=1
M  V30 40 1 10 37
M  V30 41 1 10 38
M  V30 42 1 16 39
M  V30 43 1 17 40
M  V30 44 1 19 41
M  V30 45 1 21 42
M  V30 46 1 25 43
M  V30 47 1 25 44
M  V30 48 1 25 45
M  V30 49 1 26 46
M  V30 50 1 26 47
M  V30 51 1 27 48
M  V30 52 1 27 49
M  V30 END BOND
M  V30 END CTAB
M  END
>  <Dataset>  (895) 
ChEMBL_Kinases

>  <Ligand_Instance>  (895) 
nan

>  <PDB_ID>  (895) 
nan

>  <Standardized_SMILES>  (895) 
COc1ccccc1[C@H]1CN(c2nc(-c3ccncn3)cc(=O)n2C)CCO1

>  <Name>  (895) 
nan

>  <Pocket>  (895) 
nan

>  <ATP_Site>  (895) 
nan

>  <Peripheral>  (895) 
nan

>  <Num_H_Atoms_ProtBoundConf>  (895) 
nan

>  <Num_Resolved_Atoms>  (895) 
nan

>  <Num_Not_Resolved_Atoms>  (895) 
nan

$$$$
CHEMBL3092026
     RDKit          3D

  0  0  0  0  0  0  0  0  0  0999 V3000
M  V30 BEGIN CTAB
M  V30 COUNTS 67 70 0 0 0
M  V30 BEGIN ATOM
M  V30 1 C 1.129086 -1.370001 4.446278 0
M  V30 2 O 0.860216 -1.499644 3.062635 0
M  V30 3 C 1.322024 -0.573874 2.130262 0
M  V30 4 C 2.062633 0.497421 2.577654 0
M  V30 5 C 2.557922 1.458539 1.724761 0
M  V30 6 N 3.324024 2.576394 2.165189 0
M  V30 7 C 3.902697 3.599387 1.308462 0
M  V30 8 C 3.370291 4.935778 1.815679 0
M  V30 9 N 2.333855 4.762131 2.818287 0
M  V30 10 S 1.613791 6.276807 3.182275 0
M  V30 11 C 0.835817 7.003439 1.774238 0
M  V30 12 O 2.627932 7.268431 3.688263 0
M  V30 13 O 0.570145 6.117707 4.250462 0
M  V30 14 C 2.828606 4.089679 3.974021 0
M  V30 15 C 3.657588 2.893123 3.542890 0
M  V30 16 C 2.275280 1.297999 0.386717 0
M  V30 17 C 1.530881 0.216705 -0.041250 0
M  V30 18 C 1.025309 -0.756843 0.793272 0
M  V30 19 N 0.258083 -1.879705 0.394436 0
M  V30 20 C -0.145685 -2.221184 -0.922215 0
M  V30 21 N 0.109478 -1.564280 -2.058723 0
M  V30 22 C -0.299231 -1.933137 -3.278226 0
M  V30 23 C -1.046975 -3.083349 -3.393526 0
M  V30 24 C -1.527296 -3.539092 -4.723368 0
M  V30 25 C -1.339122 -3.798648 -2.255996 0
M  V30 26 N -2.116866 -5.011790 -2.300404 0
M  V30 27 C -2.445234 -5.787102 -1.149143 0
M  V30 28 C -3.272609 -6.998348 -1.529201 0
M  V30 29 C -4.741706 -6.801483 -1.239005 0
M  V30 30 C -5.191278 -5.390013 -1.521125 0
M  V30 31 C -4.525409 -4.498267 -0.525134 0
M  V30 32 C -3.216811 -5.066661 -0.081824 0
M  V30 33 N -0.876174 -3.326861 -1.115655 0
M  V30 34 H 0.537252 -0.580153 4.941969 0
M  V30 35 H 0.802773 -2.332375 4.924125 0
M  V30 36 H 2.194239 -1.271131 4.669012 0
M  V30 37 H 2.238631 0.550679 3.635289 0
M  V30 38 H 3.732786 3.463612 0.243784 0
M  V30 39 H 5.009660 3.617017 1.554397 0
M  V30 40 H 4.155172 5.567792 2.273683 0
M  V30 41 H 2.947486 5.508529 0.960189 0
M  V30 42 H 0.133648 6.293796 1.260326 0
M  V30 43 H 1.551537 7.469524 1.072574 0
M  V30 44 H 0.161440 7.816025 2.164652 0
M  V30 45 H 3.457478 4.820715 4.550785 0
M  V30 46 H 1.978751 3.793215 4.617741 0
M  V30 47 H 4.746031 3.104503 3.616023 0
M  V30 48 H 3.372120 2.061162 4.204182 0
M  V30 49 H 2.599997 1.974111 -0.382793 0
M  V30 50 H 1.336009 0.132494 -1.091247 0
M  V30 51 H -0.047052 -2.535762 1.164990 0
M  V30 52 H -0.034609 -1.322156 -4.138688 0
M  V30 53 H -2.623209 -3.401675 -4.825607 0
M  V30 54 H -1.194331 -4.563669 -4.914622 0
M  V30 55 H -1.079778 -2.884955 -5.511682 0
M  V30 56 H -2.449113 -5.324034 -3.238638 0
M  V30 57 H -1.528403 -6.181392 -0.666935 0
M  V30 58 H -2.981183 -7.914866 -0.946527 0
M  V30 59 H -3.134199 -7.230598 -2.610612 0
M  V30 60 H -5.361687 -7.464053 -1.857131 0
M  V30 61 H -4.963787 -7.028773 -0.194594 0
M  V30 62 H -6.287922 -5.377716 -1.343814 0
M  V30 63 H -4.953920 -5.052991 -2.543058 0
M  V30 64 H -5.190175 -4.423043 0.383537 0
M  V30 65 H -4.483169 -3.480687 -0.943240 0
M  V30 66 H -3.466445 -5.859226 0.682437 0
M  V30 67 H -2.616528 -4.337390 0.493280 0
M  V30 END ATOM
M  V30 BEGIN BOND
M  V30 1 1 1 2
M  V30 2 1 2 3
M  V30 3 2 3 4
M  V30 4 1 4 5
M  V30 5 1 5 6
M  V30 6 1 6 7
M  V30 7 1 7 8
M  V30 8 1 8 9
M  V30 9 1 9 10
M  V30 10 1 10 11
M  V30 11 2 10 12
M  V30 12 2 10 13
M  V30 13 1 9 14
M  V30 14 1 14 15
M  V30 15 2 5 16
M  V30 16 1 16 17
M  V30 17 2 17 18
M  V30 18 1 18 19
M  V30 19 1 19 20
M  V30 20 2 20 21
M  V30 21 1 21 22
M  V30 22 2 22 23
M  V30 23 1 23 24
M  V30 24 1 23 25
M  V30 25 1 25 26
M  V30 26 1 26 27
M  V30 27 1 27 28
M  V30 28 1 28 29
M  V30 29 1 29 30
M  V30 30 1 30 31
M  V30 31 1 31 32
M  V30 32 2 25 33
M  V30 33 1 18 3
M  V30 34 1 33 20
M  V30 35 1 15 6
M  V30 36 1 32 27
M  V30 37 1 1 34
M  V30 38 1 1 35
M  V30 39 1 1 36
M  V30 40 1 4 37
M  V30 41 1 7 38
M  V30 42 1 7 39
M  V30 43 1 8 40
M  V30 44 1 8 41
M  V30 45 1 11 42
M  V30 46 1 11 43
M  V30 47 1 11 44
M  V30 48 1 14 45
M  V30 49 1 14 46
M  V30 50 1 15 47
M  V30 51 1 15 48
M  V30 52 1 16 49
M  V30 53 1 17 50
M  V30 54 1 19 51
M  V30 55 1 22 52
M  V30 56 1 24 53
M  V30 57 1 24 54
M  V30 58 1 24 55
M  V30 59 1 26 56
M  V30 60 1 27 57
M  V30 61 1 28 58
M  V30 62 1 28 59
M  V30 63 1 29 60
M  V30 64 1 29 61
M  V30 65 1 30 62
M  V30 66 1 30 63
M  V30 67 1 31 64
M  V30 68 1 31 65
M  V30 69 1 32 66
M  V30 70 1 32 67
M  V30 END BOND
M  V30 END CTAB
M  END
>  <Dataset>  (896) 
ChEMBL_Kinases

>  <Ligand_Instance>  (896) 
nan

>  <PDB_ID>  (896) 
nan

>  <Standardized_SMILES>  (896) 
COc1cc(N2CCN(S(C)(=O)=O)CC2)ccc1Nc1ncc(C)c(NC2CCCCC2)n1

>  <Name>  (896) 
nan

>  <Pocket>  (896) 
nan

>  <ATP_Site>  (896) 
nan

>  <Peripheral>  (896) 
nan

>  <Num_H_Atoms_ProtBoundConf>  (896) 
nan

>  <Num_Resolved_Atoms>  (896) 
nan

>  <Num_Not_Resolved_Atoms>  (896) 
nan

$$$$
CHEMBL3091542
     RDKit          3D

  0  0  0  0  0  0  0  0  0  0999 V3000
M  V30 BEGIN CTAB
M  V30 COUNTS 53 56 0 0 0
M  V30 BEGIN ATOM
M  V30 1 C 1.051614 2.888562 -1.128716 0
M  V30 2 O 1.325152 1.499920 -1.106843 0
M  V30 3 C 2.352267 1.074270 -0.278904 0
M  V30 4 C 3.084893 1.947693 0.495498 0
M  V30 5 C 4.105359 1.499325 1.311014 0
M  V30 6 C 4.317377 0.140054 1.280751 0
M  V30 7 C 3.616943 -0.775438 0.527868 0
M  V30 8 O 3.907308 -2.132906 0.565922 0
M  V30 9 C 4.959616 -2.547281 1.414401 0
M  V30 10 C 2.580899 -0.300225 -0.296580 0
M  V30 11 C 1.861895 -1.332829 -1.056040 0 CFG=1
M  V30 12 C 0.926377 -2.211170 -0.304807 0
M  V30 13 N -0.383773 -1.713215 -0.145685 0
M  V30 14 C -1.394695 -1.853200 0.868312 0
M  V30 15 N -2.474714 -1.054536 0.923111 0
M  V30 16 C -3.465191 -1.103121 1.803771 0
M  V30 17 C -4.556675 -0.141463 1.691164 0
M  V30 18 C -4.502293 0.783374 0.658619 0
M  V30 19 C -5.604864 1.646502 0.657089 0
M  V30 20 N -6.616800 1.612220 1.539067 0
M  V30 21 C -6.605419 0.689740 2.514781 0
M  V30 22 N -5.560437 -0.186935 2.577995 0
M  V30 23 C -3.410946 -2.062882 2.778496 0
M  V30 24 C -2.328015 -2.904227 2.764755 0
M  V30 25 O -2.310960 -3.774229 3.674117 0
M  V30 26 N -1.365832 -2.786984 1.833939 0
M  V30 27 C -0.320912 -3.780255 1.950864 0
M  V30 28 C -0.898827 -0.887045 -1.252300 0
M  V30 29 C 0.009516 -1.094142 -2.414798 0
M  V30 30 O 1.317208 -0.771410 -2.174137 0
M  V30 31 H 2.003113 3.425216 -1.327013 0
M  V30 32 H 0.260881 3.141890 -1.873924 0
M  V30 33 H 0.688161 3.271118 -0.144303 0
M  V30 34 H 2.863743 3.000015 0.469310 0
M  V30 35 H 4.713176 2.132390 1.939417 0
M  V30 36 H 5.112841 -0.238959 1.913775 0
M  V30 37 H 4.801970 -2.188564 2.463437 0
M  V30 38 H 5.890808 -2.027863 1.079122 0
M  V30 39 H 5.123702 -3.635423 1.408795 0
M  V30 40 H 2.676994 -2.023857 -1.444501 0
M  V30 41 H 0.827263 -3.151374 -0.928974 0
M  V30 42 H 1.424630 -2.571298 0.631444 0
M  V30 43 H -3.720615 0.861367 -0.077387 0
M  V30 44 H -5.588296 2.392362 -0.152422 0
M  V30 45 H -7.329848 0.524024 3.296834 0
M  V30 46 H -4.204441 -2.123000 3.507388 0
M  V30 47 H -0.716035 -4.686608 2.530682 0
M  V30 48 H 0.527054 -3.458358 2.555771 0
M  V30 49 H -0.076657 -4.257283 0.969323 0
M  V30 50 H -0.998327 0.137322 -0.882024 0
M  V30 51 H -1.903104 -1.274996 -1.570095 0
M  V30 52 H -0.050816 -2.162370 -2.701137 0
M  V30 53 H -0.356205 -0.467900 -3.268641 0
M  V30 END ATOM
M  V30 BEGIN BOND
M  V30 1 1 1 2
M  V30 2 1 2 3
M  V30 3 2 3 4
M  V30 4 1 4 5
M  V30 5 2 5 6
M  V30 6 1 6 7
M  V30 7 1 7 8
M  V30 8 1 8 9
M  V30 9 2 7 10
M  V30 10 1 10 11
M  V30 11 1 11 12
M  V30 12 1 12 13
M  V30 13 1 13 14
M  V30 14 2 14 15
M  V30 15 1 15 16
M  V30 16 1 16 17
M  V30 17 2 17 18
M  V30 18 1 18 19
M  V30 19 2 19 20
M  V30 20 1 20 21
M  V30 21 2 21 22
M  V30 22 2 16 23
M  V30 23 1 23 24
M  V30 24 2 24 25
M  V30 25 1 24 26
M  V30 26 1 26 27
M  V30 27 1 13 28
M  V30 28 1 28 29
M  V30 29 1 29 30
M  V30 30 1 10 3
M  V30 31 1 30 11
M  V30 32 1 26 14
M  V30 33 1 22 17
M  V30 34 1 1 31
M  V30 35 1 1 32
M  V30 36 1 1 33
M  V30 37 1 4 34
M  V30 38 1 5 35
M  V30 39 1 6 36
M  V30 40 1 9 37
M  V30 41 1 9 38
M  V30 42 1 9 39
M  V30 43 1 11 40 CFG=3
M  V30 44 1 12 41
M  V30 45 1 12 42
M  V30 46 1 18 43
M  V30 47 1 19 44
M  V30 48 1 21 45
M  V30 49 1 23 46
M  V30 50 1 27 47
M  V30 51 1 27 48
M  V30 52 1 27 49
M  V30 53 1 28 50
M  V30 54 1 28 51
M  V30 55 1 29 52
M  V30 56 1 29 53
M  V30 END BOND
M  V30 END CTAB
M  END
>  <Dataset>  (897) 
ChEMBL_Kinases

>  <Ligand_Instance>  (897) 
nan

>  <PDB_ID>  (897) 
nan

>  <Standardized_SMILES>  (897) 
COc1cccc(OC)c1[C@H]1CN(c2nc(-c3ccncn3)cc(=O)n2C)CCO1

>  <Name>  (897) 
nan

>  <Pocket>  (897) 
nan

>  <ATP_Site>  (897) 
nan

>  <Peripheral>  (897) 
nan

>  <Num_H_Atoms_ProtBoundConf>  (897) 
nan

>  <Num_Resolved_Atoms>  (897) 
nan

>  <Num_Not_Resolved_Atoms>  (897) 
nan

$$$$
CHEMBL3091543
     RDKit          3D

  0  0  0  0  0  0  0  0  0  0999 V3000
M  V30 BEGIN CTAB
M  V30 COUNTS 46 49 0 0 0
M  V30 BEGIN ATOM
M  V30 1 C 0.981301 -3.647968 3.557776 0
M  V30 2 N -0.023945 -3.297924 2.577127 0
M  V30 3 C 0.224317 -2.293871 1.729449 0
M  V30 4 N 1.398128 -1.498125 1.653076 0
M  V30 5 C 2.624371 -1.515565 2.374390 0
M  V30 6 C 3.668368 -0.768646 1.527663 0
M  V30 7 O 3.366344 0.587363 1.461570 0
M  V30 8 C 1.991106 0.796903 1.353282 0 CFG=1
M  V30 9 C 1.652978 2.034184 0.651507 0
M  V30 10 C 2.596936 2.398438 -0.314464 0
M  V30 11 C 2.427730 3.550004 -1.073238 0
M  V30 12 C 1.306238 4.343752 -0.864918 0
M  V30 13 C 1.093714 5.556420 -1.638863 0
M  V30 14 N 0.929877 6.538010 -2.244094 0
M  V30 15 C 0.375190 3.968282 0.100254 0
M  V30 16 C 0.540762 2.809935 0.866882 0
M  V30 17 F -0.328403 2.405050 1.809788 0
M  V30 18 C 1.428882 -0.429617 0.670619 0
M  V30 19 N -0.772781 -2.047693 0.864934 0
M  V30 20 C -1.933202 -2.691196 0.786389 0
M  V30 21 C -2.946414 -2.332824 -0.199260 0
M  V30 22 C -2.745009 -1.305848 -1.097676 0
M  V30 23 C -3.707719 -0.973766 -2.025736 0
M  V30 24 N -4.867420 -1.680708 -2.040621 0
M  V30 25 C -5.051977 -2.685917 -1.153451 0
M  V30 26 N -4.093407 -2.986912 -0.258968 0
M  V30 27 C -2.168896 -3.719506 1.665662 0
M  V30 28 C -1.169942 -4.001222 2.567012 0
M  V30 29 O -1.343043 -4.934559 3.390482 0
M  V30 30 H 0.472501 -4.263703 4.369072 0
M  V30 31 H 1.384340 -2.789566 4.120680 0
M  V30 32 H 1.733382 -4.346773 3.152085 0
M  V30 33 H 2.616296 -0.938901 3.330085 0
M  V30 34 H 3.082288 -2.535220 2.488423 0
M  V30 35 H 4.611619 -0.829580 2.130951 0
M  V30 36 H 3.867948 -1.251706 0.571465 0
M  V30 37 H 1.583065 0.818139 2.383989 0
M  V30 38 H 3.503355 1.880812 -0.577746 0
M  V30 39 H 3.115357 3.889682 -1.833723 0
M  V30 40 H -0.501808 4.577715 0.271743 0
M  V30 41 H 2.061599 -0.744709 -0.177258 0
M  V30 42 H 0.401469 -0.219146 0.297862 0
M  V30 43 H -1.842618 -0.732054 -1.109625 0
M  V30 44 H -3.594315 -0.175005 -2.751184 0
M  V30 45 H -5.982397 -3.258969 -1.159462 0
M  V30 46 H -3.077866 -4.303958 1.683973 0
M  V30 END ATOM
M  V30 BEGIN BOND
M  V30 1 1 1 2
M  V30 2 1 2 3
M  V30 3 1 3 4
M  V30 4 1 4 5
M  V30 5 1 5 6
M  V30 6 1 6 7
M  V30 7 1 7 8
M  V30 8 1 8 9
M  V30 9 2 9 10
M  V30 10 1 10 11
M  V30 11 2 11 12
M  V30 12 1 12 13
M  V30 13 3 13 14
M  V30 14 1 12 15
M  V30 15 2 15 16
M  V30 16 1 16 17
M  V30 17 1 8 18
M  V30 18 2 3 19
M  V30 19 1 19 20
M  V30 20 1 20 21
M  V30 21 2 21 22
M  V30 22 1 22 23
M  V30 23 2 23 24
M  V30 24 1 24 25
M  V30 25 2 25 26
M  V30 26 2 20 27
M  V30 27 1 27 28
M  V30 28 2 28 29
M  V30 29 1 28 2
M  V30 30 1 18 4
M  V30 31 1 26 21
M  V30 32 1 16 9
M  V30 33 1 1 30
M  V30 34 1 1 31
M  V30 35 1 1 32
M  V30 36 1 5 33
M  V30 37 1 5 34
M  V30 38 1 6 35
M  V30 39 1 6 36
M  V30 40 1 8 37 CFG=1
M  V30 41 1 10 38
M  V30 42 1 11 39
M  V30 43 1 15 40
M  V30 44 1 18 41
M  V30 45 1 18 42
M  V30 46 1 22 43
M  V30 47 1 23 44
M  V30 48 1 25 45
M  V30 49 1 27 46
M  V30 END BOND
M  V30 END CTAB
M  END
>  <Dataset>  (898) 
ChEMBL_Kinases

>  <Ligand_Instance>  (898) 
nan

>  <PDB_ID>  (898) 
nan

>  <Standardized_SMILES>  (898) 
Cn1c(N2CCO[C@@H](c3ccc(C#N)cc3F)C2)nc(-c2ccncn2)cc1=O

>  <Name>  (898) 
nan

>  <Pocket>  (898) 
nan

>  <ATP_Site>  (898) 
nan

>  <Peripheral>  (898) 
nan

>  <Num_H_Atoms_ProtBoundConf>  (898) 
nan

>  <Num_Resolved_Atoms>  (898) 
nan

>  <Num_Not_Resolved_Atoms>  (898) 
nan

$$$$
CHEMBL3091544
     RDKit          3D

  0  0  0  0  0  0  0  0  0  0999 V3000
M  V30 BEGIN CTAB
M  V30 COUNTS 45 48 0 0 0
M  V30 BEGIN ATOM
M  V30 1 C 1.518531 -2.554830 2.150763 0
M  V30 2 N 0.262640 -2.744716 1.433758 0
M  V30 3 C -0.333814 -1.648325 0.942686 0
M  V30 4 N 0.069881 -0.292642 1.054646 0
M  V30 5 C -0.754244 0.645886 0.293870 0
M  V30 6 C 0.054375 1.827903 -0.118482 0
M  V30 7 O 1.374479 1.587990 -0.392732 0
M  V30 8 C 2.061287 1.072234 0.692708 0 CFG=1
M  V30 9 C 2.981369 2.061167 1.276932 0
M  V30 10 C 2.990004 3.423442 1.144114 0
M  V30 11 F 2.065188 3.998269 0.351515 0
M  V30 12 C 3.872087 4.298283 1.729109 0
M  V30 13 C 4.865518 3.793906 2.539611 0
M  V30 14 C 4.923218 2.427459 2.722853 0
M  V30 15 C 3.998250 1.596976 2.100909 0
M  V30 16 Cl 4.277221 -0.089709 2.480842 0
M  V30 17 C 1.052345 0.507132 1.695231 0
M  V30 18 N -1.480169 -1.920688 0.272485 0
M  V30 19 C -1.968904 -3.151577 0.114628 0
M  V30 20 C -3.206730 -3.314488 -0.637930 0
M  V30 21 C -3.875737 -2.241485 -1.184156 0
M  V30 22 C -5.033207 -2.495501 -1.885039 0
M  V30 23 N -5.553381 -3.740211 -2.069248 0
M  V30 24 C -4.851616 -4.757587 -1.508725 0
M  V30 25 N -3.698361 -4.553550 -0.804584 0
M  V30 26 C -1.302486 -4.218199 0.646272 0
M  V30 27 C -0.136473 -4.015768 1.336745 0
M  V30 28 O 0.506808 -4.965667 1.842708 0
M  V30 29 H 2.020338 -3.547867 2.343836 0
M  V30 30 H 2.218896 -1.976109 1.543436 0
M  V30 31 H 1.272483 -2.176332 3.145799 0
M  V30 32 H -1.211980 0.168533 -0.600821 0
M  V30 33 H -1.590368 0.967304 0.985071 0
M  V30 34 H -0.406646 2.335520 -1.031472 0
M  V30 35 H -0.094401 2.606465 0.687017 0
M  V30 36 H 2.706303 0.251818 0.293619 0
M  V30 37 H 3.817344 5.358382 1.578351 0
M  V30 38 H 5.563653 4.473500 3.005453 0
M  V30 39 H 5.727831 2.105868 3.369657 0
M  V30 40 H 1.576683 0.015158 2.525580 0
M  V30 41 H 0.550041 1.415498 2.146727 0
M  V30 42 H -3.478438 -1.259742 -1.046318 0
M  V30 43 H -5.593790 -1.667990 -2.335401 0
M  V30 44 H -5.240660 -5.762818 -1.640105 0
M  V30 45 H -1.686533 -5.215896 0.528228 0
M  V30 END ATOM
M  V30 BEGIN BOND
M  V30 1 1 1 2
M  V30 2 1 2 3
M  V30 3 1 3 4
M  V30 4 1 4 5
M  V30 5 1 5 6
M  V30 6 1 6 7
M  V30 7 1 7 8
M  V30 8 1 8 9
M  V30 9 2 9 10
M  V30 10 1 10 11
M  V30 11 1 10 12
M  V30 12 2 12 13
M  V30 13 1 13 14
M  V30 14 2 14 15
M  V30 15 1 15 16
M  V30 16 1 8 17
M  V30 17 2 3 18
M  V30 18 1 18 19
M  V30 19 1 19 20
M  V30 20 2 20 21
M  V30 21 1 21 22
M  V30 22 2 22 23
M  V30 23 1 23 24
M  V30 24 2 24 25
M  V30 25 2 19 26
M  V30 26 1 26 27
M  V30 27 2 27 28
M  V30 28 1 27 2
M  V30 29 1 17 4
M  V30 30 1 25 20
M  V30 31 1 15 9
M  V30 32 1 1 29
M  V30 33 1 1 30
M  V30 34 1 1 31
M  V30 35 1 5 32
M  V30 36 1 5 33
M  V30 37 1 6 34
M  V30 38 1 6 35
M  V30 39 1 8 36 CFG=3
M  V30 40 1 12 37
M  V30 41 1 13 38
M  V30 42 1 14 39
M  V30 43 1 17 40
M  V30 44 1 17 41
M  V30 45 1 21 42
M  V30 46 1 22 43
M  V30 47 1 24 44
M  V30 48 1 26 45
M  V30 END BOND
M  V30 END CTAB
M  END
>  <Dataset>  (899) 
ChEMBL_Kinases

>  <Ligand_Instance>  (899) 
nan

>  <PDB_ID>  (899) 
nan

>  <Standardized_SMILES>  (899) 
Cn1c(N2CCO[C@@H](c3c(F)cccc3Cl)C2)nc(-c2ccncn2)cc1=O

>  <Name>  (899) 
nan

>  <Pocket>  (899) 
nan

>  <ATP_Site>  (899) 
nan

>  <Peripheral>  (899) 
nan

>  <Num_H_Atoms_ProtBoundConf>  (899) 
nan

>  <Num_Resolved_Atoms>  (899) 
nan

>  <Num_Not_Resolved_Atoms>  (899) 
nan

$$$$
CHEMBL3091545
     RDKit          3D

  0  0  0  0  0  0  0  0  0  0999 V3000
M  V30 BEGIN CTAB
M  V30 COUNTS 40 42 0 0 0
M  V30 BEGIN ATOM
M  V30 1 C 1.507731 -4.086764 3.150421 0
M  V30 2 N 0.519290 -3.032715 2.934895 0
M  V30 3 C 0.903330 -2.035077 2.087215 0
M  V30 4 N 2.187967 -2.041006 1.464460 0
M  V30 5 C 2.540743 -0.949869 0.570252 0
M  V30 6 C 1.595390 -0.875042 -0.575708 0
M  V30 7 O 0.637851 -1.671021 -0.706855 0
M  V30 8 C 1.803981 0.162825 -1.568087 0
M  V30 9 C 0.891705 0.189069 -2.619632 0
M  V30 10 C 1.020687 1.158084 -3.619716 0
M  V30 11 C 2.063897 2.057819 -3.515251 0
M  V30 12 C 2.964097 2.024883 -2.469316 0
M  V30 13 C 2.835187 1.066638 -1.481868 0
M  V30 14 N 0.025365 -1.022852 1.845492 0
M  V30 15 C -1.195950 -0.971010 2.406943 0
M  V30 16 C -2.056456 0.158554 2.079028 0
M  V30 17 C -1.558287 1.105571 1.209214 0
M  V30 18 C -2.308791 2.215862 0.840357 0
M  V30 19 N -3.550652 2.343088 1.361850 0
M  V30 20 C -4.070479 1.432044 2.218415 0
M  V30 21 C -3.318888 0.335932 2.577361 0
M  V30 22 C -1.560406 -1.992228 3.260677 0
M  V30 23 C -0.694971 -3.037204 3.530188 0
M  V30 24 O -1.003817 -3.969355 4.297842 0
M  V30 25 H 1.015510 -4.896906 3.711814 0
M  V30 26 H 1.829314 -4.537000 2.178439 0
M  V30 27 H 2.423579 -3.695782 3.623803 0
M  V30 28 H 2.826996 -2.822149 1.669679 0
M  V30 29 H 3.584487 -1.007497 0.256164 0
M  V30 30 H 2.433960 0.028366 1.106917 0
M  V30 31 H 0.060128 -0.515007 -2.718408 0
M  V30 32 H 0.295588 1.159072 -4.432052 0
M  V30 33 H 2.107828 2.791502 -4.332543 0
M  V30 34 H 3.764849 2.777527 -2.462390 0
M  V30 35 H 3.529049 1.035944 -0.669400 0
M  V30 36 H -0.580917 1.082633 0.747698 0
M  V30 37 H -1.936707 2.978408 0.154149 0
M  V30 38 H -5.075563 1.572412 2.615700 0
M  V30 39 H -3.726078 -0.392475 3.258105 0
M  V30 40 H -2.527067 -1.973718 3.719974 0
M  V30 END ATOM
M  V30 BEGIN BOND
M  V30 1 1 1 2
M  V30 2 1 2 3
M  V30 3 1 3 4
M  V30 4 1 4 5
M  V30 5 1 5 6
M  V30 6 2 6 7
M  V30 7 1 6 8
M  V30 8 2 8 9
M  V30 9 1 9 10
M  V30 10 2 10 11
M  V30 11 1 11 12
M  V30 12 2 12 13
M  V30 13 2 3 14
M  V30 14 1 14 15
M  V30 15 1 15 16
M  V30 16 2 16 17
M  V30 17 1 17 18
M  V30 18 2 18 19
M  V30 19 1 19 20
M  V30 20 2 20 21
M  V30 21 2 15 22
M  V30 22 1 22 23
M  V30 23 2 23 24
M  V30 24 1 23 2
M  V30 25 1 13 8
M  V30 26 1 21 16
M  V30 27 1 1 25
M  V30 28 1 1 26
M  V30 29 1 1 27
M  V30 30 1 4 28
M  V30 31 1 5 29
M  V30 32 1 5 30
M  V30 33 1 9 31
M  V30 34 1 10 32
M  V30 35 1 11 33
M  V30 36 1 12 34
M  V30 37 1 13 35
M  V30 38 1 17 36
M  V30 39 1 18 37
M  V30 40 1 20 38
M  V30 41 1 21 39
M  V30 42 1 22 40
M  V30 END BOND
M  V30 END CTAB
M  END
>  <Dataset>  (900) 
ChEMBL_Kinases

>  <Ligand_Instance>  (900) 
nan

>  <PDB_ID>  (900) 
nan

>  <Standardized_SMILES>  (900) 
Cn1c(NCC(=O)c2ccccc2)nc(-c2ccncc2)cc1=O

>  <Name>  (900) 
nan

>  <Pocket>  (900) 
nan

>  <ATP_Site>  (900) 
nan

>  <Peripheral>  (900) 
nan

>  <Num_H_Atoms_ProtBoundConf>  (900) 
nan

>  <Num_Resolved_Atoms>  (900) 
nan

>  <Num_Not_Resolved_Atoms>  (900) 
nan

$$$$
CHEMBL3091546
     RDKit          3D

  0  0  0  0  0  0  0  0  0  0999 V3000
M  V30 BEGIN CTAB
M  V30 COUNTS 46 49 0 0 0
M  V30 BEGIN ATOM
M  V30 1 C 1.057854 -3.737551 2.633333 0
M  V30 2 N -0.072588 -3.363199 1.834414 0
M  V30 3 C -0.166739 -2.057094 1.549514 0
M  V30 4 N 0.626649 -0.936168 1.891470 0
M  V30 5 C 0.070686 -0.080617 2.956325 0
M  V30 6 C -0.053020 1.272241 2.231437 0
M  V30 7 O 1.192239 1.779752 2.011866 0
M  V30 8 C 2.220648 0.919215 1.773572 0
M  V30 9 C 3.120283 1.615284 0.809834 0
M  V30 10 C 3.751760 1.172270 -0.326535 0
M  V30 11 C 4.535049 1.954440 -1.108274 0
M  V30 12 C 4.740106 3.268874 -0.789387 0
M  V30 13 C 4.146076 3.795887 0.333486 0
M  V30 14 C 3.350753 2.962441 1.108304 0
M  V30 15 C 1.905172 -0.460799 1.357046 0
M  V30 16 N -1.232256 -1.661186 0.789302 0
M  V30 17 C -2.165639 -2.495742 0.325729 0
M  V30 18 C -3.275432 -1.947739 -0.483808 0
M  V30 19 C -3.255673 -0.570002 -0.700240 0
M  V30 20 C -4.231583 0.059542 -1.442739 0
M  V30 21 N -5.252627 -0.667136 -1.989275 0
M  V30 22 C -5.245565 -1.983225 -1.766084 0
M  V30 23 C -4.282327 -2.674610 -1.021543 0
M  V30 24 C -2.095540 -3.827584 0.599171 0
M  V30 25 C -1.021557 -4.196097 1.360089 0
M  V30 26 O -0.840099 -5.418004 1.686510 0
M  V30 27 H 1.199096 -4.852452 2.490280 0
M  V30 28 H 2.010939 -3.295356 2.336587 0
M  V30 29 H 0.842269 -3.542108 3.711798 0
M  V30 30 H 0.731431 -0.009294 3.819288 0
M  V30 31 H -0.973123 -0.347006 3.210886 0
M  V30 32 H -0.494268 1.070225 1.209557 0
M  V30 33 H -0.701465 1.961410 2.799217 0
M  V30 34 H 2.840299 0.868856 2.723448 0
M  V30 35 H 3.569719 0.129920 -0.543236 0
M  V30 36 H 4.980185 1.483018 -1.980183 0
M  V30 37 H 5.368911 3.912060 -1.415987 0
M  V30 38 H 4.300375 4.830247 0.600736 0
M  V30 39 H 2.920182 3.438033 1.968713 0
M  V30 40 H 2.681521 -1.129124 1.778763 0
M  V30 41 H 1.924791 -0.630604 0.255708 0
M  V30 42 H -2.479337 0.067465 -0.298797 0
M  V30 43 H -4.194911 1.132838 -1.602176 0
M  V30 44 H -6.049253 -2.576977 -2.195006 0
M  V30 45 H -4.300051 -3.733444 -0.857455 0
M  V30 46 H -2.815645 -4.547370 0.252244 0
M  V30 END ATOM
M  V30 BEGIN BOND
M  V30 1 1 1 2
M  V30 2 1 2 3
M  V30 3 1 3 4
M  V30 4 1 4 5
M  V30 5 1 5 6
M  V30 6 1 6 7
M  V30 7 1 7 8
M  V30 8 1 8 9
M  V30 9 2 9 10
M  V30 10 1 10 11
M  V30 11 2 11 12
M  V30 12 1 12 13
M  V30 13 2 13 14
M  V30 14 1 8 15
M  V30 15 2 3 16
M  V30 16 1 16 17
M  V30 17 1 17 18
M  V30 18 2 18 19
M  V30 19 1 19 20
M  V30 20 2 20 21
M  V30 21 1 21 22
M  V30 22 2 22 23
M  V30 23 2 17 24
M  V30 24 1 24 25
M  V30 25 2 25 26
M  V30 26 1 25 2
M  V30 27 1 15 4
M  V30 28 1 23 18
M  V30 29 1 14 9
M  V30 30 1 1 27
M  V30 31 1 1 28
M  V30 32 1 1 29
M  V30 33 1 5 30
M  V30 34 1 5 31
M  V30 35 1 6 32
M  V30 36 1 6 33
M  V30 37 1 8 34
M  V30 38 1 10 35
M  V30 39 1 11 36
M  V30 40 1 12 37
M  V30 41 1 13 38
M  V30 42 1 14 39
M  V30 43 1 15 40
M  V30 44 1 15 41
M  V30 45 1 19 42
M  V30 46 1 20 43
M  V30 47 1 22 44
M  V30 48 1 23 45
M  V30 49 1 24 46
M  V30 END BOND
M  V30 END CTAB
M  END
>  <Dataset>  (901) 
ChEMBL_Kinases

>  <Ligand_Instance>  (901) 
nan

>  <PDB_ID>  (901) 
nan

>  <Standardized_SMILES>  (901) 
Cn1c(N2CCOC(c3ccccc3)C2)nc(-c2ccncc2)cc1=O

>  <Name>  (901) 
nan

>  <Pocket>  (901) 
nan

>  <ATP_Site>  (901) 
nan

>  <Peripheral>  (901) 
nan

>  <Num_H_Atoms_ProtBoundConf>  (901) 
nan

>  <Num_Resolved_Atoms>  (901) 
nan

>  <Num_Not_Resolved_Atoms>  (901) 
nan

$$$$
CHEMBL3091547
     RDKit          3D

  0  0  0  0  0  0  0  0  0  0999 V3000
M  V30 BEGIN CTAB
M  V30 COUNTS 46 49 0 0 0
M  V30 BEGIN ATOM
M  V30 1 C 1.337954 -2.909106 2.971261 0
M  V30 2 N 0.097224 -2.586761 2.319277 0
M  V30 3 C 0.128633 -1.798803 1.232681 0
M  V30 4 N 1.248561 -1.193048 0.614532 0
M  V30 5 C 1.035581 -0.418748 -0.597868 0
M  V30 6 C 2.179726 -0.567004 -1.572955 0
M  V30 7 O 3.377327 -0.145651 -1.052803 0
M  V30 8 C 3.397781 -0.021027 0.308120 0
M  V30 9 C 3.006141 1.311895 0.766966 0
M  V30 10 C 3.630811 2.274141 -0.038319 0
M  V30 11 C 3.435662 3.641169 0.188346 0
M  V30 12 C 2.615632 4.058904 1.220291 0
M  V30 13 F 2.382069 5.373456 1.496646 0
M  V30 14 C 2.006885 3.103744 2.004953 0
M  V30 15 C 2.198004 1.768483 1.783069 0
M  V30 16 C 2.644236 -1.164680 0.938956 0
M  V30 17 N -1.076340 -1.564813 0.688302 0
M  V30 18 C -2.244992 -2.019976 1.106923 0
M  V30 19 C -3.470049 -1.677418 0.400306 0
M  V30 20 C -4.708651 -2.128465 0.801565 0
M  V30 21 C -5.898894 -1.836093 0.165178 0
M  V30 22 N -5.869687 -1.056461 -0.927747 0
M  V30 23 C -4.674322 -0.594481 -1.352963 0
M  V30 24 C -3.457815 -0.878545 -0.722860 0
M  V30 25 C -2.237298 -2.813131 2.209225 0
M  V30 26 C -1.040895 -3.096071 2.819075 0
M  V30 27 O -0.992743 -3.829289 3.844712 0
M  V30 28 H 2.115736 -3.269869 2.285489 0
M  V30 29 H 1.668874 -2.157056 3.718769 0
M  V30 30 H 1.137530 -3.824380 3.624135 0
M  V30 31 H 0.143614 -0.842228 -1.159196 0
M  V30 32 H 0.733868 0.626577 -0.409314 0
M  V30 33 H 1.865934 -0.067007 -2.513696 0
M  V30 34 H 2.263148 -1.649133 -1.809516 0
M  V30 35 H 4.473660 -0.142628 0.613457 0
M  V30 36 H 4.308123 2.127531 -0.893489 0
M  V30 37 H 3.885808 4.430659 -0.394022 0
M  V30 38 H 1.343548 3.357467 2.839903 0
M  V30 39 H 1.776551 0.925203 2.330322 0
M  V30 40 H 3.148765 -2.091805 0.525794 0
M  V30 41 H 2.857601 -1.061015 2.036061 0
M  V30 42 H -4.806253 -2.754128 1.665795 0
M  V30 43 H -6.843768 -2.214958 0.520696 0
M  V30 44 H -4.593763 0.037747 -2.228846 0
M  V30 45 H -2.530309 -0.472696 -1.118563 0
M  V30 46 H -3.110908 -3.236974 2.639253 0
M  V30 END ATOM
M  V30 BEGIN BOND
M  V30 1 1 1 2
M  V30 2 1 2 3
M  V30 3 1 3 4
M  V30 4 1 4 5
M  V30 5 1 5 6
M  V30 6 1 6 7
M  V30 7 1 7 8
M  V30 8 1 8 9
M  V30 9 2 9 10
M  V30 10 1 10 11
M  V30 11 2 11 12
M  V30 12 1 12 13
M  V30 13 1 12 14
M  V30 14 2 14 15
M  V30 15 1 8 16
M  V30 16 2 3 17
M  V30 17 1 17 18
M  V30 18 1 18 19
M  V30 19 2 19 20
M  V30 20 1 20 21
M  V30 21 2 21 22
M  V30 22 1 22 23
M  V30 23 2 23 24
M  V30 24 2 18 25
M  V30 25 1 25 26
M  V30 26 2 26 27
M  V30 27 1 26 2
M  V30 28 1 16 4
M  V30 29 1 24 19
M  V30 30 1 15 9
M  V30 31 1 1 28
M  V30 32 1 1 29
M  V30 33 1 1 30
M  V30 34 1 5 31
M  V30 35 1 5 32
M  V30 36 1 6 33
M  V30 37 1 6 34
M  V30 38 1 8 35
M  V30 39 1 10 36
M  V30 40 1 11 37
M  V30 41 1 14 38
M  V30 42 1 15 39
M  V30 43 1 16 40
M  V30 44 1 16 41
M  V30 45 1 20 42
M  V30 46 1 21 43
M  V30 47 1 23 44
M  V30 48 1 24 45
M  V30 49 1 25 46
M  V30 END BOND
M  V30 END CTAB
M  END
>  <Dataset>  (902) 
ChEMBL_Kinases

>  <Ligand_Instance>  (902) 
nan

>  <PDB_ID>  (902) 
nan

>  <Standardized_SMILES>  (902) 
Cn1c(N2CCOC(c3ccc(F)cc3)C2)nc(-c2ccncc2)cc1=O

>  <Name>  (902) 
nan

>  <Pocket>  (902) 
nan

>  <ATP_Site>  (902) 
nan

>  <Peripheral>  (902) 
nan

>  <Num_H_Atoms_ProtBoundConf>  (902) 
nan

>  <Num_Resolved_Atoms>  (902) 
nan

>  <Num_Not_Resolved_Atoms>  (902) 
nan

$$$$
CHEMBL3091794
     RDKit          3D

  0  0  0  0  0  0  0  0  0  0999 V3000
M  V30 BEGIN CTAB
M  V30 COUNTS 30 33 0 0 0
M  V30 BEGIN ATOM
M  V30 1 N -0.501827 -6.032246 1.627160 0
M  V30 2 C -0.294658 -4.939582 2.506776 0
M  V30 3 N -0.251896 -5.153763 3.814282 0
M  V30 4 C -0.061454 -4.189071 4.731638 0
M  V30 5 N 0.098711 -2.912737 4.314993 0
M  V30 6 C 0.071684 -2.589503 3.008962 0
M  V30 7 C -0.129235 -3.633359 2.106232 0
M  V30 8 O -0.122613 -3.108524 0.887165 0
M  V30 9 C 0.067091 -1.809362 0.940870 0
M  V30 10 C 0.162275 -0.784404 0.019059 0
M  V30 11 C 0.372941 0.526906 0.412625 0
M  V30 12 C 0.467254 1.589506 -0.582160 0
M  V30 13 C -0.244331 1.537497 -1.778496 0
M  V30 14 C -0.068593 2.603480 -2.636663 0
M  V30 15 C 0.734144 3.705632 -2.430574 0
M  V30 16 C 1.429855 3.720655 -1.222033 0
M  V30 17 Cl 2.478266 5.086288 -0.869579 0
M  V30 18 C 1.283729 2.667094 -0.324895 0
M  V30 19 C 0.498514 0.869755 1.760047 0
M  V30 20 N 0.401362 -0.151983 2.642706 0
M  V30 21 C 0.197525 -1.426403 2.277798 0
M  V30 22 H 0.253670 -6.712375 1.316945 0
M  V30 23 H -1.512480 -5.993882 1.384601 0
M  V30 24 H -0.011193 -4.262783 5.808157 0
M  V30 25 H 0.063305 -1.063453 -1.013398 0
M  V30 26 H -0.887379 0.708924 -2.002417 0
M  V30 27 H -0.624600 2.562296 -3.571570 0
M  V30 28 H 0.799097 4.488643 -3.172407 0
M  V30 29 H 1.871847 2.783728 0.583722 0
M  V30 30 H 0.661864 1.895886 2.043358 0
M  V30 END ATOM
M  V30 BEGIN BOND
M  V30 1 1 1 2
M  V30 2 2 2 3
M  V30 3 1 3 4
M  V30 4 2 4 5
M  V30 5 1 5 6
M  V30 6 2 6 7
M  V30 7 1 7 8
M  V30 8 1 8 9
M  V30 9 2 9 10
M  V30 10 1 10 11
M  V30 11 1 11 12
M  V30 12 2 12 13
M  V30 13 1 13 14
M  V30 14 2 14 15
M  V30 15 1 15 16
M  V30 16 1 16 17
M  V30 17 2 16 18
M  V30 18 2 11 19
M  V30 19 1 19 20
M  V30 20 2 20 21
M  V30 21 1 7 2
M  V30 22 1 21 9
M  V30 23 1 21 6
M  V30 24 1 18 12
M  V30 25 1 1 22
M  V30 26 1 1 23
M  V30 27 1 4 24
M  V30 28 1 10 25
M  V30 29 1 13 26
M  V30 30 1 14 27
M  V30 31 1 15 28
M  V30 32 1 18 29
M  V30 33 1 19 30
M  V30 END BOND
M  V30 END CTAB
M  END
>  <Dataset>  (903) 
ChEMBL_Kinases

>  <Ligand_Instance>  (903) 
nan

>  <PDB_ID>  (903) 
nan

>  <Standardized_SMILES>  (903) 
Nc1ncnc2c1oc1cc(-c3cccc(Cl)c3)cnc12

>  <Name>  (903) 
nan

>  <Pocket>  (903) 
nan

>  <ATP_Site>  (903) 
nan

>  <Peripheral>  (903) 
nan

>  <Num_H_Atoms_ProtBoundConf>  (903) 
nan

>  <Num_Resolved_Atoms>  (903) 
nan

>  <Num_Not_Resolved_Atoms>  (903) 
nan

$$$$
CHEMBL3092025
     RDKit          3D

  0  0  0  0  0  0  0  0  0  0999 V3000
M  V30 BEGIN CTAB
M  V30 COUNTS 67 70 0 0 0
M  V30 BEGIN ATOM
M  V30 1 C -1.353111 -0.745839 5.497827 0
M  V30 2 O -1.718095 -1.111293 4.178226 0
M  V30 3 C -1.008746 -0.575847 3.131581 0
M  V30 4 C 0.037822 0.296144 3.335831 0
M  V30 5 C 0.777662 0.858533 2.323550 0
M  V30 6 N 1.855822 1.760234 2.517034 0
M  V30 7 C 2.679322 2.328024 1.471103 0
M  V30 8 C 2.874251 3.823180 1.761399 0
M  V30 9 N 1.824914 4.231946 2.632634 0
M  V30 10 S 1.224699 5.795650 2.425314 0
M  V30 11 C 0.547746 5.878441 0.766739 0
M  V30 12 O 2.228403 6.883987 2.621942 0
M  V30 13 O 0.052120 5.967443 3.358244 0
M  V30 14 C 1.882429 3.726825 3.963149 0
M  V30 15 C 2.283169 2.248309 3.813776 0
M  V30 16 C 0.402621 0.489755 1.051610 0
M  V30 17 C -0.635809 -0.378405 0.785848 0
M  V30 18 C -1.366054 -0.930432 1.846716 0
M  V30 19 N -2.439609 -1.837207 1.564322 0
M  V30 20 C -2.775894 -2.127766 0.220342 0
M  V30 21 N -3.733885 -1.363702 -0.301399 0
M  V30 22 C -4.146498 -1.533162 -1.577193 0
M  V30 23 C -3.545112 -2.534996 -2.350886 0
M  V30 24 C -2.553614 -3.327698 -1.815059 0
M  V30 25 N -1.993373 -4.306504 -2.644730 0
M  V30 26 C -2.552294 -4.408054 -4.004488 0
M  V30 27 C -0.928753 -5.261998 -2.429369 0
M  V30 28 C -0.363493 -5.302261 -1.057593 0
M  V30 29 C 0.778987 -4.388178 -0.800444 0
M  V30 30 C 1.888782 -4.535140 -1.824550 0
M  V30 31 C 1.256640 -4.225335 -3.145135 0
M  V30 32 C 0.126109 -5.144432 -3.509784 0
M  V30 33 N -2.219816 -3.075892 -0.540604 0
M  V30 34 H -1.462594 0.372440 5.582039 0
M  V30 35 H -1.967493 -1.266655 6.239082 0
M  V30 36 H -0.264439 -0.925104 5.688176 0
M  V30 37 H 0.264454 0.531389 4.361899 0
M  V30 38 H 2.320571 2.171463 0.454635 0
M  V30 39 H 3.695902 1.843188 1.504554 0
M  V30 40 H 3.831372 3.944064 2.335793 0
M  V30 41 H 2.902317 4.428893 0.857886 0
M  V30 42 H -0.367136 5.253437 0.732030 0
M  V30 43 H 1.282898 5.381851 0.070758 0
M  V30 44 H 0.380406 6.908628 0.425125 0
M  V30 45 H 2.612128 4.254073 4.611194 0
M  V30 46 H 0.862709 3.723570 4.396813 0
M  V30 47 H 3.409470 2.216694 3.882263 0
M  V30 48 H 1.879407 1.693145 4.663686 0
M  V30 49 H 0.866188 0.828573 0.155671 0
M  V30 50 H -0.949539 -0.682441 -0.204373 0
M  V30 51 H -2.927968 -2.244499 2.392451 0
M  V30 52 H -4.927410 -0.887648 -1.954119 0
M  V30 53 H -3.958874 -2.565648 -3.344030 0
M  V30 54 H -2.362793 -3.488496 -4.572946 0
M  V30 55 H -2.271466 -5.330589 -4.522480 0
M  V30 56 H -3.678661 -4.480605 -3.898969 0
M  V30 57 H -1.394147 -6.271116 -2.607177 0
M  V30 58 H 0.017209 -6.343693 -0.812407 0
M  V30 59 H -1.153044 -5.131376 -0.308470 0
M  V30 60 H 0.547840 -3.320029 -0.727279 0
M  V30 61 H 1.216711 -4.679700 0.182726 0
M  V30 62 H 2.360247 -5.527821 -1.803561 0
M  V30 63 H 2.640495 -3.762950 -1.609825 0
M  V30 64 H 2.027130 -4.353680 -3.934110 0
M  V30 65 H 0.989420 -3.145477 -3.189242 0
M  V30 66 H 0.560241 -6.118830 -3.809792 0
M  V30 67 H -0.358130 -4.699597 -4.399180 0
M  V30 END ATOM
M  V30 BEGIN BOND
M  V30 1 1 1 2
M  V30 2 1 2 3
M  V30 3 2 3 4
M  V30 4 1 4 5
M  V30 5 1 5 6
M  V30 6 1 6 7
M  V30 7 1 7 8
M  V30 8 1 8 9
M  V30 9 1 9 10
M  V30 10 1 10 11
M  V30 11 2 10 12
M  V30 12 2 10 13
M  V30 13 1 9 14
M  V30 14 1 14 15
M  V30 15 2 5 16
M  V30 16 1 16 17
M  V30 17 2 17 18
M  V30 18 1 18 19
M  V30 19 1 19 20
M  V30 20 2 20 21
M  V30 21 1 21 22
M  V30 22 2 22 23
M  V30 23 1 23 24
M  V30 24 1 24 25
M  V30 25 1 25 26
M  V30 26 1 25 27
M  V30 27 1 27 28
M  V30 28 1 28 29
M  V30 29 1 29 30
M  V30 30 1 30 31
M  V30 31 1 31 32
M  V30 32 2 24 33
M  V30 33 1 18 3
M  V30 34 1 33 20
M  V30 35 1 15 6
M  V30 36 1 32 27
M  V30 37 1 1 34
M  V30 38 1 1 35
M  V30 39 1 1 36
M  V30 40 1 4 37
M  V30 41 1 7 38
M  V30 42 1 7 39
M  V30 43 1 8 40
M  V30 44 1 8 41
M  V30 45 1 11 42
M  V30 46 1 11 43
M  V30 47 1 11 44
M  V30 48 1 14 45
M  V30 49 1 14 46
M  V30 50 1 15 47
M  V30 51 1 15 48
M  V30 52 1 16 49
M  V30 53 1 17 50
M  V30 54 1 19 51
M  V30 55 1 22 52
M  V30 56 1 23 53
M  V30 57 1 26 54
M  V30 58 1 26 55
M  V30 59 1 26 56
M  V30 60 1 27 57
M  V30 61 1 28 58
M  V30 62 1 28 59
M  V30 63 1 29 60
M  V30 64 1 29 61
M  V30 65 1 30 62
M  V30 66 1 30 63
M  V30 67 1 31 64
M  V30 68 1 31 65
M  V30 69 1 32 66
M  V30 70 1 32 67
M  V30 END BOND
M  V30 END CTAB
M  END
>  <Dataset>  (904) 
ChEMBL_Kinases

>  <Ligand_Instance>  (904) 
nan

>  <PDB_ID>  (904) 
nan

>  <Standardized_SMILES>  (904) 
COc1cc(N2CCN(S(C)(=O)=O)CC2)ccc1Nc1nccc(N(C)C2CCCCC2)n1

>  <Name>  (904) 
nan

>  <Pocket>  (904) 
nan

>  <ATP_Site>  (904) 
nan

>  <Peripheral>  (904) 
nan

>  <Num_H_Atoms_ProtBoundConf>  (904) 
nan

>  <Num_Resolved_Atoms>  (904) 
nan

>  <Num_Not_Resolved_Atoms>  (904) 
nan

$$$$
CHEMBL3091541
     RDKit          3D

  0  0  0  0  0  0  0  0  0  0999 V3000
M  V30 BEGIN CTAB
M  V30 COUNTS 49 52 0 0 0
M  V30 BEGIN ATOM
M  V30 1 C 3.039998 -3.388864 2.359618 0
M  V30 2 O 2.142686 -3.118449 1.295427 0
M  V30 3 C 2.276625 -2.018504 0.489879 0
M  V30 4 C 3.311556 -1.142943 0.713171 0
M  V30 5 C 3.446407 -0.031928 -0.100829 0
M  V30 6 F 4.494239 0.808696 0.164115 0
M  V30 7 C 2.544233 0.199891 -1.137029 0
M  V30 8 C 1.499225 -0.654446 -1.387645 0
M  V30 9 C 1.392085 -1.760001 -0.552425 0
M  V30 10 C 0.304355 -2.751968 -0.726161 0 CFG=1
M  V30 11 C -0.921927 -2.383776 0.083410 0
M  V30 12 N -1.681138 -1.319436 -0.542523 0
M  V30 13 C -1.783913 -0.070427 0.110748 0
M  V30 14 N -1.118776 0.013198 1.280353 0
M  V30 15 C -1.116637 1.136828 2.027693 0
M  V30 16 C -0.384849 1.187061 3.287582 0
M  V30 17 C 0.323781 0.127515 3.774828 0
M  V30 18 C 1.018261 0.192948 4.981968 0
M  V30 19 N 0.949518 1.369837 5.644655 0
M  V30 20 C 0.260973 2.430367 5.191750 0
M  V30 21 N -0.392455 2.314521 4.020111 0
M  V30 22 C -1.814840 2.228726 1.580975 0
M  V30 23 C -2.491651 2.151230 0.396199 0
M  V30 24 O -3.148210 3.151653 -0.041180 0
M  V30 25 N -2.460312 1.006576 -0.308973 0
M  V30 26 C -3.174198 0.927763 -1.548110 0
M  V30 27 C -2.156948 -1.879296 -1.763305 0
M  V30 28 C -1.337792 -3.108529 -2.180851 0
M  V30 29 O -0.012191 -2.755972 -2.106351 0
M  V30 30 H 3.240121 -2.495093 2.994192 0
M  V30 31 H 2.548393 -4.167442 3.001761 0
M  V30 32 H 3.993970 -3.764348 1.918138 0
M  V30 33 H 4.021423 -1.316389 1.520982 0
M  V30 34 H 2.679348 1.078677 -1.754227 0
M  V30 35 H 0.791513 -0.481752 -2.192780 0
M  V30 36 H 0.600671 -3.772082 -0.420006 0
M  V30 37 H -1.549873 -3.253306 0.360065 0
M  V30 38 H -0.504744 -2.031053 1.074600 0
M  V30 39 H 0.352129 -0.783078 3.220555 0
M  V30 40 H 1.577718 -0.650627 5.361913 0
M  V30 41 H 0.270230 3.325124 5.798484 0
M  V30 42 H -1.812629 3.128418 2.180241 0
M  V30 43 H -3.812699 0.033212 -1.663393 0
M  V30 44 H -2.519081 1.136735 -2.429339 0
M  V30 45 H -3.918042 1.784463 -1.593100 0
M  V30 46 H -1.999866 -1.171088 -2.624927 0
M  V30 47 H -3.204012 -2.270319 -1.727175 0
M  V30 48 H -1.550403 -3.970960 -1.538658 0
M  V30 49 H -1.619375 -3.328815 -3.248828 0
M  V30 END ATOM
M  V30 BEGIN BOND
M  V30 1 1 1 2
M  V30 2 1 2 3
M  V30 3 2 3 4
M  V30 4 1 4 5
M  V30 5 1 5 6
M  V30 6 2 5 7
M  V30 7 1 7 8
M  V30 8 2 8 9
M  V30 9 1 9 10
M  V30 10 1 10 11
M  V30 11 1 11 12
M  V30 12 1 12 13
M  V30 13 2 13 14
M  V30 14 1 14 15
M  V30 15 1 15 16
M  V30 16 2 16 17
M  V30 17 1 17 18
M  V30 18 2 18 19
M  V30 19 1 19 20
M  V30 20 2 20 21
M  V30 21 2 15 22
M  V30 22 1 22 23
M  V30 23 2 23 24
M  V30 24 1 23 25
M  V30 25 1 25 26
M  V30 26 1 12 27
M  V30 27 1 27 28
M  V30 28 1 28 29
M  V30 29 1 9 3
M  V30 30 1 29 10
M  V30 31 1 25 13
M  V30 32 1 21 16
M  V30 33 1 1 30
M  V30 34 1 1 31
M  V30 35 1 1 32
M  V30 36 1 4 33
M  V30 37 1 7 34
M  V30 38 1 8 35
M  V30 39 1 10 36 CFG=1
M  V30 40 1 11 37
M  V30 41 1 11 38
M  V30 42 1 17 39
M  V30 43 1 18 40
M  V30 44 1 20 41
M  V30 45 1 22 42
M  V30 46 1 26 43
M  V30 47 1 26 44
M  V30 48 1 26 45
M  V30 49 1 27 46
M  V30 50 1 27 47
M  V30 51 1 28 48
M  V30 52 1 28 49
M  V30 END BOND
M  V30 END CTAB
M  END
>  <Dataset>  (905) 
ChEMBL_Kinases

>  <Ligand_Instance>  (905) 
nan

>  <PDB_ID>  (905) 
nan

>  <Standardized_SMILES>  (905) 
COc1cc(F)ccc1[C@H]1CN(c2nc(-c3ccncn3)cc(=O)n2C)CCO1

>  <Name>  (905) 
nan

>  <Pocket>  (905) 
nan

>  <ATP_Site>  (905) 
nan

>  <Peripheral>  (905) 
nan

>  <Num_H_Atoms_ProtBoundConf>  (905) 
nan

>  <Num_Resolved_Atoms>  (905) 
nan

>  <Num_Not_Resolved_Atoms>  (905) 
nan

$$$$
CHEMBL3093062
     RDKit          3D

  0  0  0  0  0  0  0  0  0  0999 V3000
M  V30 BEGIN CTAB
M  V30 COUNTS 35 38 0 0 0
M  V30 BEGIN ATOM
M  V30 1 C 0.876131 -2.095649 4.376316 0
M  V30 2 C 1.714434 -3.134741 3.982457 0
M  V30 3 C 1.590080 -3.615520 2.700624 0
M  V30 4 C 0.658772 -3.099088 1.791510 0
M  V30 5 C 0.712371 -3.787323 0.461862 0
M  V30 6 N 1.655748 -3.165954 -0.446777 0
M  V30 7 C 1.615518 -1.832053 -0.939146 0
M  V30 8 N 2.531211 -1.273779 -1.785417 0
M  V30 9 N 2.132917 -0.034984 -1.995428 0
M  V30 10 C 0.999853 0.214802 -1.315333 0
M  V30 11 C 0.351770 1.521603 -1.380859 0
M  V30 12 C 0.745075 2.665041 -2.089294 0
M  V30 13 N -0.152187 3.639328 -1.858838 0
M  V30 14 C -1.129842 3.220793 -1.035300 0
M  V30 15 N -2.209921 3.862793 -0.553087 0
M  V30 16 C -3.078971 3.249600 0.271579 0
M  V30 17 C -2.819040 1.916025 0.611202 0
M  V30 18 C -1.703067 1.282091 0.101620 0
M  V30 19 C -0.810955 1.909815 -0.744149 0
M  V30 20 O 0.716905 -0.899665 -0.686217 0
M  V30 21 C -0.165227 -2.069675 2.195922 0
M  V30 22 C -0.033450 -1.596585 3.477349 0
M  V30 23 H 0.939083 -1.682552 5.383353 0
M  V30 24 H 2.428542 -3.522737 4.696340 0
M  V30 25 H 2.277453 -4.421308 2.475378 0
M  V30 26 H 0.917406 -4.848977 0.577792 0
M  V30 27 H -0.339304 -3.700785 0.057118 0
M  V30 28 H 2.457432 -3.777019 -0.773688 0
M  V30 29 H 1.620414 2.729642 -2.706712 0
M  V30 30 H -0.074600 4.597487 -2.281922 0
M  V30 31 H -3.946048 3.771751 0.656160 0
M  V30 32 H -3.525372 1.410047 1.284440 0
M  V30 33 H -1.523058 0.255387 0.375652 0
M  V30 34 H -0.822795 -1.773124 1.415701 0
M  V30 35 H -0.713112 -0.786142 3.729086 0
M  V30 END ATOM
M  V30 BEGIN BOND
M  V30 1 2 1 2
M  V30 2 1 2 3
M  V30 3 2 3 4
M  V30 4 1 4 5
M  V30 5 1 5 6
M  V30 6 1 6 7
M  V30 7 2 7 8
M  V30 8 1 8 9
M  V30 9 2 9 10
M  V30 10 1 10 11
M  V30 11 2 11 12
M  V30 12 1 12 13
M  V30 13 1 13 14
M  V30 14 2 14 15
M  V30 15 1 15 16
M  V30 16 2 16 17
M  V30 17 1 17 18
M  V30 18 2 18 19
M  V30 19 1 10 20
M  V30 20 1 4 21
M  V30 21 2 21 22
M  V30 22 1 22 1
M  V30 23 1 20 7
M  V30 24 1 19 11
M  V30 25 1 19 14
M  V30 26 1 1 23
M  V30 27 1 2 24
M  V30 28 1 3 25
M  V30 29 1 5 26
M  V30 30 1 5 27
M  V30 31 1 6 28
M  V30 32 1 12 29
M  V30 33 1 13 30
M  V30 34 1 16 31
M  V30 35 1 17 32
M  V30 36 1 18 33
M  V30 37 1 21 34
M  V30 38 1 22 35
M  V30 END BOND
M  V30 END CTAB
M  END
>  <Dataset>  (906) 
ChEMBL_Kinases

>  <Ligand_Instance>  (906) 
nan

>  <PDB_ID>  (906) 
nan

>  <Standardized_SMILES>  (906) 
c1ccc(CNc2nnc(-c3c[nH]c4ncccc34)o2)cc1

>  <Name>  (906) 
nan

>  <Pocket>  (906) 
nan

>  <ATP_Site>  (906) 
nan

>  <Peripheral>  (906) 
nan

>  <Num_H_Atoms_ProtBoundConf>  (906) 
nan

>  <Num_Resolved_Atoms>  (906) 
nan

>  <Num_Not_Resolved_Atoms>  (906) 
nan

$$$$
CHEMBL3093059
     RDKit          3D

  0  0  0  0  0  0  0  0  0  0999 V3000
M  V30 BEGIN CTAB
M  V30 COUNTS 37 40 0 0 0
M  V30 BEGIN ATOM
M  V30 1 N -0.973471 -3.372627 2.343432 0
M  V30 2 C 0.397846 -3.739516 2.292070 0
M  V30 3 N 0.992240 -4.865669 2.703128 0
M  V30 4 N 2.306049 -4.760874 2.451023 0
M  V30 5 C 2.564329 -3.569082 1.877277 0
M  V30 6 C 3.750519 -2.979557 1.427176 0
M  V30 7 C 3.621623 -1.700844 0.872777 0
M  V30 8 C 2.430687 -0.999027 0.743613 0
M  V30 9 C 2.415839 0.331216 0.159324 0
M  V30 10 N 3.323461 1.172305 -0.320291 0
M  V30 11 N 2.760112 2.297239 -0.743001 0
M  V30 12 C 1.433470 2.151445 -0.515624 0
M  V30 13 N 0.292585 3.002548 -0.745756 0
M  V30 14 C -0.958348 2.735626 -1.382002 0
M  V30 15 C -1.658386 1.641445 -0.677721 0
M  V30 16 C -2.590288 1.784589 0.356092 0
M  V30 17 C -3.222289 0.734690 0.980745 0
M  V30 18 C -2.919074 -0.542999 0.561947 0
M  V30 19 C -2.017551 -0.802463 -0.447025 0
M  V30 20 C -1.421755 0.306121 -1.027244 0
M  V30 21 O 1.248768 0.970711 0.023587 0
M  V30 22 C 1.312217 -1.642272 1.207834 0
M  V30 23 C 1.354076 -2.898962 1.765995 0
M  V30 24 H -1.663940 -3.055810 1.628909 0
M  V30 25 H -1.306612 -3.458339 3.328835 0
M  V30 26 H 3.019553 -5.514900 2.678943 0
M  V30 27 H 4.702335 -3.472544 1.499338 0
M  V30 28 H 4.539391 -1.226901 0.519266 0
M  V30 29 H 0.559900 3.929320 -0.337670 0
M  V30 30 H -0.888748 2.436401 -2.448304 0
M  V30 31 H -1.557904 3.671037 -1.343620 0
M  V30 32 H -2.805130 2.791567 0.659883 0
M  V30 33 H -3.935742 0.927810 1.778264 0
M  V30 34 H -3.401480 -1.387019 1.035402 0
M  V30 35 H -1.774274 -1.802115 -0.778333 0
M  V30 36 H -0.705725 0.102408 -1.822800 0
M  V30 37 H 0.373362 -1.151382 1.137501 0
M  V30 END ATOM
M  V30 BEGIN BOND
M  V30 1 1 1 2
M  V30 2 2 2 3
M  V30 3 1 3 4
M  V30 4 1 4 5
M  V30 5 2 5 6
M  V30 6 1 6 7
M  V30 7 2 7 8
M  V30 8 1 8 9
M  V30 9 2 9 10
M  V30 10 1 10 11
M  V30 11 2 11 12
M  V30 12 1 12 13
M  V30 13 1 13 14
M  V30 14 1 14 15
M  V30 15 2 15 16
M  V30 16 1 16 17
M  V30 17 2 17 18
M  V30 18 1 18 19
M  V30 19 2 19 20
M  V30 20 1 12 21
M  V30 21 1 8 22
M  V30 22 2 22 23
M  V30 23 1 23 2
M  V30 24 1 23 5
M  V30 25 1 21 9
M  V30 26 1 20 15
M  V30 27 1 1 24
M  V30 28 1 1 25
M  V30 29 1 4 26
M  V30 30 1 6 27
M  V30 31 1 7 28
M  V30 32 1 13 29
M  V30 33 1 14 30
M  V30 34 1 14 31
M  V30 35 1 16 32
M  V30 36 1 17 33
M  V30 37 1 18 34
M  V30 38 1 19 35
M  V30 39 1 20 36
M  V30 40 1 22 37
M  V30 END BOND
M  V30 END CTAB
M  END
>  <Dataset>  (907) 
ChEMBL_Kinases

>  <Ligand_Instance>  (907) 
nan

>  <PDB_ID>  (907) 
nan

>  <Standardized_SMILES>  (907) 
Nc1n[nH]c2ccc(-c3nnc(NCc4ccccc4)o3)cc12

>  <Name>  (907) 
nan

>  <Pocket>  (907) 
nan

>  <ATP_Site>  (907) 
nan

>  <Peripheral>  (907) 
nan

>  <Num_H_Atoms_ProtBoundConf>  (907) 
nan

>  <Num_Resolved_Atoms>  (907) 
nan

>  <Num_Not_Resolved_Atoms>  (907) 
nan

$$$$
CHEMBL3093058
     RDKit          3D

  0  0  0  0  0  0  0  0  0  0999 V3000
M  V30 BEGIN CTAB
M  V30 COUNTS 35 38 0 0 0
M  V30 BEGIN ATOM
M  V30 1 C 1.306895 -1.660385 4.537669 0
M  V30 2 C 2.357044 -2.505981 4.183167 0
M  V30 3 C 2.356922 -3.122572 2.949200 0
M  V30 4 C 1.342588 -2.950472 2.001659 0
M  V30 5 C 1.531531 -3.699695 0.750375 0
M  V30 6 N 2.271686 -3.002683 -0.264157 0
M  V30 7 C 1.988489 -1.773308 -0.918674 0
M  V30 8 N 2.607466 -1.026159 -1.879812 0
M  V30 9 N 1.850399 0.038280 -2.082104 0
M  V30 10 C 0.770894 -0.007216 -1.281722 0
M  V30 11 C -0.290755 0.993158 -1.222502 0
M  V30 12 C -0.258545 2.123059 -2.032536 0
M  V30 13 C -1.251040 3.081347 -1.993294 0
M  V30 14 C -2.318823 2.933993 -1.130243 0
M  V30 15 N -3.431665 3.621941 -0.817006 0
M  V30 16 N -4.107555 2.973767 0.115826 0
M  V30 17 C -3.458308 1.826874 0.452426 0
M  V30 18 C -2.326786 1.804491 -0.337753 0
M  V30 19 C -1.346431 0.820235 -0.350259 0
M  V30 20 O 0.899475 -1.119087 -0.598874 0
M  V30 21 C 0.312008 -2.111777 2.367471 0
M  V30 22 C 0.309433 -1.493730 3.600805 0
M  V30 23 H 1.233642 -1.150087 5.465412 0
M  V30 24 H 3.158851 -2.662630 4.890931 0
M  V30 25 H 3.225029 -3.768945 2.761456 0
M  V30 26 H 0.511889 -3.972517 0.343502 0
M  V30 27 H 2.016576 -4.679444 0.925646 0
M  V30 28 H 3.175011 -3.390493 -0.639018 0
M  V30 29 H 0.564639 2.266307 -2.718561 0
M  V30 30 H -1.222423 3.959011 -2.625039 0
M  V30 31 H -3.609515 4.522007 -1.317343 0
M  V30 32 H -3.869486 1.167553 1.204505 0
M  V30 33 H -1.400958 -0.047085 0.292748 0
M  V30 34 H -0.455028 -2.002126 1.613957 0
M  V30 35 H -0.548986 -0.857087 3.781435 0
M  V30 END ATOM
M  V30 BEGIN BOND
M  V30 1 2 1 2
M  V30 2 1 2 3
M  V30 3 2 3 4
M  V30 4 1 4 5
M  V30 5 1 5 6
M  V30 6 1 6 7
M  V30 7 2 7 8
M  V30 8 1 8 9
M  V30 9 2 9 10
M  V30 10 1 10 11
M  V30 11 2 11 12
M  V30 12 1 12 13
M  V30 13 2 13 14
M  V30 14 1 14 15
M  V30 15 1 15 16
M  V30 16 2 16 17
M  V30 17 1 17 18
M  V30 18 2 18 19
M  V30 19 1 10 20
M  V30 20 1 4 21
M  V30 21 2 21 22
M  V30 22 1 22 1
M  V30 23 1 20 7
M  V30 24 1 19 11
M  V30 25 1 18 14
M  V30 26 1 1 23
M  V30 27 1 2 24
M  V30 28 1 3 25
M  V30 29 1 5 26
M  V30 30 1 5 27
M  V30 31 1 6 28
M  V30 32 1 12 29
M  V30 33 1 13 30
M  V30 34 1 15 31
M  V30 35 1 17 32
M  V30 36 1 19 33
M  V30 37 1 21 34
M  V30 38 1 22 35
M  V30 END BOND
M  V30 END CTAB
M  END
>  <Dataset>  (908) 
ChEMBL_Kinases

>  <Ligand_Instance>  (908) 
nan

>  <PDB_ID>  (908) 
nan

>  <Standardized_SMILES>  (908) 
c1ccc(CNc2nnc(-c3ccc4[nH]ncc4c3)o2)cc1

>  <Name>  (908) 
nan

>  <Pocket>  (908) 
nan

>  <ATP_Site>  (908) 
nan

>  <Peripheral>  (908) 
nan

>  <Num_H_Atoms_ProtBoundConf>  (908) 
nan

>  <Num_Resolved_Atoms>  (908) 
nan

>  <Num_Not_Resolved_Atoms>  (908) 
nan

$$$$
CHEMBL3093056
     RDKit          3D

  0  0  0  0  0  0  0  0  0  0999 V3000
M  V30 BEGIN CTAB
M  V30 COUNTS 37 40 0 0 0
M  V30 BEGIN ATOM
M  V30 1 F -0.806763 -4.251102 5.288181 0
M  V30 2 C -0.052054 -4.374410 4.157354 0
M  V30 3 C 0.108680 -3.218693 3.403368 0
M  V30 4 C 0.851398 -3.223531 2.239911 0
M  V30 5 C 1.050089 -2.110806 1.445018 0
M  V30 6 C 1.807533 -2.200186 0.295148 0
M  V30 7 C 1.983340 -0.990283 -0.506043 0
M  V30 8 N 2.668770 -0.831466 -1.650733 0
M  V30 9 N 2.582248 0.423319 -2.059703 0
M  V30 10 C 1.815865 1.086808 -1.144969 0
M  V30 11 N 1.464536 2.460762 -1.189912 0
M  V30 12 C 0.648022 3.165743 -0.219340 0
M  V30 13 C -0.718667 2.591531 -0.123699 0
M  V30 14 C -1.575593 3.196955 -1.043120 0
M  V30 15 C -2.906698 2.838538 -1.149493 0
M  V30 16 C -3.402397 1.842703 -0.311528 0
M  V30 17 C -2.536496 1.261554 0.586432 0
M  V30 18 C -1.214049 1.606063 0.703986 0
M  V30 19 O 1.488368 0.196589 -0.244494 0
M  V30 20 C 2.398634 -3.376160 -0.121937 0
M  V30 21 C 2.218714 -4.521878 0.657820 0
M  V30 22 C 1.456078 -4.392890 1.798644 0
M  V30 23 C 1.260684 -5.508223 2.589490 0
M  V30 24 N 0.533776 -5.530240 3.739796 0
M  V30 25 H -0.350658 -2.289223 3.720692 0
M  V30 26 H 0.589530 -1.175940 1.761927 0
M  V30 27 H 1.820435 3.043353 -1.997667 0
M  V30 28 H 0.651983 4.243847 -0.365554 0
M  V30 29 H 1.099496 2.982016 0.802950 0
M  V30 30 H -1.319495 3.984247 -1.753653 0
M  V30 31 H -3.610129 3.270292 -1.837855 0
M  V30 32 H -4.426278 1.483183 -0.308111 0
M  V30 33 H -2.859868 0.471455 1.276030 0
M  V30 34 H -0.477653 1.215257 1.365192 0
M  V30 35 H 2.982260 -3.417486 -1.019875 0
M  V30 36 H 2.655743 -5.461676 0.379993 0
M  V30 37 H 1.718264 -6.446448 2.278723 0
M  V30 END ATOM
M  V30 BEGIN BOND
M  V30 1 1 1 2
M  V30 2 2 2 3
M  V30 3 1 3 4
M  V30 4 2 4 5
M  V30 5 1 5 6
M  V30 6 1 6 7
M  V30 7 2 7 8
M  V30 8 1 8 9
M  V30 9 2 9 10
M  V30 10 1 10 11
M  V30 11 1 11 12
M  V30 12 1 12 13
M  V30 13 2 13 14
M  V30 14 1 14 15
M  V30 15 2 15 16
M  V30 16 1 16 17
M  V30 17 2 17 18
M  V30 18 1 10 19
M  V30 19 2 6 20
M  V30 20 1 20 21
M  V30 21 2 21 22
M  V30 22 1 22 23
M  V30 23 2 23 24
M  V30 24 1 24 2
M  V30 25 1 22 4
M  V30 26 1 19 7
M  V30 27 1 18 13
M  V30 28 1 3 25
M  V30 29 1 5 26
M  V30 30 1 11 27
M  V30 31 1 12 28
M  V30 32 1 12 29
M  V30 33 1 14 30
M  V30 34 1 15 31
M  V30 35 1 16 32
M  V30 36 1 17 33
M  V30 37 1 18 34
M  V30 38 1 20 35
M  V30 39 1 21 36
M  V30 40 1 23 37
M  V30 END BOND
M  V30 END CTAB
M  END
>  <Dataset>  (909) 
ChEMBL_Kinases

>  <Ligand_Instance>  (909) 
nan

>  <PDB_ID>  (909) 
nan

>  <Standardized_SMILES>  (909) 
Fc1cc2cc(-c3nnc(NCc4ccccc4)o3)ccc2cn1

>  <Name>  (909) 
nan

>  <Pocket>  (909) 
nan

>  <ATP_Site>  (909) 
nan

>  <Peripheral>  (909) 
nan

>  <Num_H_Atoms_ProtBoundConf>  (909) 
nan

>  <Num_Resolved_Atoms>  (909) 
nan

>  <Num_Not_Resolved_Atoms>  (909) 
nan

$$$$
CHEMBL3093055
     RDKit          3D

  0  0  0  0  0  0  0  0  0  0999 V3000
M  V30 BEGIN CTAB
M  V30 COUNTS 37 40 0 0 0
M  V30 BEGIN ATOM
M  V30 1 C 0.184758 -4.233670 1.286174 0
M  V30 2 C 0.497753 -4.029801 2.614930 0
M  V30 3 C 1.653876 -3.381120 3.012279 0
M  V30 4 C 2.497871 -2.937524 2.011890 0
M  V30 5 C 3.766381 -2.230607 2.328803 0
M  V30 6 N 3.587335 -0.791452 2.420482 0
M  V30 7 C 3.098952 -0.091093 1.284379 0
M  V30 8 N 3.677549 0.483523 0.201604 0
M  V30 9 N 2.677163 0.982258 -0.506056 0
M  V30 10 C 1.505310 0.733185 0.106020 0
M  V30 11 C 0.183038 1.145062 -0.400167 0
M  V30 12 C 0.084440 1.839114 -1.596636 0
M  V30 13 C -1.173958 2.220876 -2.054185 0
M  V30 14 C -2.277391 1.894244 -1.299809 0
M  V30 15 C -3.558971 2.247555 -1.702918 0
M  V30 16 N -4.642433 1.923434 -0.955536 0
M  V30 17 C -4.536215 1.252359 0.199172 0
M  V30 18 C -3.283740 0.863396 0.669358 0
M  V30 19 C -2.205772 1.206900 -0.110793 0
M  V30 20 C -0.945769 0.835828 0.327886 0
M  V30 21 O 1.781267 0.069634 1.210173 0
M  V30 22 C 2.216731 -3.124318 0.655042 0
M  V30 23 C 1.037460 -3.785124 0.287085 0
M  V30 24 H -0.725213 -4.743995 0.986311 0
M  V30 25 H -0.209881 -4.404077 3.372274 0
M  V30 26 H 1.889822 -3.226534 4.060941 0
M  V30 27 H 4.551980 -2.399881 1.552971 0
M  V30 28 H 4.211657 -2.643591 3.263623 0
M  V30 29 H 3.779202 -0.181041 3.247218 0
M  V30 30 H 0.970574 2.097474 -2.195551 0
M  V30 31 H -1.303029 2.756753 -2.969585 0
M  V30 32 H -3.706425 2.798716 -2.641391 0
M  V30 33 H -5.394927 0.986798 0.806828 0
M  V30 34 H -3.191557 0.322782 1.598519 0
M  V30 35 H -0.797183 0.293835 1.249183 0
M  V30 36 H 2.892748 -2.768162 -0.113763 0
M  V30 37 H 0.804243 -3.938159 -0.763785 0
M  V30 END ATOM
M  V30 BEGIN BOND
M  V30 1 2 1 2
M  V30 2 1 2 3
M  V30 3 2 3 4
M  V30 4 1 4 5
M  V30 5 1 5 6
M  V30 6 1 6 7
M  V30 7 2 7 8
M  V30 8 1 8 9
M  V30 9 2 9 10
M  V30 10 1 10 11
M  V30 11 2 11 12
M  V30 12 1 12 13
M  V30 13 2 13 14
M  V30 14 1 14 15
M  V30 15 2 15 16
M  V30 16 1 16 17
M  V30 17 2 17 18
M  V30 18 1 18 19
M  V30 19 2 19 20
M  V30 20 1 10 21
M  V30 21 1 4 22
M  V30 22 2 22 23
M  V30 23 1 23 1
M  V30 24 1 21 7
M  V30 25 1 20 11
M  V30 26 1 19 14
M  V30 27 1 1 24
M  V30 28 1 2 25
M  V30 29 1 3 26
M  V30 30 1 5 27
M  V30 31 1 5 28
M  V30 32 1 6 29
M  V30 33 1 12 30
M  V30 34 1 13 31
M  V30 35 1 15 32
M  V30 36 1 17 33
M  V30 37 1 18 34
M  V30 38 1 20 35
M  V30 39 1 22 36
M  V30 40 1 23 37
M  V30 END BOND
M  V30 END CTAB
M  END
>  <Dataset>  (910) 
ChEMBL_Kinases

>  <Ligand_Instance>  (910) 
nan

>  <PDB_ID>  (910) 
nan

>  <Standardized_SMILES>  (910) 
c1ccc(CNc2nnc(-c3ccc4cnccc4c3)o2)cc1

>  <Name>  (910) 
nan

>  <Pocket>  (910) 
nan

>  <ATP_Site>  (910) 
nan

>  <Peripheral>  (910) 
nan

>  <Num_H_Atoms_ProtBoundConf>  (910) 
nan

>  <Num_Resolved_Atoms>  (910) 
nan

>  <Num_Not_Resolved_Atoms>  (910) 
nan

$$$$
CHEMBL3093054
     RDKit          3D

  0  0  0  0  0  0  0  0  0  0999 V3000
M  V30 BEGIN CTAB
M  V30 COUNTS 40 42 0 0 0
M  V30 BEGIN ATOM
M  V30 1 C 2.217551 -4.369902 1.826270 0
M  V30 2 N 1.012362 -3.596273 1.639247 0
M  V30 3 C 1.094820 -2.261026 1.496579 0
M  V30 4 N 2.377080 -1.668093 1.536986 0
M  V30 5 C 2.505738 -0.244970 1.388274 0
M  V30 6 C 1.958830 0.194375 0.070937 0
M  V30 7 O 1.476466 -0.640727 -0.723931 0
M  V30 8 C 1.994977 1.612703 -0.276455 0
M  V30 9 C 1.472692 1.927371 -1.502944 0
M  V30 10 C 1.452256 3.251781 -1.944777 0
M  V30 11 C 1.970132 4.197561 -1.106172 0
M  V30 12 C 2.484287 3.829982 0.118579 0
M  V30 13 F 2.977432 4.853599 0.880241 0
M  V30 14 C 2.519333 2.532944 0.583854 0
M  V30 15 N -0.005227 -1.528602 1.322935 0
M  V30 16 C -1.223862 -2.055035 1.280398 0
M  V30 17 C -2.390386 -1.216271 1.089310 0
M  V30 18 C -3.680676 -1.677624 1.033513 0
M  V30 19 C -4.784291 -0.868793 0.850989 0
M  V30 20 N -4.579430 0.454087 0.719876 0
M  V30 21 C -3.330058 0.979160 0.765128 0
M  V30 22 C -2.240373 0.148896 0.948890 0
M  V30 23 C -1.295855 -3.406431 1.425748 0
M  V30 24 C -0.182442 -4.189688 1.606195 0
M  V30 25 O -0.292173 -5.445745 1.737720 0
M  V30 26 H 2.841498 -4.011014 2.669174 0
M  V30 27 H 1.952797 -5.426751 2.001915 0
M  V30 28 H 2.809199 -4.290569 0.893262 0
M  V30 29 H 3.242852 -2.204700 1.669231 0
M  V30 30 H 1.861250 0.246686 2.164143 0
M  V30 31 H 3.526706 0.122223 1.573195 0
M  V30 32 H 1.049884 1.192365 -2.198761 0
M  V30 33 H 1.044681 3.490837 -2.899965 0
M  V30 34 H 1.952942 5.221566 -1.450806 0
M  V30 35 H 2.924935 2.274558 1.540537 0
M  V30 36 H -3.866904 -2.725349 1.135359 0
M  V30 37 H -5.796385 -1.294872 0.814422 0
M  V30 38 H -3.329752 2.037651 0.646592 0
M  V30 39 H -1.279657 0.629581 0.975064 0
M  V30 40 H -2.239749 -3.923936 1.405075 0
M  V30 END ATOM
M  V30 BEGIN BOND
M  V30 1 1 1 2
M  V30 2 1 2 3
M  V30 3 1 3 4
M  V30 4 1 4 5
M  V30 5 1 5 6
M  V30 6 2 6 7
M  V30 7 1 6 8
M  V30 8 2 8 9
M  V30 9 1 9 10
M  V30 10 2 10 11
M  V30 11 1 11 12
M  V30 12 1 12 13
M  V30 13 2 12 14
M  V30 14 2 3 15
M  V30 15 1 15 16
M  V30 16 1 16 17
M  V30 17 2 17 18
M  V30 18 1 18 19
M  V30 19 2 19 20
M  V30 20 1 20 21
M  V30 21 2 21 22
M  V30 22 2 16 23
M  V30 23 1 23 24
M  V30 24 2 24 25
M  V30 25 1 24 2
M  V30 26 1 14 8
M  V30 27 1 22 17
M  V30 28 1 1 26
M  V30 29 1 1 27
M  V30 30 1 1 28
M  V30 31 1 4 29
M  V30 32 1 5 30
M  V30 33 1 5 31
M  V30 34 1 9 32
M  V30 35 1 10 33
M  V30 36 1 11 34
M  V30 37 1 14 35
M  V30 38 1 18 36
M  V30 39 1 19 37
M  V30 40 1 21 38
M  V30 41 1 22 39
M  V30 42 1 23 40
M  V30 END BOND
M  V30 END CTAB
M  END
>  <Dataset>  (911) 
ChEMBL_Kinases

>  <Ligand_Instance>  (911) 
nan

>  <PDB_ID>  (911) 
nan

>  <Standardized_SMILES>  (911) 
Cn1c(NCC(=O)c2cccc(F)c2)nc(-c2ccncc2)cc1=O

>  <Name>  (911) 
nan

>  <Pocket>  (911) 
nan

>  <ATP_Site>  (911) 
nan

>  <Peripheral>  (911) 
nan

>  <Num_H_Atoms_ProtBoundConf>  (911) 
nan

>  <Num_Resolved_Atoms>  (911) 
nan

>  <Num_Not_Resolved_Atoms>  (911) 
nan

$$$$
CHEMBL3093053
     RDKit          3D

  0  0  0  0  0  0  0  0  0  0999 V3000
M  V30 BEGIN CTAB
M  V30 COUNTS 40 42 0 0 0
M  V30 BEGIN ATOM
M  V30 1 C 2.378320 -4.168141 1.709754 0
M  V30 2 N 1.118051 -3.459072 1.645668 0
M  V30 3 C 1.131123 -2.093515 1.654771 0
M  V30 4 N 2.401061 -1.439032 1.746073 0
M  V30 5 C 2.571290 0.013251 1.685624 0
M  V30 6 C 2.194723 0.538762 0.370956 0
M  V30 7 O 1.990216 -0.666208 0.045568 0
M  V30 8 C 2.031954 1.719787 -0.445781 0
M  V30 9 C 1.627031 1.421473 -1.721230 0
M  V30 10 C 1.430217 2.438113 -2.623985 0
M  V30 11 C 1.658324 3.723634 -2.177311 0
M  V30 12 C 2.065912 4.058115 -0.902042 0
M  V30 13 C 2.257505 3.009953 -0.008948 0
M  V30 14 F 2.656809 3.198865 1.273401 0
M  V30 15 N -0.010575 -1.384185 1.592423 0
M  V30 16 C -1.210936 -1.998029 1.519027 0
M  V30 17 C -2.438030 -1.224545 1.452925 0
M  V30 18 C -3.700370 -1.727270 1.375884 0
M  V30 19 C -4.815658 -0.927554 1.317362 0
M  V30 20 N -4.722525 0.424399 1.333406 0
M  V30 21 C -3.472632 0.972782 1.409921 0
M  V30 22 C -2.360300 0.162794 1.468078 0
M  V30 23 C -1.215603 -3.375228 1.510550 0
M  V30 24 C -0.052127 -4.112188 1.573643 0
M  V30 25 O -0.106280 -5.369034 1.563236 0
M  V30 26 H 2.168867 -5.232520 1.468425 0
M  V30 27 H 3.114663 -3.822913 0.966288 0
M  V30 28 H 2.818280 -4.173990 2.742874 0
M  V30 29 H 3.270540 -2.005856 1.862682 0
M  V30 30 H 3.611313 0.295439 1.931650 0
M  V30 31 H 1.941308 0.405006 2.511105 0
M  V30 32 H 1.435816 0.423443 -2.113143 0
M  V30 33 H 1.109514 2.265588 -3.648127 0
M  V30 34 H 1.525055 4.576477 -2.828102 0
M  V30 35 H 2.235442 5.068832 -0.586547 0
M  V30 36 H -3.823307 -2.797569 1.361139 0
M  V30 37 H -5.824376 -1.319481 1.255440 0
M  V30 38 H -3.285232 2.053957 1.429351 0
M  V30 39 H -1.367022 0.607676 1.529536 0
M  V30 40 H -2.134884 -3.930460 1.454286 0
M  V30 END ATOM
M  V30 BEGIN BOND
M  V30 1 1 1 2
M  V30 2 1 2 3
M  V30 3 1 3 4
M  V30 4 1 4 5
M  V30 5 1 5 6
M  V30 6 2 6 7
M  V30 7 1 6 8
M  V30 8 2 8 9
M  V30 9 1 9 10
M  V30 10 2 10 11
M  V30 11 1 11 12
M  V30 12 2 12 13
M  V30 13 1 13 14
M  V30 14 2 3 15
M  V30 15 1 15 16
M  V30 16 1 16 17
M  V30 17 2 17 18
M  V30 18 1 18 19
M  V30 19 2 19 20
M  V30 20 1 20 21
M  V30 21 2 21 22
M  V30 22 2 16 23
M  V30 23 1 23 24
M  V30 24 2 24 25
M  V30 25 1 24 2
M  V30 26 1 13 8
M  V30 27 1 22 17
M  V30 28 1 1 26
M  V30 29 1 1 27
M  V30 30 1 1 28
M  V30 31 1 4 29
M  V30 32 1 5 30
M  V30 33 1 5 31
M  V30 34 1 9 32
M  V30 35 1 10 33
M  V30 36 1 11 34
M  V30 37 1 12 35
M  V30 38 1 18 36
M  V30 39 1 19 37
M  V30 40 1 21 38
M  V30 41 1 22 39
M  V30 42 1 23 40
M  V30 END BOND
M  V30 END CTAB
M  END
>  <Dataset>  (912) 
ChEMBL_Kinases

>  <Ligand_Instance>  (912) 
nan

>  <PDB_ID>  (912) 
nan

>  <Standardized_SMILES>  (912) 
Cn1c(NCC(=O)c2ccccc2F)nc(-c2ccncc2)cc1=O

>  <Name>  (912) 
nan

>  <Pocket>  (912) 
nan

>  <ATP_Site>  (912) 
nan

>  <Peripheral>  (912) 
nan

>  <Num_H_Atoms_ProtBoundConf>  (912) 
nan

>  <Num_Resolved_Atoms>  (912) 
nan

>  <Num_Not_Resolved_Atoms>  (912) 
nan

$$$$
CHEMBL3093052
     RDKit          3D

  0  0  0  0  0  0  0  0  0  0999 V3000
M  V30 BEGIN CTAB
M  V30 COUNTS 58 60 0 0 0
M  V30 BEGIN ATOM
M  V30 1 C -0.893325 -2.870236 3.457028 0
M  V30 2 N -0.756876 -3.039674 2.031884 0
M  V30 3 C -0.717579 -2.091274 1.088933 0
M  V30 4 N -0.827999 -0.749319 1.627123 0
M  V30 5 C 0.446993 -0.152699 1.900331 0
M  V30 6 C 1.625102 -1.040359 1.532552 0
M  V30 7 C 2.911643 -0.362570 1.849524 0
M  V30 8 C 3.164531 0.915273 1.148027 0
M  V30 9 C 3.238122 0.839970 -0.351887 0
M  V30 10 N 2.034031 0.367941 -0.983443 0
M  V30 11 C -2.156871 -0.286910 1.783635 0
M  V30 12 C -2.690095 0.775593 0.927058 0
M  V30 13 C -2.073906 2.086306 0.908975 0
M  V30 14 C -1.094191 2.624452 0.064147 0
M  V30 15 C -0.584764 3.879054 0.141279 0
M  V30 16 C -1.031248 4.740608 1.112890 0
M  V30 17 C -1.997318 4.298660 1.992629 0
M  V30 18 C -2.486649 3.015741 1.877018 0
M  V30 19 N -0.591244 -2.368546 -0.219673 0
M  V30 20 C -0.494690 -3.629345 -0.679459 0
M  V30 21 C -0.363460 -3.856311 -2.112092 0
M  V30 22 C -0.342430 -2.754678 -2.939352 0
M  V30 23 C -0.218725 -2.929287 -4.321196 0
M  V30 24 N -0.117026 -4.173579 -4.877070 0
M  V30 25 C -0.144058 -5.214560 -4.007679 0
M  V30 26 C -0.263407 -5.125566 -2.634476 0
M  V30 27 C -0.532304 -4.626464 0.272079 0
M  V30 28 C -0.663319 -4.326527 1.624862 0
M  V30 29 O -0.689763 -5.297696 2.434079 0
M  V30 30 H -0.765187 -1.811275 3.759902 0
M  V30 31 H -1.860392 -3.275525 3.846808 0
M  V30 32 H -0.096665 -3.508013 3.930444 0
M  V30 33 H 0.575751 0.764783 1.313646 0
M  V30 34 H 0.595308 0.032134 2.998728 0
M  V30 35 H 1.537322 -1.943369 2.211854 0
M  V30 36 H 1.482984 -1.345909 0.483480 0
M  V30 37 H 3.746475 -1.089319 1.592525 0
M  V30 38 H 2.940998 -0.253992 2.970696 0
M  V30 39 H 4.152147 1.335467 1.500788 0
M  V30 40 H 2.366838 1.687545 1.361774 0
M  V30 41 H 3.433835 1.881921 -0.740452 0
M  V30 42 H 4.099458 0.189276 -0.639266 0
M  V30 43 H 1.596136 1.125184 -1.537019 0
M  V30 44 H 2.268210 -0.389640 -1.651635 0
M  V30 45 H -2.879086 -1.156512 1.689886 0
M  V30 46 H -2.339950 0.012085 2.877602 0
M  V30 47 H -3.772757 0.933280 1.236029 0
M  V30 48 H -2.797452 0.367438 -0.111413 0
M  V30 49 H -0.768659 1.895834 -0.698479 0
M  V30 50 H 0.178631 4.152151 -0.595337 0
M  V30 51 H -0.623897 5.724891 1.162924 0
M  V30 52 H -2.352828 4.969262 2.757050 0
M  V30 53 H -3.247425 2.722614 2.598179 0
M  V30 54 H -0.417975 -1.711134 -2.594278 0
M  V30 55 H -0.193835 -2.117954 -5.041266 0
M  V30 56 H -0.066920 -6.228005 -4.393724 0
M  V30 57 H -0.276684 -6.010187 -2.017088 0
M  V30 58 H -0.458947 -5.638881 -0.032819 0
M  V30 END ATOM
M  V30 BEGIN BOND
M  V30 1 1 1 2
M  V30 2 1 2 3
M  V30 3 1 3 4
M  V30 4 1 4 5
M  V30 5 1 5 6
M  V30 6 1 6 7
M  V30 7 1 7 8
M  V30 8 1 8 9
M  V30 9 1 9 10
M  V30 10 1 4 11
M  V30 11 1 11 12
M  V30 12 1 12 13
M  V30 13 2 13 14
M  V30 14 1 14 15
M  V30 15 2 15 16
M  V30 16 1 16 17
M  V30 17 2 17 18
M  V30 18 2 3 19
M  V30 19 1 19 20
M  V30 20 1 20 21
M  V30 21 2 21 22
M  V30 22 1 22 23
M  V30 23 2 23 24
M  V30 24 1 24 25
M  V30 25 2 25 26
M  V30 26 2 20 27
M  V30 27 1 27 28
M  V30 28 2 28 29
M  V30 29 1 28 2
M  V30 30 1 18 13
M  V30 31 1 26 21
M  V30 32 1 1 30
M  V30 33 1 1 31
M  V30 34 1 1 32
M  V30 35 1 5 33
M  V30 36 1 5 34
M  V30 37 1 6 35
M  V30 38 1 6 36
M  V30 39 1 7 37
M  V30 40 1 7 38
M  V30 41 1 8 39
M  V30 42 1 8 40
M  V30 43 1 9 41
M  V30 44 1 9 42
M  V30 45 1 10 43
M  V30 46 1 10 44
M  V30 47 1 11 45
M  V30 48 1 11 46
M  V30 49 1 12 47
M  V30 50 1 12 48
M  V30 51 1 14 49
M  V30 52 1 15 50
M  V30 53 1 16 51
M  V30 54 1 17 52
M  V30 55 1 18 53
M  V30 56 1 22 54
M  V30 57 1 23 55
M  V30 58 1 25 56
M  V30 59 1 26 57
M  V30 60 1 27 58
M  V30 END BOND
M  V30 END CTAB
M  END
>  <Dataset>  (913) 
ChEMBL_Kinases

>  <Ligand_Instance>  (913) 
nan

>  <PDB_ID>  (913) 
nan

>  <Standardized_SMILES>  (913) 
Cn1c(N(CCCCCN)CCc2ccccc2)nc(-c2ccncc2)cc1=O

>  <Name>  (913) 
nan

>  <Pocket>  (913) 
nan

>  <ATP_Site>  (913) 
nan

>  <Peripheral>  (913) 
nan

>  <Num_H_Atoms_ProtBoundConf>  (913) 
nan

>  <Num_Resolved_Atoms>  (913) 
nan

>  <Num_Not_Resolved_Atoms>  (913) 
nan

$$$$
CHEMBL3093051
     RDKit          3D

  0  0  0  0  0  0  0  0  0  0999 V3000
M  V30 BEGIN CTAB
M  V30 COUNTS 55 57 0 0 0
M  V30 BEGIN ATOM
M  V30 1 C 1.872989 -3.273495 1.745634 0
M  V30 2 N 0.643450 -3.462232 1.049435 0
M  V30 3 C 0.110612 -2.286969 0.693950 0
M  V30 4 N 0.473567 -0.892823 0.791341 0
M  V30 5 C 0.525694 -0.057061 1.954424 0
M  V30 6 C 1.817971 0.561289 2.306022 0
M  V30 7 C 3.018357 -0.209686 2.603381 0
M  V30 8 C 4.122531 0.832450 2.906116 0
M  V30 9 N 4.309195 1.678143 1.715699 0
M  V30 10 C 0.734621 -0.282380 -0.484412 0
M  V30 11 C -0.221926 0.622193 -1.126339 0
M  V30 12 C -0.654745 1.847878 -0.454608 0
M  V30 13 C 0.197153 2.941474 -0.477559 0
M  V30 14 C -0.100813 4.179253 0.064694 0
M  V30 15 C -1.333273 4.349254 0.676406 0
M  V30 16 C -2.165323 3.261642 0.692784 0
M  V30 17 C -1.913208 2.008908 0.165101 0
M  V30 18 N -1.089831 -2.366751 0.030014 0
M  V30 19 C -1.719009 -3.499168 -0.265059 0
M  V30 20 C -2.990614 -3.516812 -0.981715 0
M  V30 21 C -3.566938 -2.324053 -1.363446 0
M  V30 22 C -4.767050 -2.177327 -2.059551 0
M  V30 23 N -5.374179 -3.360231 -2.357993 0
M  V30 24 C -4.856768 -4.545629 -2.009845 0
M  V30 25 C -3.656399 -4.665323 -1.314835 0
M  V30 26 C -1.163560 -4.704074 0.103756 0
M  V30 27 C 0.039898 -4.625868 0.770468 0
M  V30 28 O 0.701488 -5.611276 1.187342 0
M  V30 29 H 2.738048 -2.950545 1.193465 0
M  V30 30 H 2.168432 -4.306384 2.112441 0
M  V30 31 H 1.726190 -2.745169 2.735552 0
M  V30 32 H 0.078785 -0.600936 2.858114 0
M  V30 33 H -0.199128 0.756207 1.832695 0
M  V30 34 H 1.613554 1.209509 3.213833 0
M  V30 35 H 2.124622 1.350108 1.545813 0
M  V30 36 H 3.461736 -0.770086 1.747890 0
M  V30 37 H 3.040171 -0.884925 3.454274 0
M  V30 38 H 3.851662 1.497796 3.725679 0
M  V30 39 H 5.088066 0.375387 3.106686 0
M  V30 40 H 4.134379 0.999657 0.913680 0
M  V30 41 H 5.317957 1.930143 1.616584 0
M  V30 42 H 1.688418 0.369445 -0.398434 0
M  V30 43 H 0.990437 -1.081719 -1.226817 0
M  V30 44 H 0.306571 0.990567 -2.071727 0
M  V30 45 H -1.093997 0.088692 -1.613076 0
M  V30 46 H 1.202114 2.938168 -0.932418 0
M  V30 47 H 0.560326 5.032479 0.049091 0
M  V30 48 H -1.702920 5.260873 1.143866 0
M  V30 49 H -3.155469 3.336511 1.161307 0
M  V30 50 H -2.588211 1.179558 0.194724 0
M  V30 51 H -3.044801 -1.393612 -1.103117 0
M  V30 52 H -5.118688 -1.187787 -2.304670 0
M  V30 53 H -5.398879 -5.441079 -2.283435 0
M  V30 54 H -3.287416 -5.633302 -1.062104 0
M  V30 55 H -1.550763 -5.681819 -0.063850 0
M  V30 END ATOM
M  V30 BEGIN BOND
M  V30 1 1 1 2
M  V30 2 1 2 3
M  V30 3 1 3 4
M  V30 4 1 4 5
M  V30 5 1 5 6
M  V30 6 1 6 7
M  V30 7 1 7 8
M  V30 8 1 8 9
M  V30 9 1 4 10
M  V30 10 1 10 11
M  V30 11 1 11 12
M  V30 12 2 12 13
M  V30 13 1 13 14
M  V30 14 2 14 15
M  V30 15 1 15 16
M  V30 16 2 16 17
M  V30 17 2 3 18
M  V30 18 1 18 19
M  V30 19 1 19 20
M  V30 20 2 20 21
M  V30 21 1 21 22
M  V30 22 2 22 23
M  V30 23 1 23 24
M  V30 24 2 24 25
M  V30 25 2 19 26
M  V30 26 1 26 27
M  V30 27 2 27 28
M  V30 28 1 27 2
M  V30 29 1 17 12
M  V30 30 1 25 20
M  V30 31 1 1 29
M  V30 32 1 1 30
M  V30 33 1 1 31
M  V30 34 1 5 32
M  V30 35 1 5 33
M  V30 36 1 6 34
M  V30 37 1 6 35
M  V30 38 1 7 36
M  V30 39 1 7 37
M  V30 40 1 8 38
M  V30 41 1 8 39
M  V30 42 1 9 40
M  V30 43 1 9 41
M  V30 44 1 10 42
M  V30 45 1 10 43
M  V30 46 1 11 44
M  V30 47 1 11 45
M  V30 48 1 13 46
M  V30 49 1 14 47
M  V30 50 1 15 48
M  V30 51 1 16 49
M  V30 52 1 17 50
M  V30 53 1 21 51
M  V30 54 1 22 52
M  V30 55 1 24 53
M  V30 56 1 25 54
M  V30 57 1 26 55
M  V30 END BOND
M  V30 END CTAB
M  END
>  <Dataset>  (914) 
ChEMBL_Kinases

>  <Ligand_Instance>  (914) 
nan

>  <PDB_ID>  (914) 
nan

>  <Standardized_SMILES>  (914) 
Cn1c(N(CCCCN)CCc2ccccc2)nc(-c2ccncc2)cc1=O

>  <Name>  (914) 
nan

>  <Pocket>  (914) 
nan

>  <ATP_Site>  (914) 
nan

>  <Peripheral>  (914) 
nan

>  <Num_H_Atoms_ProtBoundConf>  (914) 
nan

>  <Num_Resolved_Atoms>  (914) 
nan

>  <Num_Not_Resolved_Atoms>  (914) 
nan

$$$$
CHEMBL3093050
     RDKit          3D

  0  0  0  0  0  0  0  0  0  0999 V3000
M  V30 BEGIN CTAB
M  V30 COUNTS 42 44 0 0 0
M  V30 BEGIN ATOM
M  V30 1 C 0.828117 -4.801401 2.152350 0
M  V30 2 N 0.114743 -3.546193 2.312118 0
M  V30 3 C 0.582350 -2.424518 1.689530 0
M  V30 4 N 1.760109 -2.515590 0.898536 0
M  V30 5 C 2.294119 -1.367815 0.221035 0
M  V30 6 C 1.345497 -0.761453 -0.774046 0
M  V30 7 O 0.986316 -1.664068 -1.776272 0
M  V30 8 C 2.049631 0.356482 -1.472608 0
M  V30 9 C 1.407928 0.794335 -2.634942 0
M  V30 10 C 1.949820 1.833370 -3.393286 0
M  V30 11 C 3.136344 2.455308 -3.012102 0
M  V30 12 C 3.739176 1.994983 -1.859665 0
M  V30 13 C 3.222867 0.971535 -1.095788 0
M  V30 14 N -0.058156 -1.249550 1.820274 0
M  V30 15 C -1.171599 -1.095813 2.550544 0
M  V30 16 C -1.846890 0.191683 2.675378 0
M  V30 17 C -2.987796 0.409302 3.407680 0
M  V30 18 C -3.576910 1.655354 3.483846 0
M  V30 19 N -3.028717 2.694847 2.827256 0
M  V30 20 C -1.902926 2.528047 2.091882 0
M  V30 21 C -1.303387 1.271773 2.011217 0
M  V30 22 C -1.626130 -2.241232 3.170393 0
M  V30 23 C -0.999484 -3.466173 3.062555 0
M  V30 24 O -1.468071 -4.488298 3.659296 0
M  V30 25 H 0.379704 -5.536247 2.861607 0
M  V30 26 H 0.641995 -5.260484 1.137519 0
M  V30 27 H 1.921316 -4.702444 2.350675 0
M  V30 28 H 2.258878 -3.424554 0.796949 0
M  V30 29 H 2.465156 -0.574122 1.003582 0
M  V30 30 H 3.266730 -1.544683 -0.237868 0
M  V30 31 H 0.467558 -0.315427 -0.301104 0
M  V30 32 H 1.456784 -2.525576 -1.718256 0
M  V30 33 H 0.476883 0.351062 -2.989331 0
M  V30 34 H 1.424098 2.150676 -4.294406 0
M  V30 35 H 3.566088 3.264631 -3.595391 0
M  V30 36 H 4.665264 2.441255 -1.513759 0
M  V30 37 H 3.662374 0.583920 -0.191345 0
M  V30 38 H -3.427957 -0.414835 3.932080 0
M  V30 39 H -4.466090 1.857978 4.045792 0
M  V30 40 H -1.440880 3.352602 1.552219 0
M  V30 41 H -0.397037 1.191357 1.404859 0
M  V30 42 H -2.502921 -2.222569 3.772712 0
M  V30 END ATOM
M  V30 BEGIN BOND
M  V30 1 1 1 2
M  V30 2 1 2 3
M  V30 3 1 3 4
M  V30 4 1 4 5
M  V30 5 1 5 6
M  V30 6 1 6 7
M  V30 7 1 6 8
M  V30 8 2 8 9
M  V30 9 1 9 10
M  V30 10 2 10 11
M  V30 11 1 11 12
M  V30 12 2 12 13
M  V30 13 2 3 14
M  V30 14 1 14 15
M  V30 15 1 15 16
M  V30 16 2 16 17
M  V30 17 1 17 18
M  V30 18 2 18 19
M  V30 19 1 19 20
M  V30 20 2 20 21
M  V30 21 2 15 22
M  V30 22 1 22 23
M  V30 23 2 23 24
M  V30 24 1 23 2
M  V30 25 1 13 8
M  V30 26 1 21 16
M  V30 27 1 1 25
M  V30 28 1 1 26
M  V30 29 1 1 27
M  V30 30 1 4 28
M  V30 31 1 5 29
M  V30 32 1 5 30
M  V30 33 1 6 31
M  V30 34 1 7 32
M  V30 35 1 9 33
M  V30 36 1 10 34
M  V30 37 1 11 35
M  V30 38 1 12 36
M  V30 39 1 13 37
M  V30 40 1 17 38
M  V30 41 1 18 39
M  V30 42 1 20 40
M  V30 43 1 21 41
M  V30 44 1 22 42
M  V30 END BOND
M  V30 END CTAB
M  END
>  <Dataset>  (915) 
ChEMBL_Kinases

>  <Ligand_Instance>  (915) 
nan

>  <PDB_ID>  (915) 
nan

>  <Standardized_SMILES>  (915) 
Cn1c(NCC(O)c2ccccc2)nc(-c2ccncc2)cc1=O

>  <Name>  (915) 
nan

>  <Pocket>  (915) 
nan

>  <ATP_Site>  (915) 
nan

>  <Peripheral>  (915) 
nan

>  <Num_H_Atoms_ProtBoundConf>  (915) 
nan

>  <Num_Resolved_Atoms>  (915) 
nan

>  <Num_Not_Resolved_Atoms>  (915) 
nan

$$$$
CHEMBL3093049
     RDKit          3D

  0  0  0  0  0  0  0  0  0  0999 V3000
M  V30 BEGIN CTAB
M  V30 COUNTS 47 49 0 0 0
M  V30 BEGIN ATOM
M  V30 1 C -1.214793 -3.408940 4.079265 0
M  V30 2 N -1.777133 -2.447585 3.156574 0
M  V30 3 C -0.919890 -1.706171 2.394108 0
M  V30 4 N 0.504328 -1.849007 2.483603 0
M  V30 5 C 1.454943 -1.100399 1.684821 0
M  V30 6 C 1.238375 -1.426713 0.251579 0
M  V30 7 C 2.209109 -0.677298 -0.674593 0
M  V30 8 C 2.043981 0.779428 -0.524405 0
M  V30 9 C 3.148061 1.580571 0.048428 0
M  V30 10 C 4.349500 0.804197 0.519371 0
M  V30 11 C 4.664573 -0.149528 -0.618554 0
M  V30 12 C 3.592471 -1.221000 -0.528350 0
M  V30 13 N -1.491901 -0.826712 1.552519 0
M  V30 14 C -2.815953 -0.641224 1.422685 0
M  V30 15 C -3.265534 0.358295 0.458867 0
M  V30 16 C -2.317758 1.054285 -0.261840 0
M  V30 17 C -2.691889 2.023643 -1.199064 0
M  V30 18 N -3.999169 2.300103 -1.419207 0
M  V30 19 C -4.932974 1.612948 -0.707790 0
M  V30 20 C -4.590229 0.655190 0.219294 0
M  V30 21 C -3.670742 -1.394945 2.197210 0
M  V30 22 C -3.110239 -2.304919 3.069216 0
M  V30 23 O -3.834561 -3.021947 3.802386 0
M  V30 24 H -0.464634 -2.957728 4.753952 0
M  V30 25 H -2.005397 -3.873823 4.680403 0
M  V30 26 H -0.687097 -4.255521 3.570185 0
M  V30 27 H 0.822845 -2.558128 3.192556 0
M  V30 28 H 2.465801 -1.414452 2.023331 0
M  V30 29 H 1.250429 -0.033615 1.917592 0
M  V30 30 H 1.305035 -2.515603 0.122815 0
M  V30 31 H 0.211966 -1.130616 -0.040252 0
M  V30 32 H 1.867333 -0.980415 -1.689062 0
M  V30 33 H 1.755166 1.261630 -1.507628 0
M  V30 34 H 1.120635 0.989933 0.093612 0
M  V30 35 H 3.543805 2.343276 -0.666043 0
M  V30 36 H 2.831430 2.190792 0.944933 0
M  V30 37 H 5.190441 1.514815 0.631606 0
M  V30 38 H 4.193891 0.296663 1.486180 0
M  V30 39 H 5.627918 -0.684216 -0.465061 0
M  V30 40 H 4.633420 0.419639 -1.554609 0
M  V30 41 H 3.852210 -1.978107 -1.305818 0
M  V30 42 H 3.783859 -1.736860 0.446477 0
M  V30 43 H -1.275885 0.874296 -0.125805 0
M  V30 44 H -1.940494 2.576103 -1.770790 0
M  V30 45 H -5.982494 1.848326 -0.897710 0
M  V30 46 H -5.357067 0.129321 0.766223 0
M  V30 47 H -4.725607 -1.262254 2.108386 0
M  V30 END ATOM
M  V30 BEGIN BOND
M  V30 1 1 1 2
M  V30 2 1 2 3
M  V30 3 1 3 4
M  V30 4 1 4 5
M  V30 5 1 5 6
M  V30 6 1 6 7
M  V30 7 1 7 8
M  V30 8 1 8 9
M  V30 9 1 9 10
M  V30 10 1 10 11
M  V30 11 1 11 12
M  V30 12 2 3 13
M  V30 13 1 13 14
M  V30 14 1 14 15
M  V30 15 2 15 16
M  V30 16 1 16 17
M  V30 17 2 17 18
M  V30 18 1 18 19
M  V30 19 2 19 20
M  V30 20 2 14 21
M  V30 21 1 21 22
M  V30 22 2 22 23
M  V30 23 1 22 2
M  V30 24 1 12 7
M  V30 25 1 20 15
M  V30 26 1 1 24
M  V30 27 1 1 25
M  V30 28 1 1 26
M  V30 29 1 4 27
M  V30 30 1 5 28
M  V30 31 1 5 29
M  V30 32 1 6 30
M  V30 33 1 6 31
M  V30 34 1 7 32
M  V30 35 1 8 33
M  V30 36 1 8 34
M  V30 37 1 9 35
M  V30 38 1 9 36
M  V30 39 1 10 37
M  V30 40 1 10 38
M  V30 41 1 11 39
M  V30 42 1 11 40
M  V30 43 1 12 41
M  V30 44 1 12 42
M  V30 45 1 16 43
M  V30 46 1 17 44
M  V30 47 1 19 45
M  V30 48 1 20 46
M  V30 49 1 21 47
M  V30 END BOND
M  V30 END CTAB
M  END
>  <Dataset>  (916) 
ChEMBL_Kinases

>  <Ligand_Instance>  (916) 
nan

>  <PDB_ID>  (916) 
nan

>  <Standardized_SMILES>  (916) 
Cn1c(NCCC2CCCCC2)nc(-c2ccncc2)cc1=O

>  <Name>  (916) 
nan

>  <Pocket>  (916) 
nan

>  <ATP_Site>  (916) 
nan

>  <Peripheral>  (916) 
nan

>  <Num_H_Atoms_ProtBoundConf>  (916) 
nan

>  <Num_Resolved_Atoms>  (916) 
nan

>  <Num_Not_Resolved_Atoms>  (916) 
nan

$$$$
CHEMBL3093048
     RDKit          3D

  0  0  0  0  0  0  0  0  0  0999 V3000
M  V30 BEGIN CTAB
M  V30 COUNTS 41 43 0 0 0
M  V30 BEGIN ATOM
M  V30 1 C 0.140462 -4.318820 2.555725 0
M  V30 2 N -0.270467 -2.966202 2.883710 0
M  V30 3 C -0.008316 -2.006071 1.976496 0
M  V30 4 N 0.648138 -2.330512 0.749447 0
M  V30 5 C 0.949974 -1.328218 -0.255565 0
M  V30 6 C 1.651202 -1.930132 -1.468377 0
M  V30 7 C 1.948129 -0.890014 -2.477787 0
M  V30 8 C 1.108882 -0.530008 -3.490243 0
M  V30 9 C 1.428696 0.441880 -4.403604 0
M  V30 10 C 2.675536 1.041907 -4.228831 0
M  V30 11 C 3.552487 0.716842 -3.230764 0
M  V30 12 C 3.187014 -0.270677 -2.331237 0
M  V30 13 N -0.344608 -0.717803 2.175467 0
M  V30 14 C -0.967023 -0.299496 3.296466 0
M  V30 15 C -1.330741 1.097677 3.510175 0
M  V30 16 C -1.966616 1.577672 4.635249 0
M  V30 17 C -2.276915 2.937354 4.753352 0
M  V30 18 N -1.955180 3.797783 3.761659 0
M  V30 19 C -1.336317 3.322600 2.669760 0
M  V30 20 C -1.014559 1.998727 2.514362 0
M  V30 21 C -1.228075 -1.295475 4.215150 0
M  V30 22 C -0.891059 -2.620856 4.028903 0
M  V30 23 O -1.133496 -3.523438 4.873512 0
M  V30 24 H -0.391594 -4.730266 1.665963 0
M  V30 25 H -0.040149 -5.017043 3.403930 0
M  V30 26 H 1.222753 -4.292678 2.294949 0
M  V30 27 H 0.936744 -3.310083 0.530355 0
M  V30 28 H 1.663984 -0.592689 0.161001 0
M  V30 29 H 0.057570 -0.778769 -0.593932 0
M  V30 30 H 1.003410 -2.722016 -1.919202 0
M  V30 31 H 2.571187 -2.461735 -1.140155 0
M  V30 32 H 0.153261 -1.061592 -3.540198 0
M  V30 33 H 0.760743 0.727462 -5.208306 0
M  V30 34 H 2.999903 1.813342 -4.904173 0
M  V30 35 H 4.499614 1.200026 -3.130089 0
M  V30 36 H 3.885712 -0.519528 -1.547910 0
M  V30 37 H -2.218005 0.883738 5.418396 0
M  V30 38 H -2.778777 3.207572 5.682914 0
M  V30 39 H -1.111516 4.074249 1.919247 0
M  V30 40 H -0.513818 1.647673 1.618074 0
M  V30 41 H -1.715337 -1.068434 5.131192 0
M  V30 END ATOM
M  V30 BEGIN BOND
M  V30 1 1 1 2
M  V30 2 1 2 3
M  V30 3 1 3 4
M  V30 4 1 4 5
M  V30 5 1 5 6
M  V30 6 1 6 7
M  V30 7 2 7 8
M  V30 8 1 8 9
M  V30 9 2 9 10
M  V30 10 1 10 11
M  V30 11 2 11 12
M  V30 12 2 3 13
M  V30 13 1 13 14
M  V30 14 1 14 15
M  V30 15 2 15 16
M  V30 16 1 16 17
M  V30 17 2 17 18
M  V30 18 1 18 19
M  V30 19 2 19 20
M  V30 20 2 14 21
M  V30 21 1 21 22
M  V30 22 2 22 23
M  V30 23 1 22 2
M  V30 24 1 12 7
M  V30 25 1 20 15
M  V30 26 1 1 24
M  V30 27 1 1 25
M  V30 28 1 1 26
M  V30 29 1 4 27
M  V30 30 1 5 28
M  V30 31 1 5 29
M  V30 32 1 6 30
M  V30 33 1 6 31
M  V30 34 1 8 32
M  V30 35 1 9 33
M  V30 36 1 10 34
M  V30 37 1 11 35
M  V30 38 1 12 36
M  V30 39 1 16 37
M  V30 40 1 17 38
M  V30 41 1 19 39
M  V30 42 1 20 40
M  V30 43 1 21 41
M  V30 END BOND
M  V30 END CTAB
M  END
>  <Dataset>  (917) 
ChEMBL_Kinases

>  <Ligand_Instance>  (917) 
nan

>  <PDB_ID>  (917) 
nan

>  <Standardized_SMILES>  (917) 
Cn1c(NCCc2ccccc2)nc(-c2ccncc2)cc1=O

>  <Name>  (917) 
nan

>  <Pocket>  (917) 
nan

>  <ATP_Site>  (917) 
nan

>  <Peripheral>  (917) 
nan

>  <Num_H_Atoms_ProtBoundConf>  (917) 
nan

>  <Num_Resolved_Atoms>  (917) 
nan

>  <Num_Not_Resolved_Atoms>  (917) 
nan

$$$$
CHEMBL3093047
     RDKit          3D

  0  0  0  0  0  0  0  0  0  0999 V3000
M  V30 BEGIN CTAB
M  V30 COUNTS 40 42 0 0 0
M  V30 BEGIN ATOM
M  V30 1 C 0.472768 -3.369784 4.049284 0
M  V30 2 N -0.107970 -2.186597 3.420434 0
M  V30 3 C 0.385080 -1.506153 2.343564 0
M  V30 4 O 1.548692 -2.112746 1.917125 0
M  V30 5 C 2.262826 -1.605737 0.812023 0
M  V30 6 C 1.369505 -1.654372 -0.397023 0
M  V30 7 C 2.070653 -1.130473 -1.604574 0
M  V30 8 C 2.807865 -1.894300 -2.466173 0
M  V30 9 C 3.444427 -1.364010 -3.579566 0
M  V30 10 C 3.325790 -0.002371 -3.825519 0
M  V30 11 C 2.587337 0.788292 -2.970401 0
M  V30 12 C 1.970301 0.219453 -1.874140 0
M  V30 13 N -0.287893 -0.430343 1.897134 0
M  V30 14 C -1.423016 -0.017814 2.484444 0
M  V30 15 C -2.040437 1.158390 1.894090 0
M  V30 16 C -1.468313 1.780483 0.804710 0
M  V30 17 C -2.021275 2.904876 0.208149 0
M  V30 18 N -3.166411 3.423404 0.702790 0
M  V30 19 C -3.732677 2.823826 1.765584 0
M  V30 20 C -3.202225 1.699762 2.381299 0
M  V30 21 C -1.944356 -0.683051 3.571241 0
M  V30 22 C -1.259310 -1.798063 4.044706 0
M  V30 23 O -1.765031 -2.364320 5.023379 0
M  V30 24 H 1.054373 -3.141875 4.948777 0
M  V30 25 H -0.309772 -4.125346 4.280792 0
M  V30 26 H 1.180887 -3.880385 3.336596 0
M  V30 27 H 3.190020 -2.171701 0.691870 0
M  V30 28 H 2.468722 -0.525916 1.075896 0
M  V30 29 H 0.414490 -1.118911 -0.242911 0
M  V30 30 H 1.121535 -2.722796 -0.604190 0
M  V30 31 H 2.872669 -2.949331 -2.235186 0
M  V30 32 H 4.009806 -2.024352 -4.217185 0
M  V30 33 H 3.818153 0.434507 -4.694994 0
M  V30 34 H 2.466200 1.846754 -3.118491 0
M  V30 35 H 1.388599 0.859151 -1.205789 0
M  V30 36 H -0.557510 1.402588 0.378291 0
M  V30 37 H -1.533813 3.366490 -0.654628 0
M  V30 38 H -4.649601 3.286410 2.116350 0
M  V30 39 H -3.711032 1.288631 3.214286 0
M  V30 40 H -2.846575 -0.350716 4.033785 0
M  V30 END ATOM
M  V30 BEGIN BOND
M  V30 1 1 1 2
M  V30 2 1 2 3
M  V30 3 1 3 4
M  V30 4 1 4 5
M  V30 5 1 5 6
M  V30 6 1 6 7
M  V30 7 2 7 8
M  V30 8 1 8 9
M  V30 9 2 9 10
M  V30 10 1 10 11
M  V30 11 2 11 12
M  V30 12 2 3 13
M  V30 13 1 13 14
M  V30 14 1 14 15
M  V30 15 2 15 16
M  V30 16 1 16 17
M  V30 17 2 17 18
M  V30 18 1 18 19
M  V30 19 2 19 20
M  V30 20 2 14 21
M  V30 21 1 21 22
M  V30 22 2 22 23
M  V30 23 1 22 2
M  V30 24 1 12 7
M  V30 25 1 20 15
M  V30 26 1 1 24
M  V30 27 1 1 25
M  V30 28 1 1 26
M  V30 29 1 5 27
M  V30 30 1 5 28
M  V30 31 1 6 29
M  V30 32 1 6 30
M  V30 33 1 8 31
M  V30 34 1 9 32
M  V30 35 1 10 33
M  V30 36 1 11 34
M  V30 37 1 12 35
M  V30 38 1 16 36
M  V30 39 1 17 37
M  V30 40 1 19 38
M  V30 41 1 20 39
M  V30 42 1 21 40
M  V30 END BOND
M  V30 END CTAB
M  END
>  <Dataset>  (918) 
ChEMBL_Kinases

>  <Ligand_Instance>  (918) 
nan

>  <PDB_ID>  (918) 
nan

>  <Standardized_SMILES>  (918) 
Cn1c(OCCc2ccccc2)nc(-c2ccncc2)cc1=O

>  <Name>  (918) 
nan

>  <Pocket>  (918) 
nan

>  <ATP_Site>  (918) 
nan

>  <Peripheral>  (918) 
nan

>  <Num_H_Atoms_ProtBoundConf>  (918) 
nan

>  <Num_Resolved_Atoms>  (918) 
nan

>  <Num_Not_Resolved_Atoms>  (918) 
nan

$$$$
CHEMBL3093046
     RDKit          3D

  0  0  0  0  0  0  0  0  0  0999 V3000
M  V30 BEGIN CTAB
M  V30 COUNTS 52 55 0 0 0
M  V30 BEGIN ATOM
M  V30 1 O 2.117829 -3.567781 -1.483725 0
M  V30 2 C 1.793349 -2.511287 -0.836683 0
M  V30 3 C 2.783266 -1.557601 -0.944680 0
M  V30 4 C 2.590660 -0.356067 -0.300659 0
M  V30 5 C 3.519078 0.764365 -0.298168 0
M  V30 6 C 4.715221 0.687015 -0.978666 0
M  V30 7 C 5.489065 1.822453 -0.885030 0
M  V30 8 N 5.188689 2.949260 -0.215243 0
M  V30 9 C 4.020361 3.015843 0.444844 0
M  V30 10 C 3.167449 1.904981 0.404885 0
M  V30 11 N 1.433518 -0.267897 0.366357 0
M  V30 12 C 0.498161 -1.221266 0.446317 0
M  V30 13 C -0.679012 -0.910524 1.282051 0
M  V30 14 C -0.411678 -1.349269 2.730676 0
M  V30 15 C -1.583280 -1.032791 3.596529 0
M  V30 16 C -1.902707 0.420517 3.608540 0
M  V30 17 C -2.820286 1.068821 2.772849 0
M  V30 18 C -3.010424 2.427049 2.871162 0
M  V30 19 C -2.329763 3.213381 3.773615 0
M  V30 20 C -1.422388 2.592717 4.606343 0
M  V30 21 C -1.225212 1.234393 4.514915 0
M  V30 22 N 0.610222 -2.423523 -0.156469 0
M  V30 23 C -0.321730 -3.498608 -0.143206 0
M  V30 24 C -1.311898 -3.515681 -1.235089 0
M  V30 25 C -0.977916 -4.052544 -2.472350 0
M  V30 26 C -1.874883 -4.112123 -3.545548 0
M  V30 27 C -3.154300 -3.631858 -3.422250 0
M  V30 28 C -3.530100 -3.085944 -2.199342 0
M  V30 29 C -2.607368 -3.061887 -1.203269 0
M  V30 30 H 3.697140 -1.686478 -1.495841 0
M  V30 31 H 5.037917 -0.174720 -1.541536 0
M  V30 32 H 6.454290 1.863664 -1.386952 0
M  V30 33 H 3.736105 3.889233 0.991881 0
M  V30 34 H 2.236879 2.019945 0.956023 0
M  V30 35 H -0.766016 0.193850 1.350217 0
M  V30 36 H -1.634468 -1.273349 0.948123 0
M  V30 37 H -0.189105 -2.412705 2.801841 0
M  V30 38 H 0.458266 -0.776773 3.118223 0
M  V30 39 H -2.465933 -1.600567 3.253378 0
M  V30 40 H -1.425904 -1.347652 4.655157 0
M  V30 41 H -3.310323 0.382870 2.098425 0
M  V30 42 H -3.752660 2.807178 2.162007 0
M  V30 43 H -2.533421 4.278245 3.792724 0
M  V30 44 H -0.914351 3.244951 5.294370 0
M  V30 45 H -0.475772 0.883775 5.236746 0
M  V30 46 H 0.301124 -4.434157 -0.304376 0
M  V30 47 H -0.779792 -3.687361 0.851447 0
M  V30 48 H -0.044636 -4.475212 -2.747528 0
M  V30 49 H -1.644723 -4.523460 -4.521004 0
M  V30 50 H -3.859002 -3.664396 -4.227777 0
M  V30 51 H -4.535046 -2.713992 -2.110840 0
M  V30 52 H -2.990148 -2.633574 -0.289728 0
M  V30 END ATOM
M  V30 BEGIN BOND
M  V30 1 2 1 2
M  V30 2 1 2 3
M  V30 3 2 3 4
M  V30 4 1 4 5
M  V30 5 2 5 6
M  V30 6 1 6 7
M  V30 7 2 7 8
M  V30 8 1 8 9
M  V30 9 2 9 10
M  V30 10 1 4 11
M  V30 11 2 11 12
M  V30 12 1 12 13
M  V30 13 1 13 14
M  V30 14 1 14 15
M  V30 15 1 15 16
M  V30 16 2 16 17
M  V30 17 1 17 18
M  V30 18 2 18 19
M  V30 19 1 19 20
M  V30 20 2 20 21
M  V30 21 1 12 22
M  V30 22 1 22 23
M  V30 23 1 23 24
M  V30 24 2 24 25
M  V30 25 1 25 26
M  V30 26 2 26 27
M  V30 27 1 27 28
M  V30 28 2 28 29
M  V30 29 1 22 2
M  V30 30 1 29 24
M  V30 31 1 10 5
M  V30 32 1 21 16
M  V30 33 1 3 30
M  V30 34 1 6 31
M  V30 35 1 7 32
M  V30 36 1 9 33
M  V30 37 1 10 34
M  V30 38 1 13 35
M  V30 39 1 13 36
M  V30 40 1 14 37
M  V30 41 1 14 38
M  V30 42 1 15 39
M  V30 43 1 15 40
M  V30 44 1 17 41
M  V30 45 1 18 42
M  V30 46 1 19 43
M  V30 47 1 20 44
M  V30 48 1 21 45
M  V30 49 1 23 46
M  V30 50 1 23 47
M  V30 51 1 25 48
M  V30 52 1 26 49
M  V30 53 1 27 50
M  V30 54 1 28 51
M  V30 55 1 29 52
M  V30 END BOND
M  V30 END CTAB
M  END
>  <Dataset>  (919) 
ChEMBL_Kinases

>  <Ligand_Instance>  (919) 
nan

>  <PDB_ID>  (919) 
nan

>  <Standardized_SMILES>  (919) 
O=c1cc(-c2ccncc2)nc(CCCc2ccccc2)n1Cc1ccccc1

>  <Name>  (919) 
nan

>  <Pocket>  (919) 
nan

>  <ATP_Site>  (919) 
nan

>  <Peripheral>  (919) 
nan

>  <Num_H_Atoms_ProtBoundConf>  (919) 
nan

>  <Num_Resolved_Atoms>  (919) 
nan

>  <Num_Not_Resolved_Atoms>  (919) 
nan

$$$$
CHEMBL3093045
     RDKit          3D

  0  0  0  0  0  0  0  0  0  0999 V3000
M  V30 BEGIN CTAB
M  V30 COUNTS 48 50 0 0 0
M  V30 BEGIN ATOM
M  V30 1 C 1.833388 -5.200933 2.510697 0
M  V30 2 C 1.426882 -3.990358 1.658419 0
M  V30 3 C 0.151544 -3.487573 2.217424 0
M  V30 4 N -0.409772 -2.322261 1.538497 0
M  V30 5 C -0.268769 -0.981973 1.798592 0
M  V30 6 C 0.492655 -0.852785 3.040872 0
M  V30 7 C 0.830951 0.540126 3.425976 0
M  V30 8 C 1.850845 1.247848 2.602316 0
M  V30 9 C 1.661945 1.427978 1.182915 0
M  V30 10 C 2.188366 0.417631 0.377371 0
M  V30 11 C 2.150755 0.403714 -0.999328 0
M  V30 12 C 1.557898 1.447975 -1.651211 0
M  V30 13 C 1.030094 2.458617 -0.877895 0
M  V30 14 C 1.076249 2.456719 0.500153 0
M  V30 15 N -0.887740 -0.117077 0.977106 0
M  V30 16 C -1.628851 -0.502384 -0.071070 0
M  V30 17 C -2.298143 0.517116 -0.859672 0
M  V30 18 C -3.054801 0.179508 -1.957419 0
M  V30 19 C -3.715091 1.133006 -2.702620 0
M  V30 20 N -3.663272 2.441623 -2.408375 0
M  V30 21 C -2.936945 2.832458 -1.342896 0
M  V30 22 C -2.282309 1.869084 -0.606755 0
M  V30 23 C -1.804653 -1.832920 -0.379838 0
M  V30 24 C -1.165343 -2.733868 0.467097 0
M  V30 25 O -1.348366 -3.959932 0.153841 0
M  V30 26 H 1.209754 -6.065448 2.138597 0
M  V30 27 H 2.892971 -5.452461 2.415330 0
M  V30 28 H 1.516812 -5.057685 3.556014 0
M  V30 29 H 2.254538 -3.277432 1.767955 0
M  V30 30 H 1.381817 -4.269942 0.586521 0
M  V30 31 H -0.582325 -4.317473 2.267680 0
M  V30 32 H 0.361499 -3.268385 3.309075 0
M  V30 33 H -0.080534 -1.377809 3.865572 0
M  V30 34 H 1.482454 -1.391148 2.908735 0
M  V30 35 H -0.078218 1.204870 3.458545 0
M  V30 36 H 1.247713 0.504825 4.482616 0
M  V30 37 H 2.838326 0.727148 2.801818 0
M  V30 38 H 2.055568 2.282156 3.059892 0
M  V30 39 H 2.686647 -0.467472 0.802032 0
M  V30 40 H 2.562902 -0.385001 -1.591491 0
M  V30 41 H 1.507831 1.475246 -2.724798 0
M  V30 42 H 0.549421 3.306651 -1.382952 0
M  V30 43 H 0.663910 3.247604 1.133565 0
M  V30 44 H -3.198240 -0.800894 -2.322996 0
M  V30 45 H -4.318023 0.906285 -3.569981 0
M  V30 46 H -2.881421 3.882330 -1.087652 0
M  V30 47 H -1.734424 2.234099 0.228035 0
M  V30 48 H -2.382466 -2.198615 -1.201586 0
M  V30 END ATOM
M  V30 BEGIN BOND
M  V30 1 1 1 2
M  V30 2 1 2 3
M  V30 3 1 3 4
M  V30 4 1 4 5
M  V30 5 1 5 6
M  V30 6 1 6 7
M  V30 7 1 7 8
M  V30 8 1 8 9
M  V30 9 2 9 10
M  V30 10 1 10 11
M  V30 11 2 11 12
M  V30 12 1 12 13
M  V30 13 2 13 14
M  V30 14 2 5 15
M  V30 15 1 15 16
M  V30 16 1 16 17
M  V30 17 2 17 18
M  V30 18 1 18 19
M  V30 19 2 19 20
M  V30 20 1 20 21
M  V30 21 2 21 22
M  V30 22 2 16 23
M  V30 23 1 23 24
M  V30 24 2 24 25
M  V30 25 1 24 4
M  V30 26 1 14 9
M  V30 27 1 22 17
M  V30 28 1 1 26
M  V30 29 1 1 27
M  V30 30 1 1 28
M  V30 31 1 2 29
M  V30 32 1 2 30
M  V30 33 1 3 31
M  V30 34 1 3 32
M  V30 35 1 6 33
M  V30 36 1 6 34
M  V30 37 1 7 35
M  V30 38 1 7 36
M  V30 39 1 8 37
M  V30 40 1 8 38
M  V30 41 1 10 39
M  V30 42 1 11 40
M  V30 43 1 12 41
M  V30 44 1 13 42
M  V30 45 1 14 43
M  V30 46 1 18 44
M  V30 47 1 19 45
M  V30 48 1 21 46
M  V30 49 1 22 47
M  V30 50 1 23 48
M  V30 END BOND
M  V30 END CTAB
M  END
>  <Dataset>  (920) 
ChEMBL_Kinases

>  <Ligand_Instance>  (920) 
nan

>  <PDB_ID>  (920) 
nan

>  <Standardized_SMILES>  (920) 
CCCn1c(CCCc2ccccc2)nc(-c2ccncc2)cc1=O

>  <Name>  (920) 
nan

>  <Pocket>  (920) 
nan

>  <ATP_Site>  (920) 
nan

>  <Peripheral>  (920) 
nan

>  <Num_H_Atoms_ProtBoundConf>  (920) 
nan

>  <Num_Resolved_Atoms>  (920) 
nan

>  <Num_Not_Resolved_Atoms>  (920) 
nan

$$$$
CHEMBL3092465
     RDKit          3D

  0  0  0  0  0  0  0  0  0  0999 V3000
M  V30 BEGIN CTAB
M  V30 COUNTS 45 48 0 0 0
M  V30 BEGIN ATOM
M  V30 1 C -2.454760 2.961545 -2.422117 0
M  V30 2 C -1.060371 3.466820 -2.323349 0
M  V30 3 C -0.418619 4.168608 -3.320535 0
M  V30 4 C 0.872874 4.573245 -3.088209 0
M  V30 5 C 1.533776 4.295725 -1.893803 0
M  V30 6 C 2.878934 4.798585 -1.832616 0
M  V30 7 N 3.962537 5.195129 -1.764886 0
M  V30 8 C 0.895675 3.581374 -0.866957 0
M  V30 9 S 1.905610 3.399548 0.507545 0
M  V30 10 O 3.270810 2.892311 0.027470 0
M  V30 11 O 2.191191 4.762330 1.067217 0
M  V30 12 N 1.307436 2.392171 1.753608 0
M  V30 13 C 0.989718 1.016152 1.802062 0
M  V30 14 C 1.409828 0.344978 2.968336 0
M  V30 15 C 1.227366 -0.982231 3.253127 0
M  V30 16 C 0.577148 -1.733194 2.323315 0
M  V30 17 C 0.309463 -3.157784 2.482396 0
M  V30 18 C 0.714355 -3.830867 3.613959 0
M  V30 19 N 0.506543 -5.151711 3.840362 0
M  V30 20 C -0.148009 -5.861280 2.881903 0
M  V30 21 C -0.558567 -7.173566 2.700788 0
M  V30 22 C -0.301446 -8.225670 3.721899 0
M  V30 23 N -1.165853 -7.219813 1.515055 0
M  V30 24 N -1.174326 -6.035944 0.924754 0
M  V30 25 C -0.550439 -5.196405 1.759253 0
M  V30 26 N -0.334712 -3.888931 1.555075 0
M  V30 27 C 0.136789 -1.163909 1.166539 0
M  V30 28 C 0.346869 0.171611 0.932092 0
M  V30 29 C -0.395508 3.202020 -1.152587 0
M  V30 30 H -3.179039 3.544853 -1.839059 0
M  V30 31 H -2.732405 2.819390 -3.484312 0
M  V30 32 H -2.440373 1.921308 -1.992087 0
M  V30 33 H -0.988451 4.348822 -4.220207 0
M  V30 34 H 1.329881 5.120683 -3.903232 0
M  V30 35 H 1.124747 2.885353 2.682985 0
M  V30 36 H 1.940007 0.909108 3.750325 0
M  V30 37 H 1.584642 -1.409595 4.174613 0
M  V30 38 H 1.240262 -3.372702 4.438271 0
M  V30 39 H -0.745727 -9.185826 3.386655 0
M  V30 40 H 0.801331 -8.289883 3.828028 0
M  V30 41 H -0.740506 -7.877353 4.677533 0
M  V30 42 H -1.620889 -5.945586 -0.007406 0
M  V30 43 H -0.383536 -1.727418 0.404541 0
M  V30 44 H 0.013878 0.602613 0.030189 0
M  V30 45 H -0.849301 2.682385 -0.338387 0
M  V30 END ATOM
M  V30 BEGIN BOND
M  V30 1 1 1 2
M  V30 2 2 2 3
M  V30 3 1 3 4
M  V30 4 2 4 5
M  V30 5 1 5 6
M  V30 6 3 6 7
M  V30 7 1 5 8
M  V30 8 1 8 9
M  V30 9 2 9 10
M  V30 10 2 9 11
M  V30 11 1 9 12
M  V30 12 1 12 13
M  V30 13 2 13 14
M  V30 14 1 14 15
M  V30 15 2 15 16
M  V30 16 1 16 17
M  V30 17 2 17 18
M  V30 18 1 18 19
M  V30 19 2 19 20
M  V30 20 1 20 21
M  V30 21 1 21 22
M  V30 22 2 21 23
M  V30 23 1 23 24
M  V30 24 1 24 25
M  V30 25 2 25 26
M  V30 26 1 16 27
M  V30 27 2 27 28
M  V30 28 2 8 29
M  V30 29 1 29 2
M  V30 30 1 28 13
M  V30 31 1 26 17
M  V30 32 1 25 20
M  V30 33 1 1 30
M  V30 34 1 1 31
M  V30 35 1 1 32
M  V30 36 1 3 33
M  V30 37 1 4 34
M  V30 38 1 12 35
M  V30 39 1 14 36
M  V30 40 1 15 37
M  V30 41 1 18 38
M  V30 42 1 22 39
M  V30 43 1 22 40
M  V30 44 1 22 41
M  V30 45 1 24 42
M  V30 46 1 27 43
M  V30 47 1 28 44
M  V30 48 1 29 45
M  V30 END BOND
M  V30 END CTAB
M  END
>  <Dataset>  (921) 
ChEMBL_Kinases

>  <Ligand_Instance>  (921) 
nan

>  <PDB_ID>  (921) 
nan

>  <Standardized_SMILES>  (921) 
Cc1ccc(C#N)c(S(=O)(=O)Nc2ccc(-c3cnc4c(C)n[nH]c4n3)cc2)c1

>  <Name>  (921) 
nan

>  <Pocket>  (921) 
nan

>  <ATP_Site>  (921) 
nan

>  <Peripheral>  (921) 
nan

>  <Num_H_Atoms_ProtBoundConf>  (921) 
nan

>  <Num_Resolved_Atoms>  (921) 
nan

>  <Num_Not_Resolved_Atoms>  (921) 
nan

$$$$
CHEMBL3092466
     RDKit          3D

  0  0  0  0  0  0  0  0  0  0999 V3000
M  V30 BEGIN CTAB
M  V30 COUNTS 44 47 0 0 0
M  V30 BEGIN ATOM
M  V30 1 C -0.334936 -2.849931 -4.002898 0
M  V30 2 C 0.979515 -2.270617 -3.613540 0
M  V30 3 C 2.102336 -3.042381 -3.440282 0
M  V30 4 C 3.297190 -2.421470 -3.074499 0
M  V30 5 C 3.334657 -1.057877 -2.893952 0
M  V30 6 F 4.519194 -0.514835 -2.540453 0
M  V30 7 C 2.244757 -0.235079 -3.052864 0
M  V30 8 S 2.296541 1.488199 -2.823675 0
M  V30 9 O 0.906858 2.015125 -3.153470 0
M  V30 10 O 3.245419 2.098099 -3.837178 0
M  V30 11 N 2.769857 1.939698 -1.225379 0
M  V30 12 C 1.940424 1.523052 -0.146796 0
M  V30 13 C 2.588439 1.003838 0.942132 0
M  V30 14 C 1.923125 0.551914 2.076645 0
M  V30 15 C 0.546823 0.619338 2.131485 0
M  V30 16 C -0.297813 0.190010 3.241664 0
M  V30 17 C 0.225662 -0.349951 4.397166 0
M  V30 18 N -0.497381 -0.765587 5.457646 0
M  V30 19 C -1.843954 -0.647172 5.391337 0
M  V30 20 C -2.920754 -0.929412 6.200451 0
M  V30 21 C -2.815908 -1.529257 7.556482 0
M  V30 22 N -4.052520 -0.577721 5.567961 0
M  V30 23 N -3.738534 -0.073434 4.366840 0
M  V30 24 C -2.387082 -0.109277 4.243538 0
M  V30 25 N -1.639963 0.297053 3.200686 0
M  V30 26 C -0.077289 1.148866 1.015333 0
M  V30 27 C 0.584025 1.596275 -0.108249 0
M  V30 28 C 1.086212 -0.915928 -3.417446 0
M  V30 29 H -0.820814 -3.362939 -3.151088 0
M  V30 30 H -0.112830 -3.644992 -4.765618 0
M  V30 31 H -0.974931 -2.105907 -4.510750 0
M  V30 32 H 2.007534 -4.095522 -3.595580 0
M  V30 33 H 4.166159 -3.045082 -2.943729 0
M  V30 34 H 3.622832 2.497510 -0.994971 0
M  V30 35 H 3.681223 0.907422 0.996644 0
M  V30 36 H 2.417518 0.141907 2.939169 0
M  V30 37 H 1.292421 -0.474983 4.521129 0
M  V30 38 H -3.291204 -2.525525 7.619712 0
M  V30 39 H -1.790886 -1.494558 7.920504 0
M  V30 40 H -3.417582 -0.839660 8.218327 0
M  V30 41 H -4.451097 0.272457 3.683946 0
M  V30 42 H -1.170138 1.223721 1.010111 0
M  V30 43 H 0.075137 2.006506 -0.969065 0
M  V30 44 H 0.179646 -0.312712 -3.559840 0
M  V30 END ATOM
M  V30 BEGIN BOND
M  V30 1 1 1 2
M  V30 2 2 2 3
M  V30 3 1 3 4
M  V30 4 2 4 5
M  V30 5 1 5 6
M  V30 6 1 5 7
M  V30 7 1 7 8
M  V30 8 2 8 9
M  V30 9 2 8 10
M  V30 10 1 8 11
M  V30 11 1 11 12
M  V30 12 2 12 13
M  V30 13 1 13 14
M  V30 14 2 14 15
M  V30 15 1 15 16
M  V30 16 2 16 17
M  V30 17 1 17 18
M  V30 18 2 18 19
M  V30 19 1 19 20
M  V30 20 1 20 21
M  V30 21 2 20 22
M  V30 22 1 22 23
M  V30 23 1 23 24
M  V30 24 2 24 25
M  V30 25 1 15 26
M  V30 26 2 26 27
M  V30 27 2 7 28
M  V30 28 1 28 2
M  V30 29 1 27 12
M  V30 30 1 25 16
M  V30 31 1 24 19
M  V30 32 1 1 29
M  V30 33 1 1 30
M  V30 34 1 1 31
M  V30 35 1 3 32
M  V30 36 1 4 33
M  V30 37 1 11 34
M  V30 38 1 13 35
M  V30 39 1 14 36
M  V30 40 1 17 37
M  V30 41 1 21 38
M  V30 42 1 21 39
M  V30 43 1 21 40
M  V30 44 1 23 41
M  V30 45 1 26 42
M  V30 46 1 27 43
M  V30 47 1 28 44
M  V30 END BOND
M  V30 END CTAB
M  END
>  <Dataset>  (922) 
ChEMBL_Kinases

>  <Ligand_Instance>  (922) 
nan

>  <PDB_ID>  (922) 
nan

>  <Standardized_SMILES>  (922) 
Cc1ccc(F)c(S(=O)(=O)Nc2ccc(-c3cnc4c(C)n[nH]c4n3)cc2)c1

>  <Name>  (922) 
nan

>  <Pocket>  (922) 
nan

>  <ATP_Site>  (922) 
nan

>  <Peripheral>  (922) 
nan

>  <Num_H_Atoms_ProtBoundConf>  (922) 
nan

>  <Num_Resolved_Atoms>  (922) 
nan

>  <Num_Not_Resolved_Atoms>  (922) 
nan

$$$$
CHEMBL3092467
     RDKit          3D

  0  0  0  0  0  0  0  0  0  0999 V3000
M  V30 BEGIN CTAB
M  V30 COUNTS 45 48 0 0 0
M  V30 BEGIN ATOM
M  V30 1 C 1.250743 0.251615 4.318656 0
M  V30 2 O 2.656659 0.319035 4.375497 0
M  V30 3 C 3.430786 0.995841 3.445030 0
M  V30 4 C 4.816250 1.025322 3.556780 0
M  V30 5 C 5.500971 1.723164 2.584631 0
M  V30 6 C 4.847819 2.374608 1.531510 0
M  V30 7 Cl 5.922677 3.191694 0.424001 0
M  V30 8 C 3.451389 2.320616 1.455362 0
M  V30 9 S 2.840668 3.190234 0.079343 0
M  V30 10 O 3.349788 4.599062 0.131724 0
M  V30 11 O 3.372159 2.564208 -1.192283 0
M  V30 12 N 1.117971 3.141206 -0.043910 0
M  V30 13 C 0.466051 1.886590 -0.206099 0
M  V30 14 C -0.659655 1.727731 0.614088 0
M  V30 15 C -1.413412 0.569596 0.586120 0
M  V30 16 C -1.078850 -0.472809 -0.255582 0
M  V30 17 C -1.811620 -1.732560 -0.356041 0
M  V30 18 C -2.933403 -2.007705 0.397545 0
M  V30 19 N -3.614497 -3.169144 0.309501 0
M  V30 20 C -3.209431 -4.125570 -0.541893 0
M  V30 21 C -3.662867 -5.394490 -0.872457 0
M  V30 22 C -4.850516 -5.977496 -0.234692 0
M  V30 23 N -2.835827 -5.866666 -1.798397 0
M  V30 24 N -1.897807 -4.970784 -2.063247 0
M  V30 25 C -2.090480 -3.874979 -1.306676 0
M  V30 26 N -1.427149 -2.709385 -1.202023 0
M  V30 27 C 0.032352 -0.305309 -1.059360 0
M  V30 28 C 0.801578 0.844380 -1.048490 0
M  V30 29 C 2.760915 1.626091 2.421897 0
M  V30 30 H 0.890319 1.314432 4.225531 0
M  V30 31 H 0.854409 -0.261879 3.435084 0
M  V30 32 H 0.869766 -0.112205 5.289133 0
M  V30 33 H 5.287437 0.514163 4.378481 0
M  V30 34 H 6.575302 1.719251 2.711573 0
M  V30 35 H 0.535057 4.021851 -0.001732 0
M  V30 36 H -0.994431 2.506613 1.311333 0
M  V30 37 H -2.279931 0.454157 1.221211 0
M  V30 38 H -3.312740 -1.291678 1.096274 0
M  V30 39 H -5.054374 -6.953012 -0.707729 0
M  V30 40 H -5.720989 -5.305748 -0.235632 0
M  V30 41 H -4.581348 -6.209273 0.834194 0
M  V30 42 H -1.111780 -5.094155 -2.764736 0
M  V30 43 H 0.354812 -1.092409 -1.751207 0
M  V30 44 H 1.673335 1.029357 -1.649923 0
M  V30 45 H 1.710729 1.643437 2.277756 0
M  V30 END ATOM
M  V30 BEGIN BOND
M  V30 1 1 1 2
M  V30 2 1 2 3
M  V30 3 2 3 4
M  V30 4 1 4 5
M  V30 5 2 5 6
M  V30 6 1 6 7
M  V30 7 1 6 8
M  V30 8 1 8 9
M  V30 9 2 9 10
M  V30 10 2 9 11
M  V30 11 1 9 12
M  V30 12 1 12 13
M  V30 13 2 13 14
M  V30 14 1 14 15
M  V30 15 2 15 16
M  V30 16 1 16 17
M  V30 17 2 17 18
M  V30 18 1 18 19
M  V30 19 2 19 20
M  V30 20 1 20 21
M  V30 21 1 21 22
M  V30 22 2 21 23
M  V30 23 1 23 24
M  V30 24 1 24 25
M  V30 25 2 25 26
M  V30 26 1 16 27
M  V30 27 2 27 28
M  V30 28 2 8 29
M  V30 29 1 29 3
M  V30 30 1 28 13
M  V30 31 1 26 17
M  V30 32 1 25 20
M  V30 33 1 1 30
M  V30 34 1 1 31
M  V30 35 1 1 32
M  V30 36 1 4 33
M  V30 37 1 5 34
M  V30 38 1 12 35
M  V30 39 1 14 36
M  V30 40 1 15 37
M  V30 41 1 18 38
M  V30 42 1 22 39
M  V30 43 1 22 40
M  V30 44 1 22 41
M  V30 45 1 24 42
M  V30 46 1 27 43
M  V30 47 1 28 44
M  V30 48 1 29 45
M  V30 END BOND
M  V30 END CTAB
M  END
>  <Dataset>  (923) 
ChEMBL_Kinases

>  <Ligand_Instance>  (923) 
nan

>  <PDB_ID>  (923) 
nan

>  <Standardized_SMILES>  (923) 
COc1ccc(Cl)c(S(=O)(=O)Nc2ccc(-c3cnc4c(C)n[nH]c4n3)cc2)c1

>  <Name>  (923) 
nan

>  <Pocket>  (923) 
nan

>  <ATP_Site>  (923) 
nan

>  <Peripheral>  (923) 
nan

>  <Num_H_Atoms_ProtBoundConf>  (923) 
nan

>  <Num_Resolved_Atoms>  (923) 
nan

>  <Num_Not_Resolved_Atoms>  (923) 
nan

$$$$
CHEMBL3092864
     RDKit          3D

  0  0  0  0  0  0  0  0  0  0999 V3000
M  V30 BEGIN CTAB
M  V30 COUNTS 56 58 0 0 0
M  V30 BEGIN ATOM
M  V30 1 N 7.308699 -2.462006 1.722243 0
M  V30 2 C 7.909307 -1.188225 1.472163 0
M  V30 3 C 6.944034 -0.202616 0.824465 0
M  V30 4 O 5.858301 0.012885 1.631294 0
M  V30 5 C 4.922462 0.910293 1.138372 0
M  V30 6 C 4.315229 0.482402 -0.172522 0
M  V30 7 O 3.375683 1.369985 -0.678335 0
M  V30 8 C 2.287605 1.572209 0.170304 0
M  V30 9 C 1.288172 2.535717 -0.431011 0
M  V30 10 O 0.170232 2.795907 0.342737 0
M  V30 11 C -0.811225 1.939367 0.780585 0
M  V30 12 C -1.065365 0.593755 0.630415 0
M  V30 13 C -2.169524 0.016682 1.216370 0
M  V30 14 C -3.071295 0.728067 1.972599 0
M  V30 15 N -4.202542 0.099061 2.556664 0
M  V30 16 C -4.562579 -1.251384 2.315211 0
M  V30 17 N -4.489180 -1.783887 1.119744 0
M  V30 18 C -4.901945 -3.125886 1.159707 0
M  V30 19 C -4.952830 -3.937665 0.133788 0
M  V30 20 C -4.583827 -3.573042 -1.236129 0
M  V30 21 C -3.551959 -2.751102 -1.637637 0
M  V30 22 C -3.335110 -2.501074 -2.977772 0
M  V30 23 C -4.120709 -3.046913 -3.973947 0
M  V30 24 C -5.161300 -3.875620 -3.573991 0
M  V30 25 C -5.361420 -4.112121 -2.242619 0
M  V30 26 C -5.254471 -3.391038 2.553195 0
M  V30 27 O -5.668376 -4.480120 2.991239 0
M  V30 28 N -5.038845 -2.195578 3.292529 0
M  V30 29 C -2.837639 2.076706 2.136473 0
M  V30 30 C -1.718845 2.686623 1.548743 0
M  V30 31 H 7.750657 -2.995482 2.482298 0
M  V30 32 H 6.284420 -2.501736 1.689015 0
M  V30 33 H 8.737849 -1.303345 0.719133 0
M  V30 34 H 8.325201 -0.732003 2.398961 0
M  V30 35 H 7.492503 0.782445 0.775603 0
M  V30 36 H 6.725723 -0.544501 -0.199754 0
M  V30 37 H 5.495848 1.877358 1.013032 0
M  V30 38 H 4.154764 1.034051 1.953524 0
M  V30 39 H 5.160428 0.500407 -0.915571 0
M  V30 40 H 3.951029 -0.545682 -0.143422 0
M  V30 41 H 2.733496 2.146825 1.043517 0
M  V30 42 H 1.870266 0.677927 0.615252 0
M  V30 43 H 1.779062 3.537285 -0.616341 0
M  V30 44 H 1.020501 2.196826 -1.479339 0
M  V30 45 H -0.320197 0.121356 0.022255 0
M  V30 46 H -2.257617 -1.035952 1.032800 0
M  V30 47 H -4.833113 0.633264 3.219326 0
M  V30 48 H -5.297377 -4.969928 0.313020 0
M  V30 49 H -2.955406 -2.341861 -0.834740 0
M  V30 50 H -2.489446 -1.836266 -3.165551 0
M  V30 51 H -3.811576 -2.748275 -4.949500 0
M  V30 52 H -5.742349 -4.273394 -4.393748 0
M  V30 53 H -6.215088 -4.782340 -2.075278 0
M  V30 54 H -5.182072 -2.004231 4.304717 0
M  V30 55 H -3.570159 2.599303 2.737471 0
M  V30 56 H -1.704582 3.760704 1.791290 0
M  V30 END ATOM
M  V30 BEGIN BOND
M  V30 1 1 1 2
M  V30 2 1 2 3
M  V30 3 1 3 4
M  V30 4 1 4 5
M  V30 5 1 5 6
M  V30 6 1 6 7
M  V30 7 1 7 8
M  V30 8 1 8 9
M  V30 9 1 9 10
M  V30 10 1 10 11
M  V30 11 2 11 12
M  V30 12 1 12 13
M  V30 13 2 13 14
M  V30 14 1 14 15
M  V30 15 1 15 16
M  V30 16 2 16 17
M  V30 17 1 17 18
M  V30 18 2 18 19
M  V30 19 1 19 20
M  V30 20 2 20 21
M  V30 21 1 21 22
M  V30 22 2 22 23
M  V30 23 1 23 24
M  V30 24 2 24 25
M  V30 25 1 18 26
M  V30 26 2 26 27
M  V30 27 1 26 28
M  V30 28 1 14 29
M  V30 29 2 29 30
M  V30 30 1 30 11
M  V30 31 1 28 16
M  V30 32 1 25 20
M  V30 33 1 1 31
M  V30 34 1 1 32
M  V30 35 1 2 33
M  V30 36 1 2 34
M  V30 37 1 3 35
M  V30 38 1 3 36
M  V30 39 1 5 37
M  V30 40 1 5 38
M  V30 41 1 6 39
M  V30 42 1 6 40
M  V30 43 1 8 41
M  V30 44 1 8 42
M  V30 45 1 9 43
M  V30 46 1 9 44
M  V30 47 1 12 45
M  V30 48 1 13 46
M  V30 49 1 15 47
M  V30 50 1 19 48
M  V30 51 1 21 49
M  V30 52 1 22 50
M  V30 53 1 23 51
M  V30 54 1 24 52
M  V30 55 1 25 53
M  V30 56 1 28 54
M  V30 57 1 29 55
M  V30 58 1 30 56
M  V30 END BOND
M  V30 END CTAB
M  END
>  <Dataset>  (924) 
ChEMBL_Kinases

>  <Ligand_Instance>  (924) 
nan

>  <PDB_ID>  (924) 
nan

>  <Standardized_SMILES>  (924) 
NCCOCCOCCOc1ccc(NC2=N/C(=C\c3ccccc3)C(=O)N2)cc1

>  <Name>  (924) 
nan

>  <Pocket>  (924) 
nan

>  <ATP_Site>  (924) 
nan

>  <Peripheral>  (924) 
nan

>  <Num_H_Atoms_ProtBoundConf>  (924) 
nan

>  <Num_Resolved_Atoms>  (924) 
nan

>  <Num_Not_Resolved_Atoms>  (924) 
nan

$$$$
CHEMBL3093031
     RDKit          3D

  0  0  0  0  0  0  0  0  0  0999 V3000
M  V30 BEGIN CTAB
M  V30 COUNTS 40 42 0 0 0
M  V30 BEGIN ATOM
M  V30 1 C 1.688638 -3.936455 0.291712 0
M  V30 2 N 0.686453 -3.138883 0.972550 0
M  V30 3 C 0.895977 -1.923862 1.513193 0
M  V30 4 N 2.204067 -1.374794 1.410165 0
M  V30 5 C 2.552313 -0.562287 0.272269 0
M  V30 6 C 1.712953 0.656360 0.135359 0
M  V30 7 O 0.784287 0.953119 0.939153 0
M  V30 8 C 2.026906 1.514423 -1.006960 0
M  V30 9 C 3.022070 1.255695 -1.921929 0
M  V30 10 C 3.311715 2.068004 -2.994890 0
M  V30 11 C 2.555315 3.205371 -3.154349 0
M  V30 12 F 2.844576 4.003417 -4.213897 0
M  V30 13 C 1.559176 3.502077 -2.272789 0
M  V30 14 C 1.266444 2.675618 -1.183393 0
M  V30 15 N -0.107899 -1.272873 2.122707 0
M  V30 16 C -1.349736 -1.765357 2.235071 0
M  V30 17 C -2.395173 -1.006234 2.910338 0
M  V30 18 C -3.686261 -1.438718 3.066404 0
M  V30 19 C -4.670958 -0.711162 3.708922 0
M  V30 20 N -4.316644 0.507474 4.210618 0
M  V30 21 C -3.061912 0.972845 4.081243 0
M  V30 22 C -2.100312 0.225433 3.435544 0
M  V30 23 C -1.548503 -3.001965 1.680649 0
M  V30 24 C -0.528661 -3.709554 1.038587 0
M  V30 25 O -0.791854 -4.848082 0.551144 0
M  V30 26 H 1.363257 -4.290032 -0.704774 0
M  V30 27 H 2.649474 -3.393304 0.185942 0
M  V30 28 H 1.872100 -4.849820 0.922527 0
M  V30 29 H 2.594548 -1.756854 2.289122 0
M  V30 30 H 3.629860 -0.326748 0.228423 0
M  V30 31 H 2.369798 -1.167931 -0.664541 0
M  V30 32 H 3.618445 0.350005 -1.788132 0
M  V30 33 H 4.131081 1.763556 -3.665139 0
M  V30 34 H 0.975556 4.413170 -2.426223 0
M  V30 35 H 0.459685 2.968667 -0.517289 0
M  V30 36 H -3.972258 -2.394438 2.675170 0
M  V30 37 H -5.672013 -1.061013 3.822750 0
M  V30 38 H -2.768694 1.923529 4.467931 0
M  V30 39 H -1.077882 0.589992 3.322854 0
M  V30 40 H -2.522451 -3.466832 1.729783 0
M  V30 END ATOM
M  V30 BEGIN BOND
M  V30 1 1 1 2
M  V30 2 1 2 3
M  V30 3 1 3 4
M  V30 4 1 4 5
M  V30 5 1 5 6
M  V30 6 2 6 7
M  V30 7 1 6 8
M  V30 8 2 8 9
M  V30 9 1 9 10
M  V30 10 2 10 11
M  V30 11 1 11 12
M  V30 12 1 11 13
M  V30 13 2 13 14
M  V30 14 2 3 15
M  V30 15 1 15 16
M  V30 16 1 16 17
M  V30 17 2 17 18
M  V30 18 1 18 19
M  V30 19 2 19 20
M  V30 20 1 20 21
M  V30 21 2 21 22
M  V30 22 2 16 23
M  V30 23 1 23 24
M  V30 24 2 24 25
M  V30 25 1 24 2
M  V30 26 1 14 8
M  V30 27 1 22 17
M  V30 28 1 1 26
M  V30 29 1 1 27
M  V30 30 1 1 28
M  V30 31 1 4 29
M  V30 32 1 5 30
M  V30 33 1 5 31
M  V30 34 1 9 32
M  V30 35 1 10 33
M  V30 36 1 13 34
M  V30 37 1 14 35
M  V30 38 1 18 36
M  V30 39 1 19 37
M  V30 40 1 21 38
M  V30 41 1 22 39
M  V30 42 1 23 40
M  V30 END BOND
M  V30 END CTAB
M  END
>  <Dataset>  (925) 
ChEMBL_Kinases

>  <Ligand_Instance>  (925) 
nan

>  <PDB_ID>  (925) 
nan

>  <Standardized_SMILES>  (925) 
Cn1c(NCC(=O)c2ccc(F)cc2)nc(-c2ccncc2)cc1=O

>  <Name>  (925) 
nan

>  <Pocket>  (925) 
nan

>  <ATP_Site>  (925) 
nan

>  <Peripheral>  (925) 
nan

>  <Num_H_Atoms_ProtBoundConf>  (925) 
nan

>  <Num_Resolved_Atoms>  (925) 
nan

>  <Num_Not_Resolved_Atoms>  (925) 
nan

$$$$
CHEMBL3093032
     RDKit          3D

  0  0  0  0  0  0  0  0  0  0999 V3000
M  V30 BEGIN CTAB
M  V30 COUNTS 40 42 0 0 0
M  V30 BEGIN ATOM
M  V30 1 C 2.046001 -4.369917 2.274264 0
M  V30 2 N 0.866965 -3.585430 1.926962 0
M  V30 3 C 1.014640 -2.279449 1.640396 0
M  V30 4 N 2.269496 -1.614918 1.657518 0
M  V30 5 C 2.398731 -0.214232 1.346587 0
M  V30 6 C 1.942480 0.138514 -0.010099 0
M  V30 7 O 1.467965 -0.615786 -0.903011 0
M  V30 8 C 2.048132 1.545263 -0.383710 0
M  V30 9 C 1.647656 1.988358 -1.636096 0
M  V30 10 C 1.737570 3.322500 -2.017065 0
M  V30 11 C 2.236019 4.256408 -1.144356 0
M  V30 12 C 2.650699 3.853744 0.126511 0
M  V30 13 Cl 3.294426 5.023852 1.270361 0
M  V30 14 C 2.543923 2.533472 0.456943 0
M  V30 15 N -0.078403 -1.562585 1.320928 0
M  V30 16 C -1.310680 -2.099613 1.276944 0
M  V30 17 C -2.475590 -1.295687 0.927076 0
M  V30 18 C -3.759074 -1.739649 0.854120 0
M  V30 19 C -4.785710 -0.891891 0.513054 0
M  V30 20 N -4.562228 0.404094 0.239319 0
M  V30 21 C -3.306167 0.923285 0.290805 0
M  V30 22 C -2.281240 0.057603 0.635857 0
M  V30 23 C -1.440251 -3.433440 1.572555 0
M  V30 24 C -0.336192 -4.193369 1.903670 0
M  V30 25 O -0.397152 -5.418632 2.183233 0
M  V30 26 H 2.598950 -3.799974 3.040779 0
M  V30 27 H 1.743522 -5.320521 2.794572 0
M  V30 28 H 2.639016 -4.566257 1.380429 0
M  V30 29 H 3.129258 -2.187167 1.910403 0
M  V30 30 H 1.776403 0.352814 2.097773 0
M  V30 31 H 3.442256 0.107106 1.531203 0
M  V30 32 H 1.243249 1.263160 -2.359147 0
M  V30 33 H 1.435865 3.696572 -2.979193 0
M  V30 34 H 2.342064 5.308822 -1.353049 0
M  V30 35 H 2.860070 2.178121 1.448133 0
M  V30 36 H -3.951627 -2.764420 1.068384 0
M  V30 37 H -5.799449 -1.287932 0.466083 0
M  V30 38 H -3.046332 1.945278 0.086512 0
M  V30 39 H -1.272921 0.441935 0.684804 0
M  V30 40 H -2.368862 -3.948478 1.565372 0
M  V30 END ATOM
M  V30 BEGIN BOND
M  V30 1 1 1 2
M  V30 2 1 2 3
M  V30 3 1 3 4
M  V30 4 1 4 5
M  V30 5 1 5 6
M  V30 6 2 6 7
M  V30 7 1 6 8
M  V30 8 2 8 9
M  V30 9 1 9 10
M  V30 10 2 10 11
M  V30 11 1 11 12
M  V30 12 1 12 13
M  V30 13 2 12 14
M  V30 14 2 3 15
M  V30 15 1 15 16
M  V30 16 1 16 17
M  V30 17 2 17 18
M  V30 18 1 18 19
M  V30 19 2 19 20
M  V30 20 1 20 21
M  V30 21 2 21 22
M  V30 22 2 16 23
M  V30 23 1 23 24
M  V30 24 2 24 25
M  V30 25 1 24 2
M  V30 26 1 14 8
M  V30 27 1 22 17
M  V30 28 1 1 26
M  V30 29 1 1 27
M  V30 30 1 1 28
M  V30 31 1 4 29
M  V30 32 1 5 30
M  V30 33 1 5 31
M  V30 34 1 9 32
M  V30 35 1 10 33
M  V30 36 1 11 34
M  V30 37 1 14 35
M  V30 38 1 18 36
M  V30 39 1 19 37
M  V30 40 1 21 38
M  V30 41 1 22 39
M  V30 42 1 23 40
M  V30 END BOND
M  V30 END CTAB
M  END
>  <Dataset>  (926) 
ChEMBL_Kinases

>  <Ligand_Instance>  (926) 
nan

>  <PDB_ID>  (926) 
nan

>  <Standardized_SMILES>  (926) 
Cn1c(NCC(=O)c2cccc(Cl)c2)nc(-c2ccncc2)cc1=O

>  <Name>  (926) 
nan

>  <Pocket>  (926) 
nan

>  <ATP_Site>  (926) 
nan

>  <Peripheral>  (926) 
nan

>  <Num_H_Atoms_ProtBoundConf>  (926) 
nan

>  <Num_Resolved_Atoms>  (926) 
nan

>  <Num_Not_Resolved_Atoms>  (926) 
nan

$$$$
CHEMBL3093033
     RDKit          3D

  0  0  0  0  0  0  0  0  0  0999 V3000
M  V30 BEGIN CTAB
M  V30 COUNTS 43 45 0 0 0
M  V30 BEGIN ATOM
M  V30 1 C -2.759811 -4.516739 2.519766 0
M  V30 2 C -2.008723 -4.296332 1.243367 0
M  V30 3 C -1.639245 -5.315874 0.396546 0
M  V30 4 C -0.941507 -5.060711 -0.780138 0
M  V30 5 C -0.673333 -3.739167 -0.994593 0
M  V30 6 C -1.012837 -2.682353 -0.192238 0
M  V30 7 C -0.696176 -1.288226 -0.463329 0
M  V30 8 O -1.056092 -0.390519 0.343468 0
M  V30 9 C 0.039776 -0.838303 -1.650547 0
M  V30 10 N 0.276845 0.600713 -1.639556 0
M  V30 11 C 1.112567 1.072443 -0.606428 0
M  V30 12 N 0.839512 1.399810 0.662832 0
M  V30 13 C 1.734163 1.842770 1.547307 0
M  V30 14 C 1.291189 2.143970 2.890112 0
M  V30 15 C 2.154422 2.607186 3.858530 0
M  V30 16 C 1.692941 2.876743 5.142989 0
M  V30 17 N 0.382881 2.690902 5.476053 0
M  V30 18 C -0.472321 2.239967 4.541256 0
M  V30 19 C -0.021455 1.970590 3.264843 0
M  V30 20 C 3.022990 1.959216 1.084973 0
M  V30 21 C 3.402168 1.644413 -0.214101 0
M  V30 22 O 4.590605 1.768935 -0.583557 0
M  V30 23 N 2.403745 1.199514 -1.035039 0
M  V30 24 C 2.877654 0.886114 -2.390404 0
M  V30 25 C -1.714444 -2.977316 0.983099 0
M  V30 26 H -3.425200 -3.650528 2.730827 0
M  V30 27 H -3.310383 -5.475723 2.511879 0
M  V30 28 H -2.016049 -4.555177 3.353856 0
M  V30 29 H -1.917403 -6.311305 0.691156 0
M  V30 30 H -0.651883 -5.860572 -1.445969 0
M  V30 31 H -0.127666 -3.486771 -1.908519 0
M  V30 32 H 0.995086 -1.405195 -1.746933 0
M  V30 33 H -0.554252 -1.079715 -2.548220 0
M  V30 34 H -0.092144 1.336177 -2.299342 0
M  V30 35 H 3.202110 2.771606 3.656940 0
M  V30 36 H 2.393660 3.240794 5.888626 0
M  V30 37 H -1.512965 2.092348 4.801711 0
M  V30 38 H -0.696116 1.598544 2.479388 0
M  V30 39 H 3.787672 2.311583 1.765411 0
M  V30 40 H 3.512673 1.729994 -2.707332 0
M  V30 41 H 3.526670 -0.006154 -2.290912 0
M  V30 42 H 2.035478 0.740954 -3.090415 0
M  V30 43 H -1.999837 -2.167987 1.641428 0
M  V30 END ATOM
M  V30 BEGIN BOND
M  V30 1 1 1 2
M  V30 2 2 2 3
M  V30 3 1 3 4
M  V30 4 2 4 5
M  V30 5 1 5 6
M  V30 6 1 6 7
M  V30 7 2 7 8
M  V30 8 1 7 9
M  V30 9 1 9 10
M  V30 10 1 10 11
M  V30 11 2 11 12
M  V30 12 1 12 13
M  V30 13 1 13 14
M  V30 14 2 14 15
M  V30 15 1 15 16
M  V30 16 2 16 17
M  V30 17 1 17 18
M  V30 18 2 18 19
M  V30 19 2 13 20
M  V30 20 1 20 21
M  V30 21 2 21 22
M  V30 22 1 21 23
M  V30 23 1 23 24
M  V30 24 2 6 25
M  V30 25 1 25 2
M  V30 26 1 23 11
M  V30 27 1 19 14
M  V30 28 1 1 26
M  V30 29 1 1 27
M  V30 30 1 1 28
M  V30 31 1 3 29
M  V30 32 1 4 30
M  V30 33 1 5 31
M  V30 34 1 9 32
M  V30 35 1 9 33
M  V30 36 1 10 34
M  V30 37 1 15 35
M  V30 38 1 16 36
M  V30 39 1 18 37
M  V30 40 1 19 38
M  V30 41 1 20 39
M  V30 42 1 24 40
M  V30 43 1 24 41
M  V30 44 1 24 42
M  V30 45 1 25 43
M  V30 END BOND
M  V30 END CTAB
M  END
>  <Dataset>  (927) 
ChEMBL_Kinases

>  <Ligand_Instance>  (927) 
nan

>  <PDB_ID>  (927) 
nan

>  <Standardized_SMILES>  (927) 
Cc1cccc(C(=O)CNc2nc(-c3ccncc3)cc(=O)n2C)c1

>  <Name>  (927) 
nan

>  <Pocket>  (927) 
nan

>  <ATP_Site>  (927) 
nan

>  <Peripheral>  (927) 
nan

>  <Num_H_Atoms_ProtBoundConf>  (927) 
nan

>  <Num_Resolved_Atoms>  (927) 
nan

>  <Num_Not_Resolved_Atoms>  (927) 
nan

$$$$
CHEMBL3093034
     RDKit          3D

  0  0  0  0  0  0  0  0  0  0999 V3000
M  V30 BEGIN CTAB
M  V30 COUNTS 41 43 0 0 0
M  V30 BEGIN ATOM
M  V30 1 C 2.117802 -4.684421 2.114928 0
M  V30 2 N 0.968134 -3.804411 1.988235 0
M  V30 3 C 1.014897 -2.695047 1.220471 0
M  V30 4 N 2.225732 -2.405391 0.532852 0
M  V30 5 C 2.304513 -1.205690 -0.309003 0
M  V30 6 C 2.063411 0.022172 0.476985 0
M  V30 7 O 1.827885 -0.055989 1.712069 0
M  V30 8 C 2.118999 1.275893 -0.266329 0
M  V30 9 C 2.373755 1.417380 -1.622867 0
M  V30 10 C 2.387745 2.680791 -2.156737 0
M  V30 11 C 2.159131 3.814058 -1.400459 0
M  V30 12 C 1.901502 3.716738 -0.045363 0
M  V30 13 C 1.656285 4.853145 0.794729 0
M  V30 14 N 1.467414 5.758511 1.483844 0
M  V30 15 C 1.892011 2.431391 0.473500 0
M  V30 16 N -0.042966 -1.875883 1.097559 0
M  V30 17 C -1.214941 -2.094464 1.721450 0
M  V30 18 C -2.354515 -1.194393 1.577191 0
M  V30 19 C -3.572069 -1.379505 2.197025 0
M  V30 20 C -4.553024 -0.440987 1.962373 0
M  V30 21 N -4.439267 0.649368 1.180279 0
M  V30 22 C -3.229634 0.811022 0.579496 0
M  V30 23 C -2.196227 -0.089101 0.766913 0
M  V30 24 C -1.237750 -3.233053 2.499204 0
M  V30 25 C -0.169093 -4.094172 2.646043 0
M  V30 26 O -0.219897 -5.130620 3.366229 0
M  V30 27 H 2.282933 -5.278787 1.207678 0
M  V30 28 H 1.988836 -5.335154 3.004643 0
M  V30 29 H 3.048911 -4.097892 2.327983 0
M  V30 30 H 3.056259 -3.009251 0.602934 0
M  V30 31 H 1.473125 -1.254732 -1.059562 0
M  V30 32 H 3.236072 -1.195539 -0.895645 0
M  V30 33 H 2.545120 0.493707 -2.162620 0
M  V30 34 H 2.587848 2.779269 -3.217664 0
M  V30 35 H 2.178095 4.800258 -1.858373 0
M  V30 36 H 1.686084 2.369654 1.550816 0
M  V30 37 H -3.710999 -2.229553 2.827175 0
M  V30 38 H -5.527725 -0.552528 2.433833 0
M  V30 39 H -3.126446 1.699094 -0.061794 0
M  V30 40 H -1.285303 0.162020 0.227171 0
M  V30 41 H -2.129809 -3.493956 3.037889 0
M  V30 END ATOM
M  V30 BEGIN BOND
M  V30 1 1 1 2
M  V30 2 1 2 3
M  V30 3 1 3 4
M  V30 4 1 4 5
M  V30 5 1 5 6
M  V30 6 2 6 7
M  V30 7 1 6 8
M  V30 8 2 8 9
M  V30 9 1 9 10
M  V30 10 2 10 11
M  V30 11 1 11 12
M  V30 12 1 12 13
M  V30 13 3 13 14
M  V30 14 2 12 15
M  V30 15 2 3 16
M  V30 16 1 16 17
M  V30 17 1 17 18
M  V30 18 2 18 19
M  V30 19 1 19 20
M  V30 20 2 20 21
M  V30 21 1 21 22
M  V30 22 2 22 23
M  V30 23 2 17 24
M  V30 24 1 24 25
M  V30 25 2 25 26
M  V30 26 1 25 2
M  V30 27 1 15 8
M  V30 28 1 23 18
M  V30 29 1 1 27
M  V30 30 1 1 28
M  V30 31 1 1 29
M  V30 32 1 4 30
M  V30 33 1 5 31
M  V30 34 1 5 32
M  V30 35 1 9 33
M  V30 36 1 10 34
M  V30 37 1 11 35
M  V30 38 1 15 36
M  V30 39 1 19 37
M  V30 40 1 20 38
M  V30 41 1 22 39
M  V30 42 1 23 40
M  V30 43 1 24 41
M  V30 END BOND
M  V30 END CTAB
M  END
>  <Dataset>  (928) 
ChEMBL_Kinases

>  <Ligand_Instance>  (928) 
nan

>  <PDB_ID>  (928) 
nan

>  <Standardized_SMILES>  (928) 
Cn1c(NCC(=O)c2cccc(C#N)c2)nc(-c2ccncc2)cc1=O

>  <Name>  (928) 
nan

>  <Pocket>  (928) 
nan

>  <ATP_Site>  (928) 
nan

>  <Peripheral>  (928) 
nan

>  <Num_H_Atoms_ProtBoundConf>  (928) 
nan

>  <Num_Resolved_Atoms>  (928) 
nan

>  <Num_Not_Resolved_Atoms>  (928) 
nan

$$$$
CHEMBL3093044
     RDKit          3D

  0  0  0  0  0  0  0  0  0  0999 V3000
M  V30 BEGIN CTAB
M  V30 COUNTS 45 47 0 0 0
M  V30 BEGIN ATOM
M  V30 1 C 1.461780 -4.140622 2.801148 0
M  V30 2 C 1.039752 -2.926661 3.595747 0
M  V30 3 N 0.153323 -2.076066 2.831524 0
M  V30 4 C 0.412905 -1.002601 2.024286 0
M  V30 5 C 1.824240 -0.640745 1.947686 0
M  V30 6 C 2.643393 -1.276877 0.893239 0
M  V30 7 C 2.281429 -1.017119 -0.523815 0
M  V30 8 C 2.374491 0.387838 -0.957831 0
M  V30 9 C 3.644565 0.756639 -1.435367 0
M  V30 10 C 3.973569 2.011990 -1.898804 0
M  V30 11 C 3.013905 3.000829 -1.909260 0
M  V30 12 C 1.758043 2.678262 -1.449493 0
M  V30 13 C 1.458463 1.415660 -0.992577 0
M  V30 14 N -0.618181 -0.395198 1.417620 0
M  V30 15 C -1.907610 -0.740391 1.524179 0
M  V30 16 C -2.958159 -0.006748 0.832093 0
M  V30 17 C -2.758803 1.088748 0.022308 0
M  V30 18 C -3.748366 1.770416 -0.627744 0
M  V30 19 N -5.023847 1.376796 -0.494599 0
M  V30 20 C -5.303932 0.315073 0.279011 0
M  V30 21 C -4.285477 -0.355406 0.924219 0
M  V30 22 C -2.227303 -1.814358 2.324075 0
M  V30 23 C -1.163843 -2.437298 2.946870 0
M  V30 24 O -1.505479 -3.431620 3.681789 0
M  V30 25 H 0.832732 -4.991380 3.131006 0
M  V30 26 H 1.185076 -4.011827 1.712991 0
M  V30 27 H 2.542723 -4.309855 2.925761 0
M  V30 28 H 1.943425 -2.367456 3.908892 0
M  V30 29 H 0.501722 -3.291606 4.519071 0
M  V30 30 H 1.833689 0.484507 1.744858 0
M  V30 31 H 2.368612 -0.688097 2.927460 0
M  V30 32 H 3.701799 -0.880720 1.044156 0
M  V30 33 H 2.779873 -2.375017 1.000567 0
M  V30 34 H 1.232515 -1.406483 -0.719560 0
M  V30 35 H 2.919322 -1.629386 -1.192451 0
M  V30 36 H 4.471719 0.060840 -1.472198 0
M  V30 37 H 4.958559 2.267834 -2.260312 0
M  V30 38 H 3.141270 4.016767 -2.243842 0
M  V30 39 H 0.911467 3.350334 -1.400076 0
M  V30 40 H 0.500012 1.090828 -0.622315 0
M  V30 41 H -1.771628 1.461294 -0.128019 0
M  V30 42 H -3.556773 2.626092 -1.255694 0
M  V30 43 H -6.340572 0.043683 0.350271 0
M  V30 44 H -4.635516 -1.183626 1.510236 0
M  V30 45 H -3.230050 -2.180274 2.483036 0
M  V30 END ATOM
M  V30 BEGIN BOND
M  V30 1 1 1 2
M  V30 2 1 2 3
M  V30 3 1 3 4
M  V30 4 1 4 5
M  V30 5 1 5 6
M  V30 6 1 6 7
M  V30 7 1 7 8
M  V30 8 2 8 9
M  V30 9 1 9 10
M  V30 10 2 10 11
M  V30 11 1 11 12
M  V30 12 2 12 13
M  V30 13 2 4 14
M  V30 14 1 14 15
M  V30 15 1 15 16
M  V30 16 2 16 17
M  V30 17 1 17 18
M  V30 18 2 18 19
M  V30 19 1 19 20
M  V30 20 2 20 21
M  V30 21 2 15 22
M  V30 22 1 22 23
M  V30 23 2 23 24
M  V30 24 1 23 3
M  V30 25 1 13 8
M  V30 26 1 21 16
M  V30 27 1 1 25
M  V30 28 1 1 26
M  V30 29 1 1 27
M  V30 30 1 2 28
M  V30 31 1 2 29
M  V30 32 1 5 30
M  V30 33 1 5 31
M  V30 34 1 6 32
M  V30 35 1 6 33
M  V30 36 1 7 34
M  V30 37 1 7 35
M  V30 38 1 9 36
M  V30 39 1 10 37
M  V30 40 1 11 38
M  V30 41 1 12 39
M  V30 42 1 13 40
M  V30 43 1 17 41
M  V30 44 1 18 42
M  V30 45 1 20 43
M  V30 46 1 21 44
M  V30 47 1 22 45
M  V30 END BOND
M  V30 END CTAB
M  END
>  <Dataset>  (929) 
ChEMBL_Kinases

>  <Ligand_Instance>  (929) 
nan

>  <PDB_ID>  (929) 
nan

>  <Standardized_SMILES>  (929) 
CCn1c(CCCc2ccccc2)nc(-c2ccncc2)cc1=O

>  <Name>  (929) 
nan

>  <Pocket>  (929) 
nan

>  <ATP_Site>  (929) 
nan

>  <Peripheral>  (929) 
nan

>  <Num_H_Atoms_ProtBoundConf>  (929) 
nan

>  <Num_Resolved_Atoms>  (929) 
nan

>  <Num_Not_Resolved_Atoms>  (929) 
nan

$$$$
CHEMBL3093036
     RDKit          3D

  0  0  0  0  0  0  0  0  0  0999 V3000
M  V30 BEGIN CTAB
M  V30 COUNTS 32 33 0 0 0
M  V30 BEGIN ATOM
M  V30 1 C -1.949177 -4.138696 2.243962 0
M  V30 2 C -1.287420 -3.415152 3.387987 0
M  V30 3 C -0.402569 -2.267045 2.910033 0
M  V30 4 C -1.271023 -1.287096 2.150475 0
M  V30 5 C -0.504046 -0.120672 1.636300 0
M  V30 6 N 0.076850 -0.116744 0.423018 0
M  V30 7 C 0.771203 0.934886 -0.046635 0
M  V30 8 C 1.351508 0.810949 -1.378363 0
M  V30 9 C 1.162819 -0.360980 -2.080600 0
M  V30 10 C 1.685048 -0.546602 -3.348434 0
M  V30 11 N 2.399610 0.453307 -3.908927 0
M  V30 12 C 2.615934 1.617113 -3.272184 0
M  V30 13 C 2.090059 1.788263 -2.010264 0
M  V30 14 C 0.909465 2.068237 0.725241 0
M  V30 15 C 0.322636 2.101001 1.985317 0
M  V30 16 O 0.409348 3.104241 2.743298 0
M  V30 17 N -0.360858 0.992031 2.378524 0
M  V30 18 H -1.276472 -4.321536 1.380753 0
M  V30 19 H -2.268461 -5.139875 2.654921 0
M  V30 20 H -2.898733 -3.651204 1.931818 0
M  V30 21 H -2.081254 -2.933387 4.004425 0
M  V30 22 H -0.642130 -4.106320 3.970656 0
M  V30 23 H 0.012455 -1.798956 3.824754 0
M  V30 24 H 0.384581 -2.704418 2.268202 0
M  V30 25 H -1.756288 -1.792665 1.292912 0
M  V30 26 H -2.076593 -0.874738 2.769926 0
M  V30 27 H 0.596639 -1.221992 -1.700875 0
M  V30 28 H 1.580496 -1.431904 -3.958491 0
M  V30 29 H 3.200053 2.419926 -3.743974 0
M  V30 30 H 2.258440 2.707226 -1.502395 0
M  V30 31 H 1.463829 2.917873 0.359638 0
M  V30 32 H -0.818064 0.970631 3.316355 0
M  V30 END ATOM
M  V30 BEGIN BOND
M  V30 1 1 1 2
M  V30 2 1 2 3
M  V30 3 1 3 4
M  V30 4 1 4 5
M  V30 5 2 5 6
M  V30 6 1 6 7
M  V30 7 1 7 8
M  V30 8 2 8 9
M  V30 9 1 9 10
M  V30 10 2 10 11
M  V30 11 1 11 12
M  V30 12 2 12 13
M  V30 13 2 7 14
M  V30 14 1 14 15
M  V30 15 2 15 16
M  V30 16 1 15 17
M  V30 17 1 17 5
M  V30 18 1 13 8
M  V30 19 1 1 18
M  V30 20 1 1 19
M  V30 21 1 1 20
M  V30 22 1 2 21
M  V30 23 1 2 22
M  V30 24 1 3 23
M  V30 25 1 3 24
M  V30 26 1 4 25
M  V30 27 1 4 26
M  V30 28 1 9 27
M  V30 29 1 10 28
M  V30 30 1 12 29
M  V30 31 1 13 30
M  V30 32 1 14 31
M  V30 33 1 17 32
M  V30 END BOND
M  V30 END CTAB
M  END
>  <Dataset>  (930) 
ChEMBL_Kinases

>  <Ligand_Instance>  (930) 
nan

>  <PDB_ID>  (930) 
nan

>  <Standardized_SMILES>  (930) 
CCCCc1nc(-c2ccncc2)cc(=O)[nH]1

>  <Name>  (930) 
nan

>  <Pocket>  (930) 
nan

>  <ATP_Site>  (930) 
nan

>  <Peripheral>  (930) 
nan

>  <Num_H_Atoms_ProtBoundConf>  (930) 
nan

>  <Num_Resolved_Atoms>  (930) 
nan

>  <Num_Not_Resolved_Atoms>  (930) 
nan

$$$$
CHEMBL3093037
     RDKit          3D

  0  0  0  0  0  0  0  0  0  0999 V3000
M  V30 BEGIN CTAB
M  V30 COUNTS 29 30 0 0 0
M  V30 BEGIN ATOM
M  V30 1 C -2.840785 -0.251194 2.319081 0
M  V30 2 C -1.434881 -0.685900 2.753028 0
M  V30 3 C -1.205269 -0.220402 4.151354 0
M  V30 4 C -0.505637 -0.090203 1.755987 0
M  V30 5 N 0.196909 -0.867545 0.913560 0
M  V30 6 C 1.046989 -0.391816 -0.003468 0
M  V30 7 C 1.748285 -1.345174 -0.857116 0
M  V30 8 C 1.495077 -2.689745 -0.670810 0
M  V30 9 C 2.140790 -3.627531 -1.460945 0
M  V30 10 N 3.017142 -3.249712 -2.414227 0
M  V30 11 C 3.280910 -1.940599 -2.614912 0
M  V30 12 C 2.648678 -0.990709 -1.838987 0
M  V30 13 C 1.213079 0.973880 -0.090698 0
M  V30 14 C 0.491878 1.777503 0.774510 0
M  V30 15 O 0.622529 3.042853 0.719709 0
M  V30 16 N -0.362008 1.247058 1.691842 0
M  V30 17 H -3.541150 -0.335873 3.151095 0
M  V30 18 H -3.159699 -0.942913 1.500977 0
M  V30 19 H -2.794999 0.779605 1.874373 0
M  V30 20 H -1.416224 -1.789986 2.652614 0
M  V30 21 H -0.147043 -0.263890 4.436370 0
M  V30 22 H -1.824279 -0.883615 4.802704 0
M  V30 23 H -1.575971 0.814794 4.258888 0
M  V30 24 H 0.809882 -3.084441 0.067378 0
M  V30 25 H 1.977313 -4.681492 -1.354034 0
M  V30 26 H 3.993466 -1.622232 -3.389213 0
M  V30 27 H 2.861167 0.035530 -2.002691 0
M  V30 28 H 1.894312 1.383860 -0.823467 0
M  V30 29 H -0.907567 1.847491 2.345793 0
M  V30 END ATOM
M  V30 BEGIN BOND
M  V30 1 1 1 2
M  V30 2 1 2 3
M  V30 3 1 2 4
M  V30 4 2 4 5
M  V30 5 1 5 6
M  V30 6 1 6 7
M  V30 7 2 7 8
M  V30 8 1 8 9
M  V30 9 2 9 10
M  V30 10 1 10 11
M  V30 11 2 11 12
M  V30 12 2 6 13
M  V30 13 1 13 14
M  V30 14 2 14 15
M  V30 15 1 14 16
M  V30 16 1 16 4
M  V30 17 1 12 7
M  V30 18 1 1 17
M  V30 19 1 1 18
M  V30 20 1 1 19
M  V30 21 1 2 20
M  V30 22 1 3 21
M  V30 23 1 3 22
M  V30 24 1 3 23
M  V30 25 1 8 24
M  V30 26 1 9 25
M  V30 27 1 11 26
M  V30 28 1 12 27
M  V30 29 1 13 28
M  V30 30 1 16 29
M  V30 END BOND
M  V30 END CTAB
M  END
>  <Dataset>  (931) 
ChEMBL_Kinases

>  <Ligand_Instance>  (931) 
nan

>  <PDB_ID>  (931) 
nan

>  <Standardized_SMILES>  (931) 
CC(C)c1nc(-c2ccncc2)cc(=O)[nH]1

>  <Name>  (931) 
nan

>  <Pocket>  (931) 
nan

>  <ATP_Site>  (931) 
nan

>  <Peripheral>  (931) 
nan

>  <Num_H_Atoms_ProtBoundConf>  (931) 
nan

>  <Num_Resolved_Atoms>  (931) 
nan

>  <Num_Not_Resolved_Atoms>  (931) 
nan

$$$$
CHEMBL3093038
     RDKit          3D

  0  0  0  0  0  0  0  0  0  0999 V3000
M  V30 BEGIN CTAB
M  V30 COUNTS 32 33 0 0 0
M  V30 BEGIN ATOM
M  V30 1 C 0.136655 -3.182182 1.739215 0
M  V30 2 C -1.050254 -2.709811 2.561749 0
M  V30 3 C -0.550425 -2.222188 3.881938 0
M  V30 4 C -1.869798 -1.684491 1.816190 0
M  V30 5 C -1.067949 -0.481668 1.472120 0
M  V30 6 N -0.397742 -0.419836 0.308532 0
M  V30 7 C 0.342340 0.632677 -0.062576 0
M  V30 8 C 1.033017 0.603065 -1.348407 0
M  V30 9 C 0.875397 -0.532242 -2.115354 0
M  V30 10 C 1.483625 -0.666152 -3.347861 0
M  V30 11 N 2.246018 0.347877 -3.795391 0
M  V30 12 C 2.404032 1.457410 -3.053088 0
M  V30 13 C 1.813082 1.645836 -1.801443 0
M  V30 14 C 0.381023 1.677296 0.836815 0
M  V30 15 C -0.297723 1.638761 2.037592 0
M  V30 16 O -0.229227 2.618503 2.822439 0
M  V30 17 N -1.007050 0.556877 2.325399 0
M  V30 18 H 0.988106 -2.481694 1.774235 0
M  V30 19 H -0.129310 -3.426077 0.706435 0
M  V30 20 H 0.491007 -4.113581 2.270153 0
M  V30 21 H -1.666993 -3.616622 2.726354 0
M  V30 22 H -1.331744 -1.678903 4.461773 0
M  V30 23 H -0.314872 -3.118088 4.499786 0
M  V30 24 H 0.387170 -1.639210 3.811742 0
M  V30 25 H -2.327966 -2.176325 0.938164 0
M  V30 26 H -2.703362 -1.390917 2.482650 0
M  V30 27 H 0.276111 -1.378237 -1.808963 0
M  V30 28 H 1.370702 -1.551001 -3.963722 0
M  V30 29 H 3.015471 2.301424 -3.383462 0
M  V30 30 H 1.940447 2.529150 -1.213330 0
M  V30 31 H 0.968012 2.546174 0.574114 0
M  V30 32 H -1.509913 0.569876 3.253574 0
M  V30 END ATOM
M  V30 BEGIN BOND
M  V30 1 1 1 2
M  V30 2 1 2 3
M  V30 3 1 2 4
M  V30 4 1 4 5
M  V30 5 2 5 6
M  V30 6 1 6 7
M  V30 7 1 7 8
M  V30 8 2 8 9
M  V30 9 1 9 10
M  V30 10 2 10 11
M  V30 11 1 11 12
M  V30 12 2 12 13
M  V30 13 2 7 14
M  V30 14 1 14 15
M  V30 15 2 15 16
M  V30 16 1 15 17
M  V30 17 1 17 5
M  V30 18 1 13 8
M  V30 19 1 1 18
M  V30 20 1 1 19
M  V30 21 1 1 20
M  V30 22 1 2 21
M  V30 23 1 3 22
M  V30 24 1 3 23
M  V30 25 1 3 24
M  V30 26 1 4 25
M  V30 27 1 4 26
M  V30 28 1 9 27
M  V30 29 1 10 28
M  V30 30 1 12 29
M  V30 31 1 13 30
M  V30 32 1 14 31
M  V30 33 1 17 32
M  V30 END BOND
M  V30 END CTAB
M  END
>  <Dataset>  (932) 
ChEMBL_Kinases

>  <Ligand_Instance>  (932) 
nan

>  <PDB_ID>  (932) 
nan

>  <Standardized_SMILES>  (932) 
CC(C)Cc1nc(-c2ccncc2)cc(=O)[nH]1

>  <Name>  (932) 
nan

>  <Pocket>  (932) 
nan

>  <ATP_Site>  (932) 
nan

>  <Peripheral>  (932) 
nan

>  <Num_H_Atoms_ProtBoundConf>  (932) 
nan

>  <Num_Resolved_Atoms>  (932) 
nan

>  <Num_Not_Resolved_Atoms>  (932) 
nan

$$$$
CHEMBL3093039
     RDKit          3D

  0  0  0  0  0  0  0  0  0  0999 V3000
M  V30 BEGIN CTAB
M  V30 COUNTS 30 32 0 0 0
M  V30 BEGIN ATOM
M  V30 1 O -0.802269 -3.521905 -2.057078 0
M  V30 2 C -0.431521 -2.663189 -1.220061 0
M  V30 3 C 0.933572 -2.373492 -1.115646 0
M  V30 4 C 1.315347 -1.426966 -0.189182 0
M  V30 5 C 2.706848 -1.034755 0.017711 0
M  V30 6 C 3.003420 -0.079304 0.965644 0
M  V30 7 C 4.277928 0.366606 1.244973 0
M  V30 8 N 5.324433 -0.158210 0.550689 0
M  V30 9 C 5.048677 -1.092155 -0.377934 0
M  V30 10 C 3.780449 -1.551766 -0.672366 0
M  V30 11 N 0.376623 -0.829309 0.565129 0
M  V30 12 C -0.922424 -1.078795 0.492926 0
M  V30 13 C -1.879537 -0.385755 1.348782 0
M  V30 14 C -3.223223 -0.590760 1.329125 0
M  V30 15 C -4.095725 0.086829 2.156851 0
M  V30 16 C -3.593446 1.027568 3.060055 0
M  V30 17 C -2.227675 1.263383 3.108484 0
M  V30 18 C -1.409745 0.548656 2.250087 0
M  V30 19 N -1.294697 -2.001696 -0.410413 0
M  V30 20 H 1.672965 -2.865827 -1.732154 0
M  V30 21 H 2.208743 0.379704 1.555556 0
M  V30 22 H 4.499848 1.116715 1.990747 0
M  V30 23 H 5.848316 -1.536597 -0.953452 0
M  V30 24 H 3.599363 -2.296259 -1.418175 0
M  V30 25 H -3.642059 -1.301621 0.652262 0
M  V30 26 H -5.145107 -0.093810 2.120207 0
M  V30 27 H -4.265339 1.570674 3.719571 0
M  V30 28 H -1.809838 1.991996 3.803887 0
M  V30 29 H -0.360833 0.769927 2.328926 0
M  V30 30 H -2.290221 -2.257026 -0.532247 0
M  V30 END ATOM
M  V30 BEGIN BOND
M  V30 1 2 1 2
M  V30 2 1 2 3
M  V30 3 2 3 4
M  V30 4 1 4 5
M  V30 5 2 5 6
M  V30 6 1 6 7
M  V30 7 2 7 8
M  V30 8 1 8 9
M  V30 9 2 9 10
M  V30 10 1 4 11
M  V30 11 2 11 12
M  V30 12 1 12 13
M  V30 13 2 13 14
M  V30 14 1 14 15
M  V30 15 2 15 16
M  V30 16 1 16 17
M  V30 17 2 17 18
M  V30 18 1 12 19
M  V30 19 1 19 2
M  V30 20 1 10 5
M  V30 21 1 18 13
M  V30 22 1 3 20
M  V30 23 1 6 21
M  V30 24 1 7 22
M  V30 25 1 9 23
M  V30 26 1 10 24
M  V30 27 1 14 25
M  V30 28 1 15 26
M  V30 29 1 16 27
M  V30 30 1 17 28
M  V30 31 1 18 29
M  V30 32 1 19 30
M  V30 END BOND
M  V30 END CTAB
M  END
>  <Dataset>  (933) 
ChEMBL_Kinases

>  <Ligand_Instance>  (933) 
nan

>  <PDB_ID>  (933) 
nan

>  <Standardized_SMILES>  (933) 
O=c1cc(-c2ccncc2)nc(-c2ccccc2)[nH]1

>  <Name>  (933) 
nan

>  <Pocket>  (933) 
nan

>  <ATP_Site>  (933) 
nan

>  <Peripheral>  (933) 
nan

>  <Num_H_Atoms_ProtBoundConf>  (933) 
nan

>  <Num_Resolved_Atoms>  (933) 
nan

>  <Num_Not_Resolved_Atoms>  (933) 
nan

$$$$
CHEMBL3093040
     RDKit          3D

  0  0  0  0  0  0  0  0  0  0999 V3000
M  V30 BEGIN CTAB
M  V30 COUNTS 33 35 0 0 0
M  V30 BEGIN ATOM
M  V30 1 O -3.052497 -2.762631 1.965172 0
M  V30 2 C -2.289580 -2.094349 1.245669 0
M  V30 3 C -1.584536 -2.625678 0.170356 0
M  V30 4 C -0.750613 -1.840412 -0.596511 0
M  V30 5 C 0.013575 -2.338716 -1.734146 0
M  V30 6 C 0.812052 -1.449406 -2.419221 0
M  V30 7 C 1.517382 -1.965742 -3.489094 0
M  V30 8 N 1.484459 -3.251842 -3.906857 0
M  V30 9 C 0.704325 -4.126547 -3.239627 0
M  V30 10 C -0.017182 -3.648173 -2.162968 0
M  V30 11 N -0.633071 -0.539016 -0.279255 0
M  V30 12 C -1.290292 0.033581 0.750726 0
M  V30 13 C -1.155554 1.466826 1.093435 0
M  V30 14 C -0.026878 1.571064 2.058958 0
M  V30 15 C 1.292308 1.765017 1.697627 0
M  V30 16 C 2.295560 1.854513 2.623235 0
M  V30 17 C 1.951421 1.743979 3.957765 0
M  V30 18 C 0.644363 1.547661 4.401669 0
M  V30 19 C -0.313090 1.467267 3.414543 0
M  V30 20 N -2.087458 -0.782034 1.460596 0
M  V30 21 H -1.696306 -3.658934 -0.058371 0
M  V30 22 H 0.877454 -0.421455 -2.134390 0
M  V30 23 H 2.169752 -1.342367 -4.085614 0
M  V30 24 H 0.664018 -5.163561 -3.559220 0
M  V30 25 H -0.633821 -4.363332 -1.644029 0
M  V30 26 H -2.076342 1.896707 1.521844 0
M  V30 27 H -0.863916 1.978236 0.141088 0
M  V30 28 H 1.498699 1.843288 0.650395 0
M  V30 29 H 3.332539 2.006372 2.351693 0
M  V30 30 H 2.692960 1.804279 4.763012 0
M  V30 31 H 0.419792 1.466586 5.457351 0
M  V30 32 H -1.338804 1.314261 3.742083 0
M  V30 33 H -2.619741 -0.367513 2.277194 0
M  V30 END ATOM
M  V30 BEGIN BOND
M  V30 1 2 1 2
M  V30 2 1 2 3
M  V30 3 2 3 4
M  V30 4 1 4 5
M  V30 5 2 5 6
M  V30 6 1 6 7
M  V30 7 2 7 8
M  V30 8 1 8 9
M  V30 9 2 9 10
M  V30 10 1 4 11
M  V30 11 2 11 12
M  V30 12 1 12 13
M  V30 13 1 13 14
M  V30 14 2 14 15
M  V30 15 1 15 16
M  V30 16 2 16 17
M  V30 17 1 17 18
M  V30 18 2 18 19
M  V30 19 1 12 20
M  V30 20 1 20 2
M  V30 21 1 10 5
M  V30 22 1 19 14
M  V30 23 1 3 21
M  V30 24 1 6 22
M  V30 25 1 7 23
M  V30 26 1 9 24
M  V30 27 1 10 25
M  V30 28 1 13 26
M  V30 29 1 13 27
M  V30 30 1 15 28
M  V30 31 1 16 29
M  V30 32 1 17 30
M  V30 33 1 18 31
M  V30 34 1 19 32
M  V30 35 1 20 33
M  V30 END BOND
M  V30 END CTAB
M  END
>  <Dataset>  (934) 
ChEMBL_Kinases

>  <Ligand_Instance>  (934) 
nan

>  <PDB_ID>  (934) 
nan

>  <Standardized_SMILES>  (934) 
O=c1cc(-c2ccncc2)nc(Cc2ccccc2)[nH]1

>  <Name>  (934) 
nan

>  <Pocket>  (934) 
nan

>  <ATP_Site>  (934) 
nan

>  <Peripheral>  (934) 
nan

>  <Num_H_Atoms_ProtBoundConf>  (934) 
nan

>  <Num_Resolved_Atoms>  (934) 
nan

>  <Num_Not_Resolved_Atoms>  (934) 
nan

$$$$
CHEMBL3093041
     RDKit          3D

  0  0  0  0  0  0  0  0  0  0999 V3000
M  V30 BEGIN CTAB
M  V30 COUNTS 36 38 0 0 0
M  V30 BEGIN ATOM
M  V30 1 O 0.711511 -1.739133 4.834343 0
M  V30 2 C 0.867191 -1.412935 3.622764 0
M  V30 3 C 0.591840 -2.324227 2.618601 0
M  V30 4 C 0.757221 -1.979685 1.312876 0
M  V30 5 C 0.502435 -2.845828 0.167767 0
M  V30 6 C 0.725344 -2.328197 -1.091081 0
M  V30 7 C 0.513223 -3.071135 -2.249954 0
M  V30 8 N 0.069833 -4.352521 -2.116098 0
M  V30 9 C -0.140446 -4.835650 -0.879924 0
M  V30 10 C 0.053659 -4.143460 0.296838 0
M  V30 11 N 1.193258 -0.731289 1.070410 0
M  V30 12 C 1.465545 0.169076 2.056044 0
M  V30 13 C 1.942431 1.523449 1.688788 0
M  V30 14 C 0.758441 2.462857 1.510300 0
M  V30 15 C -0.135130 1.963964 0.437425 0
M  V30 16 C 0.011086 2.320316 -0.901989 0
M  V30 17 C -0.809630 1.865235 -1.904699 0
M  V30 18 C -1.826949 1.014608 -1.567481 0
M  V30 19 C -2.051200 0.603380 -0.259400 0
M  V30 20 C -1.184744 1.103099 0.692904 0
M  V30 21 N 1.307146 -0.155077 3.361600 0
M  V30 22 H 0.242574 -3.320923 2.843572 0
M  V30 23 H 1.080284 -1.310224 -1.271871 0
M  V30 24 H 0.693349 -2.649580 -3.236367 0
M  V30 25 H -0.496754 -5.864744 -0.766046 0
M  V30 26 H -0.125216 -4.562872 1.268934 0
M  V30 27 H 2.471435 1.440173 0.703207 0
M  V30 28 H 2.658214 1.961843 2.398983 0
M  V30 29 H 0.165523 2.489486 2.444856 0
M  V30 30 H 1.163856 3.470648 1.295639 0
M  V30 31 H 0.828971 2.998236 -1.140278 0
M  V30 32 H -0.641888 2.179338 -2.919048 0
M  V30 33 H -2.479789 0.650993 -2.356150 0
M  V30 34 H -2.854254 -0.067617 0.004223 0
M  V30 35 H -1.339053 0.794439 1.734639 0
M  V30 36 H 1.524350 0.557086 4.090659 0
M  V30 END ATOM
M  V30 BEGIN BOND
M  V30 1 2 1 2
M  V30 2 1 2 3
M  V30 3 2 3 4
M  V30 4 1 4 5
M  V30 5 2 5 6
M  V30 6 1 6 7
M  V30 7 2 7 8
M  V30 8 1 8 9
M  V30 9 2 9 10
M  V30 10 1 4 11
M  V30 11 2 11 12
M  V30 12 1 12 13
M  V30 13 1 13 14
M  V30 14 1 14 15
M  V30 15 2 15 16
M  V30 16 1 16 17
M  V30 17 2 17 18
M  V30 18 1 18 19
M  V30 19 2 19 20
M  V30 20 1 12 21
M  V30 21 1 21 2
M  V30 22 1 10 5
M  V30 23 1 20 15
M  V30 24 1 3 22
M  V30 25 1 6 23
M  V30 26 1 7 24
M  V30 27 1 9 25
M  V30 28 1 10 26
M  V30 29 1 13 27
M  V30 30 1 13 28
M  V30 31 1 14 29
M  V30 32 1 14 30
M  V30 33 1 16 31
M  V30 34 1 17 32
M  V30 35 1 18 33
M  V30 36 1 19 34
M  V30 37 1 20 35
M  V30 38 1 21 36
M  V30 END BOND
M  V30 END CTAB
M  END
>  <Dataset>  (935) 
ChEMBL_Kinases

>  <Ligand_Instance>  (935) 
nan

>  <PDB_ID>  (935) 
nan

>  <Standardized_SMILES>  (935) 
O=c1cc(-c2ccncc2)nc(CCc2ccccc2)[nH]1

>  <Name>  (935) 
nan

>  <Pocket>  (935) 
nan

>  <ATP_Site>  (935) 
nan

>  <Peripheral>  (935) 
nan

>  <Num_H_Atoms_ProtBoundConf>  (935) 
nan

>  <Num_Resolved_Atoms>  (935) 
nan

>  <Num_Not_Resolved_Atoms>  (935) 
nan

$$$$
CHEMBL3093042
     RDKit          3D

  0  0  0  0  0  0  0  0  0  0999 V3000
M  V30 BEGIN CTAB
M  V30 COUNTS 39 41 0 0 0
M  V30 BEGIN ATOM
M  V30 1 O 1.344030 -1.533017 4.717076 0
M  V30 2 C 1.407063 -1.120457 3.535085 0
M  V30 3 C 1.612301 -2.043323 2.532685 0
M  V30 4 C 1.675741 -1.561049 1.258973 0
M  V30 5 C 1.887731 -2.416292 0.100430 0
M  V30 6 C 2.040350 -3.780488 0.206441 0
M  V30 7 C 2.241790 -4.607429 -0.876591 0
M  V30 8 N 2.298309 -4.088365 -2.123874 0
M  V30 9 C 2.155670 -2.757168 -2.293555 0
M  V30 10 C 1.952810 -1.937227 -1.186766 0
M  V30 11 N 1.542492 -0.256982 1.024435 0
M  V30 12 C 1.341568 0.699042 1.939596 0
M  V30 13 C 1.174666 2.128576 1.846309 0
M  V30 14 C -0.132981 2.755869 1.722996 0
M  V30 15 C -1.036513 2.508666 0.589043 0
M  V30 16 C -1.544762 1.182024 0.320828 0
M  V30 17 C -1.173394 0.148573 -0.512174 0
M  V30 18 C -1.822740 -1.060897 -0.599815 0
M  V30 19 C -2.931828 -1.317073 0.176851 0
M  V30 20 C -3.360237 -0.326735 1.034476 0
M  V30 21 C -2.679570 0.866730 1.088284 0
M  V30 22 N 1.287054 0.167971 3.180789 0
M  V30 23 H 1.714565 -3.078770 2.756008 0
M  V30 24 H 2.009543 -4.273050 1.149625 0
M  V30 25 H 2.360577 -5.693747 -0.763294 0
M  V30 26 H 2.206444 -2.377416 -3.305321 0
M  V30 27 H 1.843470 -0.872126 -1.372971 0
M  V30 28 H 1.702826 2.578399 2.753271 0
M  V30 29 H 1.846788 2.490928 1.012744 0
M  V30 30 H 0.070564 3.887989 1.686967 0
M  V30 31 H -0.703702 2.716433 2.723673 0
M  V30 32 H -0.591196 2.911765 -0.386779 0
M  V30 33 H -1.911413 3.231205 0.729389 0
M  V30 34 H -0.282661 0.444741 -1.089635 0
M  V30 35 H -1.382368 -1.748554 -1.312287 0
M  V30 36 H -3.348007 -2.284919 0.022048 0
M  V30 37 H -4.221425 -0.567527 1.616107 0
M  V30 38 H -3.139018 1.553573 1.815946 0
M  V30 39 H 1.132426 0.789323 4.029100 0
M  V30 END ATOM
M  V30 BEGIN BOND
M  V30 1 2 1 2
M  V30 2 1 2 3
M  V30 3 2 3 4
M  V30 4 1 4 5
M  V30 5 2 5 6
M  V30 6 1 6 7
M  V30 7 2 7 8
M  V30 8 1 8 9
M  V30 9 2 9 10
M  V30 10 1 4 11
M  V30 11 2 11 12
M  V30 12 1 12 13
M  V30 13 1 13 14
M  V30 14 1 14 15
M  V30 15 1 15 16
M  V30 16 2 16 17
M  V30 17 1 17 18
M  V30 18 2 18 19
M  V30 19 1 19 20
M  V30 20 2 20 21
M  V30 21 1 12 22
M  V30 22 1 22 2
M  V30 23 1 10 5
M  V30 24 1 21 16
M  V30 25 1 3 23
M  V30 26 1 6 24
M  V30 27 1 7 25
M  V30 28 1 9 26
M  V30 29 1 10 27
M  V30 30 1 13 28
M  V30 31 1 13 29
M  V30 32 1 14 30
M  V30 33 1 14 31
M  V30 34 1 15 32
M  V30 35 1 15 33
M  V30 36 1 17 34
M  V30 37 1 18 35
M  V30 38 1 19 36
M  V30 39 1 20 37
M  V30 40 1 21 38
M  V30 41 1 22 39
M  V30 END BOND
M  V30 END CTAB
M  END
>  <Dataset>  (936) 
ChEMBL_Kinases

>  <Ligand_Instance>  (936) 
nan

>  <PDB_ID>  (936) 
nan

>  <Standardized_SMILES>  (936) 
O=c1cc(-c2ccncc2)nc(CCCc2ccccc2)[nH]1

>  <Name>  (936) 
nan

>  <Pocket>  (936) 
nan

>  <ATP_Site>  (936) 
nan

>  <Peripheral>  (936) 
nan

>  <Num_H_Atoms_ProtBoundConf>  (936) 
nan

>  <Num_Resolved_Atoms>  (936) 
nan

>  <Num_Not_Resolved_Atoms>  (936) 
nan

$$$$
CHEMBL3093043
     RDKit          3D

  0  0  0  0  0  0  0  0  0  0999 V3000
M  V30 BEGIN CTAB
M  V30 COUNTS 42 44 0 0 0
M  V30 BEGIN ATOM
M  V30 1 C 0.017261 -3.821930 3.759512 0
M  V30 2 N -0.378947 -2.501382 3.288730 0
M  V30 3 C 0.247948 -1.841810 2.273889 0
M  V30 4 C 1.376654 -2.612592 1.706021 0
M  V30 5 C 2.089069 -1.925358 0.586592 0
M  V30 6 C 1.194118 -1.634023 -0.595080 0
M  V30 7 C 2.006969 -0.950425 -1.663635 0
M  V30 8 C 2.178828 0.405980 -1.788331 0
M  V30 9 C 2.948862 0.920025 -2.812245 0
M  V30 10 C 3.570589 0.119591 -3.740573 0
M  V30 11 C 3.381228 -1.238041 -3.591714 0
M  V30 12 C 2.621511 -1.797072 -2.585863 0
M  V30 13 N -0.175258 -0.624589 1.894335 0
M  V30 14 C -1.214181 -0.006324 2.480246 0
M  V30 15 C -1.591182 1.312067 1.992444 0
M  V30 16 C -2.632199 2.046459 2.505910 0
M  V30 17 C -2.907669 3.289642 1.970413 0
M  V30 18 N -2.220089 3.853221 0.960043 0
M  V30 19 C -1.185885 3.160784 0.426160 0
M  V30 20 C -0.911614 1.921261 0.960447 0
M  V30 21 C -1.893826 -0.613766 3.511553 0
M  V30 22 C -1.433477 -1.860915 3.875168 0
M  V30 23 O -2.041895 -2.444767 4.824054 0
M  V30 24 H 1.101906 -3.872221 4.031168 0
M  V30 25 H -0.524520 -4.025395 4.691938 0
M  V30 26 H -0.246540 -4.626807 3.041371 0
M  V30 27 H 0.897536 -3.539003 1.272218 0
M  V30 28 H 2.052701 -2.866598 2.536390 0
M  V30 29 H 2.549707 -0.949385 0.913215 0
M  V30 30 H 2.881636 -2.606740 0.199936 0
M  V30 31 H 0.341842 -0.989761 -0.380334 0
M  V30 32 H 0.797239 -2.605017 -0.997679 0
M  V30 33 H 1.688144 1.029895 -1.055971 0
M  V30 34 H 3.054147 1.983667 -2.869195 0
M  V30 35 H 4.165770 0.563708 -4.528079 0
M  V30 36 H 3.877513 -1.872362 -4.332344 0
M  V30 37 H 2.535751 -2.882978 -2.557824 0
M  V30 38 H -3.225144 1.667770 3.308525 0
M  V30 39 H -3.732438 3.892365 2.363854 0
M  V30 40 H -0.589791 3.553283 -0.388260 0
M  V30 41 H -0.075371 1.357288 0.531427 0
M  V30 42 H -2.732014 -0.160289 4.013282 0
M  V30 END ATOM
M  V30 BEGIN BOND
M  V30 1 1 1 2
M  V30 2 1 2 3
M  V30 3 1 3 4
M  V30 4 1 4 5
M  V30 5 1 5 6
M  V30 6 1 6 7
M  V30 7 2 7 8
M  V30 8 1 8 9
M  V30 9 2 9 10
M  V30 10 1 10 11
M  V30 11 2 11 12
M  V30 12 2 3 13
M  V30 13 1 13 14
M  V30 14 1 14 15
M  V30 15 2 15 16
M  V30 16 1 16 17
M  V30 17 2 17 18
M  V30 18 1 18 19
M  V30 19 2 19 20
M  V30 20 2 14 21
M  V30 21 1 21 22
M  V30 22 2 22 23
M  V30 23 1 22 2
M  V30 24 1 12 7
M  V30 25 1 20 15
M  V30 26 1 1 24
M  V30 27 1 1 25
M  V30 28 1 1 26
M  V30 29 1 4 27
M  V30 30 1 4 28
M  V30 31 1 5 29
M  V30 32 1 5 30
M  V30 33 1 6 31
M  V30 34 1 6 32
M  V30 35 1 8 33
M  V30 36 1 9 34
M  V30 37 1 10 35
M  V30 38 1 11 36
M  V30 39 1 12 37
M  V30 40 1 16 38
M  V30 41 1 17 39
M  V30 42 1 19 40
M  V30 43 1 20 41
M  V30 44 1 21 42
M  V30 END BOND
M  V30 END CTAB
M  END
>  <Dataset>  (937) 
ChEMBL_Kinases

>  <Ligand_Instance>  (937) 
nan

>  <PDB_ID>  (937) 
nan

>  <Standardized_SMILES>  (937) 
Cn1c(CCCc2ccccc2)nc(-c2ccncc2)cc1=O

>  <Name>  (937) 
nan

>  <Pocket>  (937) 
nan

>  <ATP_Site>  (937) 
nan

>  <Peripheral>  (937) 
nan

>  <Num_H_Atoms_ProtBoundConf>  (937) 
nan

>  <Num_Resolved_Atoms>  (937) 
nan

>  <Num_Not_Resolved_Atoms>  (937) 
nan

$$$$
CHEMBL3093035
     RDKit          3D

  0  0  0  0  0  0  0  0  0  0999 V3000
M  V30 BEGIN CTAB
M  V30 COUNTS 23 24 0 0 0
M  V30 BEGIN ATOM
M  V30 1 C 0.709090 0.642235 4.249609 0
M  V30 2 C 0.296067 0.890112 2.853702 0
M  V30 3 N 0.583488 0.020927 1.841399 0
M  V30 4 C 0.188053 0.285723 0.583084 0
M  V30 5 C 0.534089 -0.692640 -0.441659 0
M  V30 6 C 1.237447 -1.815281 -0.058841 0
M  V30 7 C 1.587277 -2.773918 -1.007929 0
M  V30 8 N 1.243525 -2.617327 -2.311192 0
M  V30 9 C 0.556295 -1.528083 -2.707035 0
M  V30 10 C 0.208839 -0.580212 -1.776515 0
M  V30 11 C -0.511959 1.444336 0.319899 0
M  V30 12 C -0.803520 2.330859 1.360500 0
M  V30 13 O -1.439165 3.398981 1.167201 0
M  V30 14 N -0.386634 2.028252 2.620316 0
M  V30 15 H -0.196778 0.325624 4.842297 0
M  V30 16 H 1.054404 1.626974 4.675958 0
M  V30 17 H 1.494801 -0.107665 4.372380 0
M  V30 18 H 1.549959 -2.016462 0.958511 0
M  V30 19 H 2.133469 -3.675278 -0.794838 0
M  V30 20 H 0.257809 -1.361795 -3.752294 0
M  V30 21 H -0.338277 0.284599 -2.098469 0
M  V30 22 H -0.831021 1.662489 -0.682600 0
M  V30 23 H -0.612610 2.704391 3.395629 0
M  V30 END ATOM
M  V30 BEGIN BOND
M  V30 1 1 1 2
M  V30 2 2 2 3
M  V30 3 1 3 4
M  V30 4 1 4 5
M  V30 5 2 5 6
M  V30 6 1 6 7
M  V30 7 2 7 8
M  V30 8 1 8 9
M  V30 9 2 9 10
M  V30 10 2 4 11
M  V30 11 1 11 12
M  V30 12 2 12 13
M  V30 13 1 12 14
M  V30 14 1 14 2
M  V30 15 1 10 5
M  V30 16 1 1 15
M  V30 17 1 1 16
M  V30 18 1 1 17
M  V30 19 1 6 18
M  V30 20 1 7 19
M  V30 21 1 9 20
M  V30 22 1 10 21
M  V30 23 1 11 22
M  V30 24 1 14 23
M  V30 END BOND
M  V30 END CTAB
M  END
>  <Dataset>  (938) 
ChEMBL_Kinases

>  <Ligand_Instance>  (938) 
nan

>  <PDB_ID>  (938) 
nan

>  <Standardized_SMILES>  (938) 
Cc1nc(-c2ccncc2)cc(=O)[nH]1

>  <Name>  (938) 
nan

>  <Pocket>  (938) 
nan

>  <ATP_Site>  (938) 
nan

>  <Peripheral>  (938) 
nan

>  <Num_H_Atoms_ProtBoundConf>  (938) 
nan

>  <Num_Resolved_Atoms>  (938) 
nan

>  <Num_Not_Resolved_Atoms>  (938) 
nan

$$$$
CHEMBL3110138
     RDKit          3D

  0  0  0  0  0  0  0  0  0  0999 V3000
M  V30 BEGIN CTAB
M  V30 COUNTS 36 40 0 0 0
M  V30 BEGIN ATOM
M  V30 1 C 0.926525 -3.000512 1.957647 0
M  V30 2 C 1.969703 -1.955650 2.114681 0
M  V30 3 C 2.656064 -2.005529 3.324674 0
M  V30 4 C 3.642237 -1.064164 3.542766 0
M  V30 5 C 3.939818 -0.105747 2.596440 0
M  V30 6 C 3.259332 -0.056613 1.397280 0
M  V30 7 C 2.273610 -0.986900 1.163310 0
M  V30 8 N 1.449640 -1.112636 -0.010663 0
M  V30 9 N 1.725802 -1.852717 -1.071371 0
M  V30 10 C 0.753618 -1.750771 -1.991195 0
M  V30 11 C -0.176548 -0.887853 -1.448405 0
M  V30 12 C -1.384869 -0.375795 -1.875261 0
M  V30 13 C -2.115526 0.493613 -1.092740 0
M  V30 14 C -1.652905 0.880038 0.153530 0
M  V30 15 C -2.160068 1.715170 1.127365 0
M  V30 16 C -1.236541 1.710685 2.172844 0
M  V30 17 C -0.227403 0.866849 1.755620 0
M  V30 18 N -0.473083 0.360311 0.533602 0
M  V30 19 C 0.271747 -0.487486 -0.192568 0
M  V30 20 C -3.325514 0.830385 -1.847359 0
M  V30 21 O -4.259828 1.598150 -1.486185 0
M  V30 22 N -3.286957 0.129335 -3.106638 0
M  V30 23 C -2.066185 -0.633659 -3.132071 0
M  V30 24 O -1.797180 -1.339740 -4.137741 0
M  V30 25 H 0.004705 -2.632172 2.436154 0
M  V30 26 H 0.742139 -3.245825 0.893797 0
M  V30 27 H 1.229677 -3.940443 2.458982 0
M  V30 28 H 2.443327 -2.747417 4.086281 0
M  V30 29 H 4.228029 -1.035469 4.468511 0
M  V30 30 H 4.712123 0.665311 2.716431 0
M  V30 31 H 3.391589 0.635706 0.576918 0
M  V30 32 H 0.656775 -2.210580 -2.956507 0
M  V30 33 H -3.116371 2.239956 1.011773 0
M  V30 34 H -1.365140 2.276099 3.077230 0
M  V30 35 H 0.617083 0.709519 2.426757 0
M  V30 36 H -4.035758 0.189680 -3.848904 0
M  V30 END ATOM
M  V30 BEGIN BOND
M  V30 1 1 1 2
M  V30 2 2 2 3
M  V30 3 1 3 4
M  V30 4 2 4 5
M  V30 5 1 5 6
M  V30 6 2 6 7
M  V30 7 1 7 8
M  V30 8 1 8 9
M  V30 9 2 9 10
M  V30 10 1 10 11
M  V30 11 1 11 12
M  V30 12 2 12 13
M  V30 13 1 13 14
M  V30 14 2 14 15
M  V30 15 1 15 16
M  V30 16 2 16 17
M  V30 17 1 17 18
M  V30 18 1 18 19
M  V30 19 1 13 20
M  V30 20 2 20 21
M  V30 21 1 20 22
M  V30 22 1 22 23
M  V30 23 2 23 24
M  V30 24 1 7 2
M  V30 25 1 19 8
M  V30 26 2 19 11
M  V30 27 1 23 12
M  V30 28 1 18 14
M  V30 29 1 1 25
M  V30 30 1 1 26
M  V30 31 1 1 27
M  V30 32 1 3 28
M  V30 33 1 4 29
M  V30 34 1 5 30
M  V30 35 1 6 31
M  V30 36 1 10 32
M  V30 37 1 15 33
M  V30 38 1 16 34
M  V30 39 1 17 35
M  V30 40 1 22 36
M  V30 END BOND
M  V30 END CTAB
M  END
>  <Dataset>  (939) 
ChEMBL_Kinases

>  <Ligand_Instance>  (939) 
nan

>  <PDB_ID>  (939) 
nan

>  <Standardized_SMILES>  (939) 
Cc1ccccc1-n1ncc2c3c(c4cccn4c21)C(=O)NC3=O

>  <Name>  (939) 
nan

>  <Pocket>  (939) 
nan

>  <ATP_Site>  (939) 
nan

>  <Peripheral>  (939) 
nan

>  <Num_H_Atoms_ProtBoundConf>  (939) 
nan

>  <Num_Resolved_Atoms>  (939) 
nan

>  <Num_Not_Resolved_Atoms>  (939) 
nan

$$$$
CHEMBL3110135
     RDKit          3D

  0  0  0  0  0  0  0  0  0  0999 V3000
M  V30 BEGIN CTAB
M  V30 COUNTS 33 37 0 0 0
M  V30 BEGIN ATOM
M  V30 1 O 0.575187 -5.475195 -0.423229 0
M  V30 2 C -0.361904 -4.684567 -0.143773 0
M  V30 3 N -1.701670 -5.203690 -0.018479 0
M  V30 4 C -2.510850 -4.060326 0.299423 0
M  V30 5 O -3.769333 -4.157008 0.482109 0
M  V30 6 C -1.703038 -2.847904 0.373413 0
M  V30 7 C -0.409581 -3.247839 0.102628 0
M  V30 8 C 0.638923 -2.346054 0.086970 0
M  V30 9 C 1.999443 -2.444623 -0.144291 0
M  V30 10 N 2.438214 -1.182562 -0.003740 0
M  V30 11 N 1.446852 -0.350786 0.291133 0
M  V30 12 C 1.695698 1.038164 0.482778 0
M  V30 13 C 1.794426 1.875476 -0.630770 0
M  V30 14 C 2.035188 3.207706 -0.396855 0
M  V30 15 C 2.182329 3.753730 0.860642 0
M  V30 16 C 2.086643 2.933600 1.975755 0
M  V30 17 C 1.845846 1.602973 1.734287 0
M  V30 18 Cl 1.709495 0.487938 3.099999 0
M  V30 19 C 0.286663 -1.029442 0.361521 0
M  V30 20 N -0.966864 -0.628816 0.626121 0
M  V30 21 C -1.479713 0.587472 0.909358 0
M  V30 22 C -2.856799 0.423123 1.099531 0
M  V30 23 C -3.195522 -0.912222 0.930994 0
M  V30 24 C -1.991967 -1.524266 0.639138 0
M  V30 25 H -2.050370 -6.188405 -0.127125 0
M  V30 26 H 2.541943 -3.350014 -0.380511 0
M  V30 27 H 1.675870 1.424885 -1.599652 0
M  V30 28 H 2.102374 3.815230 -1.311465 0
M  V30 29 H 2.371654 4.819592 0.968544 0
M  V30 30 H 2.196462 3.330068 2.960340 0
M  V30 31 H -0.955167 1.533773 0.983858 0
M  V30 32 H -3.568997 1.215023 1.343692 0
M  V30 33 H -4.160457 -1.397104 1.002763 0
M  V30 END ATOM
M  V30 BEGIN BOND
M  V30 1 2 1 2
M  V30 2 1 2 3
M  V30 3 1 3 4
M  V30 4 2 4 5
M  V30 5 1 4 6
M  V30 6 2 6 7
M  V30 7 1 7 8
M  V30 8 1 8 9
M  V30 9 2 9 10
M  V30 10 1 10 11
M  V30 11 1 11 12
M  V30 12 2 12 13
M  V30 13 1 13 14
M  V30 14 2 14 15
M  V30 15 1 15 16
M  V30 16 2 16 17
M  V30 17 1 17 18
M  V30 18 1 11 19
M  V30 19 1 19 20
M  V30 20 1 20 21
M  V30 21 2 21 22
M  V30 22 1 22 23
M  V30 23 2 23 24
M  V30 24 1 7 2
M  V30 25 2 19 8
M  V30 26 1 24 20
M  V30 27 1 24 6
M  V30 28 1 17 12
M  V30 29 1 3 25
M  V30 30 1 9 26
M  V30 31 1 13 27
M  V30 32 1 14 28
M  V30 33 1 15 29
M  V30 34 1 16 30
M  V30 35 1 21 31
M  V30 36 1 22 32
M  V30 37 1 23 33
M  V30 END BOND
M  V30 END CTAB
M  END
>  <Dataset>  (940) 
ChEMBL_Kinases

>  <Ligand_Instance>  (940) 
nan

>  <PDB_ID>  (940) 
nan

>  <Standardized_SMILES>  (940) 
O=C1NC(=O)c2c1c1cnn(-c3ccccc3Cl)c1n1cccc21

>  <Name>  (940) 
nan

>  <Pocket>  (940) 
nan

>  <ATP_Site>  (940) 
nan

>  <Peripheral>  (940) 
nan

>  <Num_H_Atoms_ProtBoundConf>  (940) 
nan

>  <Num_Resolved_Atoms>  (940) 
nan

>  <Num_Not_Resolved_Atoms>  (940) 
nan

$$$$
CHEMBL3110134
     RDKit          3D

  0  0  0  0  0  0  0  0  0  0999 V3000
M  V30 BEGIN CTAB
M  V30 COUNTS 33 37 0 0 0
M  V30 BEGIN ATOM
M  V30 1 O 1.774030 -4.966298 -0.964647 0
M  V30 2 C 0.954114 -4.725032 -0.046293 0
M  V30 3 N 0.222678 -5.480072 0.895057 0
M  V30 4 C -0.576674 -4.635745 1.713737 0
M  V30 5 O -1.331189 -5.077984 2.642436 0
M  V30 6 C -0.317287 -3.259150 1.240375 0
M  V30 7 C 0.589468 -3.332818 0.200443 0
M  V30 8 C 0.926579 -2.091674 -0.345819 0
M  V30 9 C 1.786053 -1.780187 -1.379512 0
M  V30 10 N 1.752995 -0.425490 -1.511739 0
M  V30 11 N 0.928355 0.105191 -0.624332 0
M  V30 12 C 0.615182 1.486187 -0.435746 0
M  V30 13 C 1.308844 2.279865 0.477487 0
M  V30 14 C 0.965505 3.626422 0.626381 0
M  V30 15 C -0.069777 4.062652 -0.176679 0
M  V30 16 C -0.792987 3.329481 -1.096232 0
M  V30 17 C -0.413469 1.992156 -1.208600 0
M  V30 18 C 0.394187 -0.906947 0.121120 0
M  V30 19 N -0.485517 -0.967865 1.146690 0
M  V30 20 C -1.124689 0.045492 1.758738 0
M  V30 21 C -1.941601 -0.436804 2.764675 0
M  V30 22 C -1.768634 -1.824824 2.739214 0
M  V30 23 C -0.869385 -2.092410 1.732380 0
M  V30 24 H 0.324335 -6.531546 0.909760 0
M  V30 25 H 2.364803 -2.500993 -1.958486 0
M  V30 26 H 2.109486 1.856966 1.068970 0
M  V30 27 H 1.458931 4.280580 1.306959 0
M  V30 28 H -0.332212 5.124366 -0.051644 0
M  V30 29 H -1.579784 3.823144 -1.650526 0
M  V30 30 H -0.964750 1.395326 -1.922661 0
M  V30 31 H -1.100518 1.115872 1.596068 0
M  V30 32 H -2.603063 0.058813 3.467683 0
M  V30 33 H -2.263031 -2.528745 3.399851 0
M  V30 END ATOM
M  V30 BEGIN BOND
M  V30 1 2 1 2
M  V30 2 1 2 3
M  V30 3 1 3 4
M  V30 4 2 4 5
M  V30 5 1 4 6
M  V30 6 2 6 7
M  V30 7 1 7 8
M  V30 8 1 8 9
M  V30 9 2 9 10
M  V30 10 1 10 11
M  V30 11 1 11 12
M  V30 12 2 12 13
M  V30 13 1 13 14
M  V30 14 2 14 15
M  V30 15 1 15 16
M  V30 16 2 16 17
M  V30 17 1 11 18
M  V30 18 1 18 19
M  V30 19 1 19 20
M  V30 20 2 20 21
M  V30 21 1 21 22
M  V30 22 2 22 23
M  V30 23 1 7 2
M  V30 24 2 18 8
M  V30 25 1 23 19
M  V30 26 1 23 6
M  V30 27 1 17 12
M  V30 28 1 3 24
M  V30 29 1 9 25
M  V30 30 1 13 26
M  V30 31 1 14 27
M  V30 32 1 15 28
M  V30 33 1 16 29
M  V30 34 1 17 30
M  V30 35 1 20 31
M  V30 36 1 21 32
M  V30 37 1 22 33
M  V30 END BOND
M  V30 END CTAB
M  END
>  <Dataset>  (941) 
ChEMBL_Kinases

>  <Ligand_Instance>  (941) 
nan

>  <PDB_ID>  (941) 
nan

>  <Standardized_SMILES>  (941) 
O=C1NC(=O)c2c1c1cnn(-c3ccccc3)c1n1cccc21

>  <Name>  (941) 
nan

>  <Pocket>  (941) 
nan

>  <ATP_Site>  (941) 
nan

>  <Peripheral>  (941) 
nan

>  <Num_H_Atoms_ProtBoundConf>  (941) 
nan

>  <Num_Resolved_Atoms>  (941) 
nan

>  <Num_Not_Resolved_Atoms>  (941) 
nan

$$$$
CHEMBL3109972
     RDKit          3D

  0  0  0  0  0  0  0  0  0  0999 V3000
M  V30 BEGIN CTAB
M  V30 COUNTS 54 58 0 0 0
M  V30 BEGIN ATOM
M  V30 1 C 7.668724 -5.730311 4.173554 0
M  V30 2 N 6.587413 -4.769340 4.075699 0
M  V30 3 C 6.282674 -3.884964 3.061528 0
M  V30 4 C 5.122236 -3.239658 3.538088 0
M  V30 5 C 4.356154 -2.203177 2.803190 0
M  V30 6 C 3.244404 -1.618664 3.384598 0
M  V30 7 C 2.691155 -0.706901 2.503899 0
M  V30 8 C 1.583251 0.093104 2.620140 0
M  V30 9 N 1.345532 0.842947 1.510901 0
M  V30 10 C 2.123779 0.808213 0.397322 0
M  V30 11 N 1.544019 1.727272 -0.568684 0
M  V30 12 C 0.281132 1.086774 -0.886026 0
M  V30 13 C -0.767491 1.916790 -0.494245 0
M  V30 14 C -2.105460 1.519248 -0.629218 0
M  V30 15 C -2.370193 0.272398 -1.164711 0
M  V30 16 C -3.668213 -0.397232 -1.350715 0
M  V30 17 O -3.752105 -1.573773 -0.846263 0
M  V30 18 N -4.765343 0.242047 -2.060385 0
M  V30 19 C -5.031857 1.501742 -2.708744 0
M  V30 20 C -6.354878 2.109179 -2.397494 0
M  V30 21 S -7.163838 1.469616 -0.942714 0
M  V30 22 O -8.629222 1.776402 -1.073307 0
M  V30 23 O -6.667283 2.099298 0.315957 0
M  V30 24 C -6.860053 -0.296218 -0.952962 0
M  V30 25 C -5.950852 -0.591559 -2.153598 0
M  V30 26 C -1.312514 -0.525266 -1.546358 0
M  V30 27 C 0.006744 -0.152757 -1.423213 0
M  V30 28 Cl 1.400106 -1.090500 -1.897409 0
M  V30 29 C 3.229364 -0.010155 0.327799 0
M  V30 30 C 3.525584 -0.796897 1.416844 0
M  V30 31 N 4.521667 -1.681968 1.578292 0
M  V30 32 C 4.806917 -3.747426 4.756773 0
M  V30 33 N 5.717781 -4.700321 5.095470 0
M  V30 34 H 7.310710 -6.684994 4.619715 0
M  V30 35 H 8.179345 -5.890722 3.180945 0
M  V30 36 H 8.472522 -5.322070 4.848645 0
M  V30 37 H 6.831519 -3.762739 2.166502 0
M  V30 38 H 2.807964 -1.798103 4.372913 0
M  V30 39 H 0.966485 0.120813 3.505820 0
M  V30 40 H 1.727930 2.627615 -1.068962 0
M  V30 41 H -0.692456 2.920788 -0.064968 0
M  V30 42 H -3.003884 2.071966 -0.363447 0
M  V30 43 H -4.246696 2.261469 -2.407400 0
M  V30 44 H -4.923584 1.457583 -3.818019 0
M  V30 45 H -7.077577 1.916706 -3.242199 0
M  V30 46 H -6.328759 3.217596 -2.278036 0
M  V30 47 H -6.368851 -0.587602 -0.008706 0
M  V30 48 H -7.812789 -0.827354 -1.063425 0
M  V30 49 H -6.514508 -0.451400 -3.090386 0
M  V30 50 H -5.705078 -1.658907 -2.101944 0
M  V30 51 H -1.391038 -1.528055 -1.984035 0
M  V30 52 H 3.775132 0.057101 -0.595053 0
M  V30 53 H 5.266024 -1.925079 0.928440 0
M  V30 54 H 3.979212 -3.486009 5.408290 0
M  V30 END ATOM
M  V30 BEGIN BOND
M  V30 1 1 1 2
M  V30 2 1 2 3
M  V30 3 2 3 4
M  V30 4 1 4 5
M  V30 5 2 5 6
M  V30 6 1 6 7
M  V30 7 2 7 8
M  V30 8 1 8 9
M  V30 9 2 9 10
M  V30 10 1 10 11
M  V30 11 1 11 12
M  V30 12 2 12 13
M  V30 13 1 13 14
M  V30 14 2 14 15
M  V30 15 1 15 16
M  V30 16 2 16 17
M  V30 17 1 16 18
M  V30 18 1 18 19
M  V30 19 1 19 20
M  V30 20 1 20 21
M  V30 21 2 21 22
M  V30 22 2 21 23
M  V30 23 1 21 24
M  V30 24 1 24 25
M  V30 25 1 15 26
M  V30 26 2 26 27
M  V30 27 1 27 28
M  V30 28 1 10 29
M  V30 29 2 29 30
M  V30 30 1 30 31
M  V30 31 1 4 32
M  V30 32 2 32 33
M  V30 33 1 33 2
M  V30 34 1 31 5
M  V30 35 1 30 7
M  V30 36 1 27 12
M  V30 37 1 25 18
M  V30 38 1 1 34
M  V30 39 1 1 35
M  V30 40 1 1 36
M  V30 41 1 3 37
M  V30 42 1 6 38
M  V30 43 1 8 39
M  V30 44 1 11 40
M  V30 45 1 13 41
M  V30 46 1 14 42
M  V30 47 1 19 43
M  V30 48 1 19 44
M  V30 49 1 20 45
M  V30 50 1 20 46
M  V30 51 1 24 47
M  V30 52 1 24 48
M  V30 53 1 25 49
M  V30 54 1 25 50
M  V30 55 1 26 51
M  V30 56 1 29 52
M  V30 57 1 31 53
M  V30 58 1 32 54
M  V30 END BOND
M  V30 END CTAB
M  END
>  <Dataset>  (942) 
ChEMBL_Kinases

>  <Ligand_Instance>  (942) 
nan

>  <PDB_ID>  (942) 
nan

>  <Standardized_SMILES>  (942) 
Cn1cc(-c2cc3cnc(Nc4ccc(C(=O)N5CCS(=O)(=O)CC5)cc4Cl)cc3[nH]2)cn1

>  <Name>  (942) 
nan

>  <Pocket>  (942) 
nan

>  <ATP_Site>  (942) 
nan

>  <Peripheral>  (942) 
nan

>  <Num_H_Atoms_ProtBoundConf>  (942) 
nan

>  <Num_Resolved_Atoms>  (942) 
nan

>  <Num_Not_Resolved_Atoms>  (942) 
nan

$$$$
CHEMBL3109971
     RDKit          3D

  0  0  0  0  0  0  0  0  0  0999 V3000
M  V30 BEGIN CTAB
M  V30 COUNTS 62 66 0 0 0
M  V30 BEGIN ATOM
M  V30 1 C 3.862718 -2.401616 3.845347 0
M  V30 2 N 4.345070 -1.050982 4.053736 0
M  V30 3 C 3.356348 -0.317792 4.803810 0
M  V30 4 C 4.708239 -0.401306 2.814704 0
M  V30 5 C 5.186663 0.974971 3.160044 0
M  V30 6 C 5.263795 1.867658 1.965299 0
M  V30 7 N 3.944209 1.914015 1.353904 0
M  V30 8 C 3.147721 3.115080 1.372778 0
M  V30 9 O 3.775137 4.029099 1.972994 0
M  V30 10 C 1.874334 2.859213 0.683397 0
M  V30 11 C 1.834274 3.140512 -0.666774 0
M  V30 12 C 0.634194 2.896313 -1.302485 0
M  V30 13 C -0.450049 2.399536 -0.608987 0
M  V30 14 N -1.719536 2.132380 -1.239716 0
M  V30 15 C -2.218633 0.782829 -1.201327 0
M  V30 16 C -3.422896 0.433802 -1.775992 0
M  V30 17 C -3.891374 -0.861763 -1.733739 0
M  V30 18 N -4.972414 -1.534729 -2.167187 0
M  V30 19 C -4.912237 -2.831530 -1.837271 0
M  V30 20 C -5.917136 -3.842032 -2.151928 0
M  V30 21 C -7.095474 -3.635976 -2.839736 0
M  V30 22 N -7.724257 -4.840674 -2.905368 0
M  V30 23 N -6.994564 -5.754998 -2.299071 0
M  V30 24 C -7.214794 -7.183261 -2.091385 0
M  V30 25 C -5.870529 -5.180577 -1.819708 0
M  V30 26 C -3.738988 -3.062235 -1.146595 0
M  V30 27 C -3.134434 -1.826320 -1.101189 0
M  V30 28 C -1.925871 -1.479836 -0.523605 0
M  V30 29 N -1.524593 -0.198149 -0.599216 0
M  V30 30 C -0.368145 2.130756 0.745007 0
M  V30 31 Cl -1.673454 1.499627 1.733439 0
M  V30 32 C 0.817711 2.361131 1.423373 0
M  V30 33 C 3.650348 0.598743 0.779398 0
M  V30 34 C 3.568996 -0.452660 1.851589 0
M  V30 35 H 4.295030 -3.036800 4.651481 0
M  V30 36 H 4.178320 -2.744887 2.832983 0
M  V30 37 H 2.754947 -2.403845 3.924294 0
M  V30 38 H 2.667312 -1.014142 5.344969 0
M  V30 39 H 3.908010 0.224238 5.609549 0
M  V30 40 H 2.816682 0.444061 4.229185 0
M  V30 41 H 5.588140 -0.972072 2.414129 0
M  V30 42 H 6.227945 0.867708 3.549729 0
M  V30 43 H 4.580771 1.432768 3.958828 0
M  V30 44 H 5.995015 1.511383 1.230086 0
M  V30 45 H 5.499756 2.898705 2.335761 0
M  V30 46 H 2.704276 3.530297 -1.182623 0
M  V30 47 H 0.524409 3.090919 -2.356573 0
M  V30 48 H -2.313906 2.839975 -1.726689 0
M  V30 49 H -4.018415 1.170503 -2.268583 0
M  V30 50 H -5.745821 -1.056482 -2.697239 0
M  V30 51 H -7.428969 -2.689558 -3.238012 0
M  V30 52 H -8.173345 -7.468854 -2.523741 0
M  V30 53 H -7.279213 -7.341000 -0.976189 0
M  V30 54 H -6.342684 -7.743229 -2.460101 0
M  V30 55 H -5.042718 -5.600002 -1.273554 0
M  V30 56 H -3.445910 -4.022613 -0.767108 0
M  V30 57 H -1.285050 -2.187820 -0.012934 0
M  V30 58 H 0.932826 2.165413 2.490520 0
M  V30 59 H 2.711941 0.572185 0.219497 0
M  V30 60 H 4.489925 0.287040 0.096296 0
M  V30 61 H 3.597416 -1.447152 1.344700 0
M  V30 62 H 2.601747 -0.408207 2.387504 0
M  V30 END ATOM
M  V30 BEGIN BOND
M  V30 1 1 1 2
M  V30 2 1 2 3
M  V30 3 1 2 4
M  V30 4 1 4 5
M  V30 5 1 5 6
M  V30 6 1 6 7
M  V30 7 1 7 8
M  V30 8 2 8 9
M  V30 9 1 8 10
M  V30 10 2 10 11
M  V30 11 1 11 12
M  V30 12 2 12 13
M  V30 13 1 13 14
M  V30 14 1 14 15
M  V30 15 2 15 16
M  V30 16 1 16 17
M  V30 17 1 17 18
M  V30 18 1 18 19
M  V30 19 1 19 20
M  V30 20 1 20 21
M  V30 21 2 21 22
M  V30 22 1 22 23
M  V30 23 1 23 24
M  V30 24 1 23 25
M  V30 25 2 19 26
M  V30 26 1 26 27
M  V30 27 1 27 28
M  V30 28 2 28 29
M  V30 29 1 13 30
M  V30 30 1 30 31
M  V30 31 2 30 32
M  V30 32 1 7 33
M  V30 33 1 33 34
M  V30 34 1 34 4
M  V30 35 1 32 10
M  V30 36 1 29 15
M  V30 37 2 27 17
M  V30 38 2 25 20
M  V30 39 1 1 35
M  V30 40 1 1 36
M  V30 41 1 1 37
M  V30 42 1 3 38
M  V30 43 1 3 39
M  V30 44 1 3 40
M  V30 45 1 4 41
M  V30 46 1 5 42
M  V30 47 1 5 43
M  V30 48 1 6 44
M  V30 49 1 6 45
M  V30 50 1 11 46
M  V30 51 1 12 47
M  V30 52 1 14 48
M  V30 53 1 16 49
M  V30 54 1 18 50
M  V30 55 1 21 51
M  V30 56 1 24 52
M  V30 57 1 24 53
M  V30 58 1 24 54
M  V30 59 1 25 55
M  V30 60 1 26 56
M  V30 61 1 28 57
M  V30 62 1 32 58
M  V30 63 1 33 59
M  V30 64 1 33 60
M  V30 65 1 34 61
M  V30 66 1 34 62
M  V30 END BOND
M  V30 END CTAB
M  END
>  <Dataset>  (943) 
ChEMBL_Kinases

>  <Ligand_Instance>  (943) 
nan

>  <PDB_ID>  (943) 
nan

>  <Standardized_SMILES>  (943) 
CN(C)C1CCN(C(=O)c2ccc(Nc3cc4[nH]c(-c5cnn(C)c5)cc4cn3)c(Cl)c2)CC1

>  <Name>  (943) 
nan

>  <Pocket>  (943) 
nan

>  <ATP_Site>  (943) 
nan

>  <Peripheral>  (943) 
nan

>  <Num_H_Atoms_ProtBoundConf>  (943) 
nan

>  <Num_Resolved_Atoms>  (943) 
nan

>  <Num_Not_Resolved_Atoms>  (943) 
nan

$$$$
CHEMBL3109970
     RDKit          3D

  0  0  0  0  0  0  0  0  0  0999 V3000
M  V30 BEGIN CTAB
M  V30 COUNTS 58 62 0 0 0
M  V30 BEGIN ATOM
M  V30 1 C 5.057504 -4.057066 2.287556 0
M  V30 2 O 5.729588 -2.822939 2.458704 0
M  V30 3 C 5.192283 -1.935978 1.493577 0
M  V30 4 C 4.424219 -0.903346 2.206180 0
M  V30 5 C 4.718322 0.522470 1.891397 0
M  V30 6 N 5.017373 0.575602 0.463969 0
M  V30 7 C 4.293787 1.082442 -0.658053 0
M  V30 8 O 4.816180 1.006293 -1.823336 0
M  V30 9 C 2.975375 1.676562 -0.476617 0
M  V30 10 C 2.508994 2.696370 0.322849 0
M  V30 11 C 1.164665 3.004834 0.263228 0
M  V30 12 C 0.277461 2.340467 -0.556834 0
M  V30 13 N -1.054134 2.865174 -0.396219 0
M  V30 14 C -1.925631 1.799617 0.039293 0
M  V30 15 C -2.956305 1.301781 -0.762990 0
M  V30 16 C -3.758019 0.258646 -0.314307 0
M  V30 17 N -4.776375 -0.347695 -0.924203 0
M  V30 18 C -5.219426 -1.297331 -0.069525 0
M  V30 19 C -6.334103 -2.184247 -0.378485 0
M  V30 20 C -7.131757 -2.239492 -1.500170 0
M  V30 21 N -8.033829 -3.221779 -1.361545 0
M  V30 22 N -7.861879 -3.825145 -0.178589 0
M  V30 23 C -8.583380 -4.948220 0.436726 0
M  V30 24 C -6.834330 -3.206707 0.429658 0
M  V30 25 C -4.493042 -1.314197 1.100282 0
M  V30 26 C -3.546640 -0.297069 0.926005 0
M  V30 27 C -2.524405 0.217556 1.689587 0
M  V30 28 N -1.737445 1.233725 1.261490 0
M  V30 29 C 0.724351 1.317405 -1.365441 0
M  V30 30 Cl -0.473074 0.556476 -2.348116 0
M  V30 31 C 2.085369 0.998662 -1.310475 0
M  V30 32 C 6.327933 -0.063815 0.241310 0
M  V30 33 C 6.253920 -1.533370 0.546655 0
M  V30 34 H 3.959387 -3.896135 2.456750 0
M  V30 35 H 5.404831 -4.835127 2.970894 0
M  V30 36 H 5.148091 -4.348207 1.214005 0
M  V30 37 H 4.440944 -2.597341 0.963285 0
M  V30 38 H 3.305069 -1.033294 2.079460 0
M  V30 39 H 4.532751 -0.994862 3.331005 0
M  V30 40 H 3.843430 1.145002 2.153007 0
M  V30 41 H 5.603415 0.913854 2.468210 0
M  V30 42 H 3.303885 3.114206 0.897130 0
M  V30 43 H 0.915186 3.831376 0.945687 0
M  V30 44 H -1.379506 3.836067 -0.556282 0
M  V30 45 H -3.135127 1.727249 -1.726222 0
M  V30 46 H -5.163544 -0.132666 -1.883650 0
M  V30 47 H -7.041492 -1.582741 -2.367707 0
M  V30 48 H -9.500028 -5.148717 -0.162307 0
M  V30 49 H -8.847919 -4.731173 1.498532 0
M  V30 50 H -7.944425 -5.861535 0.344280 0
M  V30 51 H -6.433962 -3.447464 1.402276 0
M  V30 52 H -4.594018 -1.947861 1.973340 0
M  V30 53 H -2.331531 -0.206446 2.688000 0
M  V30 54 H 2.276647 0.170992 -2.009038 0
M  V30 55 H 6.653649 0.162070 -0.791980 0
M  V30 56 H 7.039051 0.473377 0.898263 0
M  V30 57 H 6.112859 -2.053335 -0.437853 0
M  V30 58 H 7.253413 -1.850824 0.904619 0
M  V30 END ATOM
M  V30 BEGIN BOND
M  V30 1 1 1 2
M  V30 2 1 2 3
M  V30 3 1 3 4
M  V30 4 1 4 5
M  V30 5 1 5 6
M  V30 6 1 6 7
M  V30 7 2 7 8
M  V30 8 1 7 9
M  V30 9 2 9 10
M  V30 10 1 10 11
M  V30 11 2 11 12
M  V30 12 1 12 13
M  V30 13 1 13 14
M  V30 14 2 14 15
M  V30 15 1 15 16
M  V30 16 1 16 17
M  V30 17 1 17 18
M  V30 18 1 18 19
M  V30 19 1 19 20
M  V30 20 2 20 21
M  V30 21 1 21 22
M  V30 22 1 22 23
M  V30 23 1 22 24
M  V30 24 2 18 25
M  V30 25 1 25 26
M  V30 26 1 26 27
M  V30 27 2 27 28
M  V30 28 1 12 29
M  V30 29 1 29 30
M  V30 30 2 29 31
M  V30 31 1 6 32
M  V30 32 1 32 33
M  V30 33 1 33 3
M  V30 34 1 31 9
M  V30 35 1 28 14
M  V30 36 2 26 16
M  V30 37 2 24 19
M  V30 38 1 1 34
M  V30 39 1 1 35
M  V30 40 1 1 36
M  V30 41 1 3 37
M  V30 42 1 4 38
M  V30 43 1 4 39
M  V30 44 1 5 40
M  V30 45 1 5 41
M  V30 46 1 10 42
M  V30 47 1 11 43
M  V30 48 1 13 44
M  V30 49 1 15 45
M  V30 50 1 17 46
M  V30 51 1 20 47
M  V30 52 1 23 48
M  V30 53 1 23 49
M  V30 54 1 23 50
M  V30 55 1 24 51
M  V30 56 1 25 52
M  V30 57 1 27 53
M  V30 58 1 31 54
M  V30 59 1 32 55
M  V30 60 1 32 56
M  V30 61 1 33 57
M  V30 62 1 33 58
M  V30 END BOND
M  V30 END CTAB
M  END
>  <Dataset>  (944) 
ChEMBL_Kinases

>  <Ligand_Instance>  (944) 
nan

>  <PDB_ID>  (944) 
nan

>  <Standardized_SMILES>  (944) 
COC1CCN(C(=O)c2ccc(Nc3cc4[nH]c(-c5cnn(C)c5)cc4cn3)c(Cl)c2)CC1

>  <Name>  (944) 
nan

>  <Pocket>  (944) 
nan

>  <ATP_Site>  (944) 
nan

>  <Peripheral>  (944) 
nan

>  <Num_H_Atoms_ProtBoundConf>  (944) 
nan

>  <Num_Resolved_Atoms>  (944) 
nan

>  <Num_Not_Resolved_Atoms>  (944) 
nan

$$$$
CHEMBL3109969
     RDKit          3D

  0  0  0  0  0  0  0  0  0  0999 V3000
M  V30 BEGIN CTAB
M  V30 COUNTS 48 51 0 0 0
M  V30 BEGIN ATOM
M  V30 1 C 2.199483 -4.443395 1.773253 0
M  V30 2 N 3.612161 -4.331802 2.172424 0
M  V30 3 C 3.615365 -3.236864 3.156038 0
M  V30 4 S 4.531027 -3.848974 0.785562 0
M  V30 5 O 5.971782 -3.756329 1.137391 0
M  V30 6 O 4.271888 -4.842368 -0.311511 0
M  V30 7 C 4.002888 -2.284910 0.201454 0
M  V30 8 C 4.585254 -1.133075 0.686704 0
M  V30 9 C 4.172300 0.101468 0.233031 0
M  V30 10 C 3.175397 0.221331 -0.709319 0
M  V30 11 N 2.642317 1.406856 -1.286456 0
M  V30 12 C 1.252052 1.687048 -1.068247 0
M  V30 13 C 0.457907 0.906757 -0.255894 0
M  V30 14 C -0.884735 1.132122 -0.027576 0
M  V30 15 N -1.818090 0.480545 0.728829 0
M  V30 16 C -2.981217 1.139753 0.582382 0
M  V30 17 C -4.216967 0.732507 1.245938 0
M  V30 18 C -4.339998 -0.361230 2.091788 0
M  V30 19 N -5.636531 -0.416539 2.511059 0
M  V30 20 N -6.305921 0.594386 1.957748 0
M  V30 21 C -7.715742 0.870768 2.161935 0
M  V30 22 C -5.469855 1.309429 1.184448 0
M  V30 23 C -2.826699 2.219431 -0.262255 0
M  V30 24 C -1.490583 2.206371 -0.645066 0
M  V30 25 C -0.678912 2.984743 -1.460277 0
M  V30 26 N 0.626524 2.724117 -1.651414 0
M  V30 27 C 2.570773 -0.934469 -1.216441 0
M  V30 28 Cl 1.301801 -1.066036 -2.427871 0
M  V30 29 C 2.987454 -2.188808 -0.757816 0
M  V30 30 H 1.705703 -5.023032 2.577776 0
M  V30 31 H 2.203005 -4.973788 0.794357 0
M  V30 32 H 1.754593 -3.430247 1.690112 0
M  V30 33 H 3.146502 -2.355360 2.666306 0
M  V30 34 H 2.990481 -3.507365 4.031086 0
M  V30 35 H 4.644908 -3.003752 3.491916 0
M  V30 36 H 5.373213 -1.166190 1.427573 0
M  V30 37 H 4.565282 1.052496 0.551267 0
M  V30 38 H 3.168971 2.095342 -1.856384 0
M  V30 39 H 0.866422 0.049671 0.270807 0
M  V30 40 H -1.631219 -0.376547 1.307892 0
M  V30 41 H -3.568833 -1.072940 2.394490 0
M  V30 42 H -7.867522 1.981787 2.234340 0
M  V30 43 H -8.353108 0.513670 1.327059 0
M  V30 44 H -8.090965 0.359679 3.077921 0
M  V30 45 H -5.642122 2.176369 0.593105 0
M  V30 46 H -3.543542 2.944294 -0.588035 0
M  V30 47 H -1.175973 3.835693 -1.943733 0
M  V30 48 H 2.587101 -3.139826 -1.082968 0
M  V30 END ATOM
M  V30 BEGIN BOND
M  V30 1 1 1 2
M  V30 2 1 2 3
M  V30 3 1 2 4
M  V30 4 2 4 5
M  V30 5 2 4 6
M  V30 6 1 4 7
M  V30 7 2 7 8
M  V30 8 1 8 9
M  V30 9 2 9 10
M  V30 10 1 10 11
M  V30 11 1 11 12
M  V30 12 2 12 13
M  V30 13 1 13 14
M  V30 14 1 14 15
M  V30 15 1 15 16
M  V30 16 1 16 17
M  V30 17 1 17 18
M  V30 18 2 18 19
M  V30 19 1 19 20
M  V30 20 1 20 21
M  V30 21 1 20 22
M  V30 22 2 16 23
M  V30 23 1 23 24
M  V30 24 1 24 25
M  V30 25 2 25 26
M  V30 26 1 10 27
M  V30 27 1 27 28
M  V30 28 2 27 29
M  V30 29 1 29 7
M  V30 30 1 26 12
M  V30 31 2 24 14
M  V30 32 2 22 17
M  V30 33 1 1 30
M  V30 34 1 1 31
M  V30 35 1 1 32
M  V30 36 1 3 33
M  V30 37 1 3 34
M  V30 38 1 3 35
M  V30 39 1 8 36
M  V30 40 1 9 37
M  V30 41 1 11 38
M  V30 42 1 13 39
M  V30 43 1 15 40
M  V30 44 1 18 41
M  V30 45 1 21 42
M  V30 46 1 21 43
M  V30 47 1 21 44
M  V30 48 1 22 45
M  V30 49 1 23 46
M  V30 50 1 25 47
M  V30 51 1 29 48
M  V30 END BOND
M  V30 END CTAB
M  END
>  <Dataset>  (945) 
ChEMBL_Kinases

>  <Ligand_Instance>  (945) 
nan

>  <PDB_ID>  (945) 
nan

>  <Standardized_SMILES>  (945) 
CN(C)S(=O)(=O)c1ccc(Nc2cc3[nH]c(-c4cnn(C)c4)cc3cn2)c(Cl)c1

>  <Name>  (945) 
nan

>  <Pocket>  (945) 
nan

>  <ATP_Site>  (945) 
nan

>  <Peripheral>  (945) 
nan

>  <Num_H_Atoms_ProtBoundConf>  (945) 
nan

>  <Num_Resolved_Atoms>  (945) 
nan

>  <Num_Not_Resolved_Atoms>  (945) 
nan

$$$$
CHEMBL3109968
     RDKit          3D

  0  0  0  0  0  0  0  0  0  0999 V3000
M  V30 BEGIN CTAB
M  V30 COUNTS 51 54 0 0 0
M  V30 BEGIN ATOM
M  V30 1 C -0.726198 3.220358 -0.506660 0
M  V30 2 O -0.049477 2.703230 0.570446 0
M  V30 3 C 1.230845 2.383428 0.792082 0
M  V30 4 C 2.360448 2.459932 0.023662 0
M  V30 5 C 3.560863 2.049714 0.561629 0
M  V30 6 C 4.693978 2.172350 -0.361945 0
M  V30 7 O 5.390837 3.084007 -0.881651 0
M  V30 8 N 5.128503 0.865390 -0.798260 0
M  V30 9 C 6.257112 0.784689 -1.734450 0
M  V30 10 C 4.571401 -0.431202 -0.421392 0
M  V30 11 C 3.662108 1.566660 1.844589 0
M  V30 12 C 2.515221 1.479809 2.647334 0
M  V30 13 C 1.282780 1.892849 2.110506 0
M  V30 14 N 0.248197 1.717603 3.106248 0
M  V30 15 C -0.620608 0.656382 2.656919 0
M  V30 16 C -1.713013 0.413524 1.866332 0
M  V30 17 C -2.142930 -0.883148 1.745318 0
M  V30 18 N -3.175845 -1.278059 0.981897 0
M  V30 19 C -3.201236 -2.610674 1.145164 0
M  V30 20 C -4.097658 -3.566057 0.514960 0
M  V30 21 C -5.111637 -3.280089 -0.373351 0
M  V30 22 N -5.702635 -4.435547 -0.759720 0
M  V30 23 N -5.101697 -5.469531 -0.147212 0
M  V30 24 C -5.379361 -6.903133 -0.249869 0
M  V30 25 C -4.133751 -4.939914 0.620313 0
M  V30 26 C -2.203041 -3.027952 1.997825 0
M  V30 27 C -1.510154 -1.913600 2.392701 0
M  V30 28 C -0.414585 -1.652990 3.185984 0
M  V30 29 N 0.022233 -0.364250 3.310797 0
M  V30 30 H -0.779439 4.349924 -0.421758 0
M  V30 31 H -0.229560 3.000364 -1.471237 0
M  V30 32 H -1.770647 2.834860 -0.602131 0
M  V30 33 H 2.116043 2.856566 -0.952322 0
M  V30 34 H 5.913341 0.843018 -2.778002 0
M  V30 35 H 6.833780 -0.150656 -1.610968 0
M  V30 36 H 6.913850 1.665967 -1.504349 0
M  V30 37 H 4.344010 -1.063838 -1.319765 0
M  V30 38 H 5.210086 -0.928342 0.308061 0
M  V30 39 H 3.572196 -0.314576 0.089263 0
M  V30 40 H 4.676528 1.292900 2.100432 0
M  V30 41 H 2.735450 1.087455 3.622326 0
M  V30 42 H 0.130223 2.248890 3.992312 0
M  V30 43 H -2.061506 1.338985 1.477202 0
M  V30 44 H -3.815434 -0.680678 0.391147 0
M  V30 45 H -5.470094 -2.344049 -0.772133 0
M  V30 46 H -6.338799 -7.014975 -0.773580 0
M  V30 47 H -4.562653 -7.378034 -0.869580 0
M  V30 48 H -5.387224 -7.383559 0.741960 0
M  V30 49 H -3.426743 -5.477573 1.274645 0
M  V30 50 H -1.974030 -4.037528 2.323867 0
M  V30 51 H -0.022375 -2.565607 3.639076 0
M  V30 END ATOM
M  V30 BEGIN BOND
M  V30 1 1 1 2
M  V30 2 1 2 3
M  V30 3 2 3 4
M  V30 4 1 4 5
M  V30 5 1 5 6
M  V30 6 2 6 7
M  V30 7 1 6 8
M  V30 8 1 8 9
M  V30 9 1 8 10
M  V30 10 2 5 11
M  V30 11 1 11 12
M  V30 12 2 12 13
M  V30 13 1 13 14
M  V30 14 1 14 15
M  V30 15 2 15 16
M  V30 16 1 16 17
M  V30 17 1 17 18
M  V30 18 1 18 19
M  V30 19 1 19 20
M  V30 20 1 20 21
M  V30 21 2 21 22
M  V30 22 1 22 23
M  V30 23 1 23 24
M  V30 24 1 23 25
M  V30 25 2 19 26
M  V30 26 1 26 27
M  V30 27 1 27 28
M  V30 28 2 28 29
M  V30 29 1 13 3
M  V30 30 1 29 15
M  V30 31 2 27 17
M  V30 32 2 25 20
M  V30 33 1 1 30
M  V30 34 1 1 31
M  V30 35 1 1 32
M  V30 36 1 4 33
M  V30 37 1 9 34
M  V30 38 1 9 35
M  V30 39 1 9 36
M  V30 40 1 10 37
M  V30 41 1 10 38
M  V30 42 1 10 39
M  V30 43 1 11 40
M  V30 44 1 12 41
M  V30 45 1 14 42
M  V30 46 1 16 43
M  V30 47 1 18 44
M  V30 48 1 21 45
M  V30 49 1 24 46
M  V30 50 1 24 47
M  V30 51 1 24 48
M  V30 52 1 25 49
M  V30 53 1 26 50
M  V30 54 1 28 51
M  V30 END BOND
M  V30 END CTAB
M  END
>  <Dataset>  (946) 
ChEMBL_Kinases

>  <Ligand_Instance>  (946) 
nan

>  <PDB_ID>  (946) 
nan

>  <Standardized_SMILES>  (946) 
COc1cc(C(=O)N(C)C)ccc1Nc1cc2[nH]c(-c3cnn(C)c3)cc2cn1

>  <Name>  (946) 
nan

>  <Pocket>  (946) 
nan

>  <ATP_Site>  (946) 
nan

>  <Peripheral>  (946) 
nan

>  <Num_H_Atoms_ProtBoundConf>  (946) 
nan

>  <Num_Resolved_Atoms>  (946) 
nan

>  <Num_Not_Resolved_Atoms>  (946) 
nan

$$$$
CHEMBL3109967
     RDKit          3D

  0  0  0  0  0  0  0  0  0  0999 V3000
M  V30 BEGIN CTAB
M  V30 COUNTS 47 50 0 0 0
M  V30 BEGIN ATOM
M  V30 1 C 1.157027 -4.277977 1.747025 0
M  V30 2 N 2.274169 -5.111174 1.300224 0
M  V30 3 C 2.637403 -6.100599 2.328361 0
M  V30 4 C 2.956832 -4.989394 0.031186 0
M  V30 5 O 3.884536 -5.787665 -0.190869 0
M  V30 6 C 2.377902 -3.892143 -0.762411 0
M  V30 7 C 3.105836 -2.753953 -1.124178 0
M  V30 8 C 2.471382 -1.748635 -1.859486 0
M  V30 9 C 1.129571 -1.852191 -2.241925 0
M  V30 10 N 0.740166 -0.688458 -2.956533 0
M  V30 11 C -0.301965 -0.140160 -2.143255 0
M  V30 12 C 0.304845 0.653646 -1.157500 0
M  V30 13 C -0.429886 1.344046 -0.181706 0
M  V30 14 N -0.166464 2.152200 0.859385 0
M  V30 15 C -1.325470 2.509890 1.440590 0
M  V30 16 C -1.373076 3.393216 2.600834 0
M  V30 17 C -0.349808 4.005635 3.286628 0
M  V30 18 N -0.816121 4.748145 4.304540 0
M  V30 19 N -2.163927 4.652867 4.326120 0
M  V30 20 C -3.085933 5.288850 5.241247 0
M  V30 21 C -2.481773 3.837096 3.299468 0
M  V30 22 C -2.423149 1.957225 0.814778 0
M  V30 23 C -1.823892 1.219818 -0.214341 0
M  V30 24 C -2.374830 0.429412 -1.201388 0
M  V30 25 N -1.656704 -0.223684 -2.126774 0
M  V30 26 C 0.446287 -2.987710 -1.869658 0
M  V30 27 Cl -1.214022 -3.013565 -2.411365 0
M  V30 28 C 1.037253 -3.991192 -1.148994 0
M  V30 29 H 1.171272 -3.300229 1.218013 0
M  V30 30 H 0.200799 -4.785643 1.535192 0
M  V30 31 H 1.234307 -4.056466 2.819941 0
M  V30 32 H 3.664528 -6.504249 2.159792 0
M  V30 33 H 1.940776 -6.948194 2.291511 0
M  V30 34 H 2.567002 -5.627311 3.347261 0
M  V30 35 H 4.138770 -2.716522 -0.809155 0
M  V30 36 H 3.161698 -0.927807 -2.068324 0
M  V30 37 H 1.157880 -0.367298 -3.857132 0
M  V30 38 H 1.360274 0.845668 -1.003812 0
M  V30 39 H 0.778224 2.434349 1.143565 0
M  V30 40 H 0.705232 3.916952 3.053676 0
M  V30 41 H -3.488009 4.576463 6.001358 0
M  V30 42 H -3.979043 5.696430 4.699210 0
M  V30 43 H -2.556950 6.145703 5.730156 0
M  V30 44 H -3.521935 3.572923 3.070369 0
M  V30 45 H -3.467310 2.040642 1.023598 0
M  V30 46 H -3.434105 0.264250 -1.318074 0
M  V30 47 H 0.420485 -4.837478 -0.905555 0
M  V30 END ATOM
M  V30 BEGIN BOND
M  V30 1 1 1 2
M  V30 2 1 2 3
M  V30 3 1 2 4
M  V30 4 2 4 5
M  V30 5 1 4 6
M  V30 6 2 6 7
M  V30 7 1 7 8
M  V30 8 2 8 9
M  V30 9 1 9 10
M  V30 10 1 10 11
M  V30 11 2 11 12
M  V30 12 1 12 13
M  V30 13 1 13 14
M  V30 14 1 14 15
M  V30 15 1 15 16
M  V30 16 1 16 17
M  V30 17 2 17 18
M  V30 18 1 18 19
M  V30 19 1 19 20
M  V30 20 1 19 21
M  V30 21 2 15 22
M  V30 22 1 22 23
M  V30 23 1 23 24
M  V30 24 2 24 25
M  V30 25 1 9 26
M  V30 26 1 26 27
M  V30 27 2 26 28
M  V30 28 1 28 6
M  V30 29 1 25 11
M  V30 30 2 23 13
M  V30 31 2 21 16
M  V30 32 1 1 29
M  V30 33 1 1 30
M  V30 34 1 1 31
M  V30 35 1 3 32
M  V30 36 1 3 33
M  V30 37 1 3 34
M  V30 38 1 7 35
M  V30 39 1 8 36
M  V30 40 1 10 37
M  V30 41 1 12 38
M  V30 42 1 14 39
M  V30 43 1 17 40
M  V30 44 1 20 41
M  V30 45 1 20 42
M  V30 46 1 20 43
M  V30 47 1 21 44
M  V30 48 1 22 45
M  V30 49 1 24 46
M  V30 50 1 28 47
M  V30 END BOND
M  V30 END CTAB
M  END
>  <Dataset>  (947) 
ChEMBL_Kinases

>  <Ligand_Instance>  (947) 
nan

>  <PDB_ID>  (947) 
nan

>  <Standardized_SMILES>  (947) 
CN(C)C(=O)c1ccc(Nc2cc3[nH]c(-c4cnn(C)c4)cc3cn2)c(Cl)c1

>  <Name>  (947) 
nan

>  <Pocket>  (947) 
nan

>  <ATP_Site>  (947) 
nan

>  <Peripheral>  (947) 
nan

>  <Num_H_Atoms_ProtBoundConf>  (947) 
nan

>  <Num_Resolved_Atoms>  (947) 
nan

>  <Num_Not_Resolved_Atoms>  (947) 
nan

$$$$
CHEMBL3109966
     RDKit          3D

  0  0  0  0  0  0  0  0  0  0999 V3000
M  V30 BEGIN CTAB
M  V30 COUNTS 37 40 0 0 0
M  V30 BEGIN ATOM
M  V30 1 C 0.270214 -7.358366 2.978075 0
M  V30 2 N 0.927606 -6.067266 2.931227 0
M  V30 3 C 0.522943 -5.079488 2.077355 0
M  V30 4 C 1.342117 -3.991197 2.278709 0
M  V30 5 C 1.274836 -2.706525 1.583065 0
M  V30 6 C 2.122792 -1.630490 1.819557 0
M  V30 7 C 1.723572 -0.626132 0.962674 0
M  V30 8 C 2.167858 0.659220 0.732638 0
M  V30 9 N 1.543396 1.426100 -0.208593 0
M  V30 10 C 0.486157 0.934392 -0.922018 0
M  V30 11 N 0.051711 1.948328 -1.816373 0
M  V30 12 C -0.786970 3.025475 -1.426013 0
M  V30 13 C -0.117272 4.228751 -1.669696 0
M  V30 14 C -0.680654 5.467859 -1.383918 0
M  V30 15 C -1.949723 5.535767 -0.837948 0
M  V30 16 C -2.590952 4.339585 -0.606337 0
M  V30 17 C -2.048048 3.112549 -0.883198 0
M  V30 18 Cl -2.755245 1.530364 -0.637544 0
M  V30 19 C 0.049753 -0.348140 -0.687289 0
M  V30 20 C 0.654607 -1.149966 0.253545 0
M  V30 21 N 0.364571 -2.411385 0.612986 0
M  V30 22 C 2.241253 -4.339911 3.263473 0
M  V30 23 N 1.958545 -5.595883 3.629229 0
M  V30 24 H -0.808760 -7.273458 3.196227 0
M  V30 25 H 0.784824 -8.065434 3.652427 0
M  V30 26 H 0.328175 -7.793816 1.944626 0
M  V30 27 H -0.274595 -5.076893 1.355758 0
M  V30 28 H 2.932460 -1.607510 2.542357 0
M  V30 29 H 3.004329 0.972850 1.336281 0
M  V30 30 H 0.384957 1.874148 -2.821516 0
M  V30 31 H 0.888880 4.367901 -2.095683 0
M  V30 32 H -0.204959 6.419512 -1.553008 0
M  V30 33 H -2.480391 6.446281 -0.578711 0
M  V30 34 H -3.598596 4.242587 -0.179022 0
M  V30 35 H -0.785232 -0.600447 -1.325169 0
M  V30 36 H -0.393349 -3.014719 0.223748 0
M  V30 37 H 3.046838 -3.751067 3.701050 0
M  V30 END ATOM
M  V30 BEGIN BOND
M  V30 1 1 1 2
M  V30 2 1 2 3
M  V30 3 2 3 4
M  V30 4 1 4 5
M  V30 5 2 5 6
M  V30 6 1 6 7
M  V30 7 2 7 8
M  V30 8 1 8 9
M  V30 9 2 9 10
M  V30 10 1 10 11
M  V30 11 1 11 12
M  V30 12 2 12 13
M  V30 13 1 13 14
M  V30 14 2 14 15
M  V30 15 1 15 16
M  V30 16 2 16 17
M  V30 17 1 17 18
M  V30 18 1 10 19
M  V30 19 2 19 20
M  V30 20 1 20 21
M  V30 21 1 4 22
M  V30 22 2 22 23
M  V30 23 1 23 2
M  V30 24 1 21 5
M  V30 25 1 20 7
M  V30 26 1 17 12
M  V30 27 1 1 24
M  V30 28 1 1 25
M  V30 29 1 1 26
M  V30 30 1 3 27
M  V30 31 1 6 28
M  V30 32 1 8 29
M  V30 33 1 11 30
M  V30 34 1 13 31
M  V30 35 1 14 32
M  V30 36 1 15 33
M  V30 37 1 16 34
M  V30 38 1 19 35
M  V30 39 1 21 36
M  V30 40 1 22 37
M  V30 END BOND
M  V30 END CTAB
M  END
>  <Dataset>  (948) 
ChEMBL_Kinases

>  <Ligand_Instance>  (948) 
nan

>  <PDB_ID>  (948) 
nan

>  <Standardized_SMILES>  (948) 
Cn1cc(-c2cc3cnc(Nc4ccccc4Cl)cc3[nH]2)cn1

>  <Name>  (948) 
nan

>  <Pocket>  (948) 
nan

>  <ATP_Site>  (948) 
nan

>  <Peripheral>  (948) 
nan

>  <Num_H_Atoms_ProtBoundConf>  (948) 
nan

>  <Num_Resolved_Atoms>  (948) 
nan

>  <Num_Not_Resolved_Atoms>  (948) 
nan

$$$$
CHEMBL3109965
     RDKit          3D

  0  0  0  0  0  0  0  0  0  0999 V3000
M  V30 BEGIN CTAB
M  V30 COUNTS 44 47 0 0 0
M  V30 BEGIN ATOM
M  V30 1 C -1.952800 3.163857 -0.250639 0
M  V30 2 O -0.663665 2.638319 -0.391123 0
M  V30 3 C 0.125075 2.732549 -1.509057 0
M  V30 4 C -0.284187 3.379918 -2.657161 0
M  V30 5 C 0.484172 3.492724 -3.798345 0
M  V30 6 C 1.741180 2.916455 -3.776893 0
M  V30 7 C 2.672428 2.966891 -4.945838 0
M  V30 8 F 3.881487 3.408620 -4.464185 0
M  V30 9 F 2.177023 3.718202 -5.965714 0
M  V30 10 F 2.866961 1.636550 -5.326127 0
M  V30 11 C 2.197136 2.256251 -2.649270 0
M  V30 12 C 1.401598 2.160698 -1.520442 0
M  V30 13 N 1.805827 1.490282 -0.309538 0
M  V30 14 C 1.062762 0.373047 0.206567 0
M  V30 15 C 1.451008 -0.271547 1.370351 0
M  V30 16 C 0.673059 -1.339301 1.791752 0
M  V30 17 N 0.799049 -2.143389 2.863666 0
M  V30 18 C -0.176512 -3.068871 2.909565 0
M  V30 19 C -0.374639 -4.111846 3.916692 0
M  V30 20 C -1.388625 -5.061431 3.949972 0
M  V30 21 N -1.156506 -5.802456 5.060812 0
M  V30 22 N -0.076132 -5.353340 5.681955 0
M  V30 23 C 0.551296 -5.834930 6.909089 0
M  V30 24 C 0.455790 -4.299095 5.015517 0
M  V30 25 C -0.977782 -2.851324 1.806316 0
M  V30 26 C -0.452453 -1.767227 1.098052 0
M  V30 27 C -0.773301 -1.072922 -0.052301 0
M  V30 28 N -0.029396 -0.032275 -0.478155 0
M  V30 29 H -1.856247 4.226254 0.053363 0
M  V30 30 H -2.504374 2.614803 0.558551 0
M  V30 31 H -2.542923 3.178551 -1.194268 0
M  V30 32 H -1.281160 3.845946 -2.696450 0
M  V30 33 H 0.156004 4.001963 -4.694482 0
M  V30 34 H 3.172361 1.779345 -2.558623 0
M  V30 35 H 2.639665 1.817776 0.192227 0
M  V30 36 H 2.326809 0.052752 1.920282 0
M  V30 37 H 1.562802 -2.066813 3.583903 0
M  V30 38 H -2.190935 -5.174355 3.231243 0
M  V30 39 H 0.945645 -4.960702 7.505533 0
M  V30 40 H 1.392656 -6.508180 6.741365 0
M  V30 41 H -0.247473 -6.257804 7.579495 0
M  V30 42 H 1.320973 -3.720860 5.257858 0
M  V30 43 H -1.875070 -3.395057 1.489691 0
M  V30 44 H -1.660702 -1.428850 -0.577620 0
M  V30 END ATOM
M  V30 BEGIN BOND
M  V30 1 1 1 2
M  V30 2 1 2 3
M  V30 3 2 3 4
M  V30 4 1 4 5
M  V30 5 2 5 6
M  V30 6 1 6 7
M  V30 7 1 7 8
M  V30 8 1 7 9
M  V30 9 1 7 10
M  V30 10 1 6 11
M  V30 11 2 11 12
M  V30 12 1 12 13
M  V30 13 1 13 14
M  V30 14 2 14 15
M  V30 15 1 15 16
M  V30 16 1 16 17
M  V30 17 1 17 18
M  V30 18 1 18 19
M  V30 19 1 19 20
M  V30 20 2 20 21
M  V30 21 1 21 22
M  V30 22 1 22 23
M  V30 23 1 22 24
M  V30 24 2 18 25
M  V30 25 1 25 26
M  V30 26 1 26 27
M  V30 27 2 27 28
M  V30 28 1 12 3
M  V30 29 1 28 14
M  V30 30 2 26 16
M  V30 31 2 24 19
M  V30 32 1 1 29
M  V30 33 1 1 30
M  V30 34 1 1 31
M  V30 35 1 4 32
M  V30 36 1 5 33
M  V30 37 1 11 34
M  V30 38 1 13 35
M  V30 39 1 15 36
M  V30 40 1 17 37
M  V30 41 1 20 38
M  V30 42 1 23 39
M  V30 43 1 23 40
M  V30 44 1 23 41
M  V30 45 1 24 42
M  V30 46 1 25 43
M  V30 47 1 27 44
M  V30 END BOND
M  V30 END CTAB
M  END
>  <Dataset>  (949) 
ChEMBL_Kinases

>  <Ligand_Instance>  (949) 
nan

>  <PDB_ID>  (949) 
nan

>  <Standardized_SMILES>  (949) 
COc1ccc(C(F)(F)F)cc1Nc1cc2[nH]c(-c3cnn(C)c3)cc2cn1

>  <Name>  (949) 
nan

>  <Pocket>  (949) 
nan

>  <ATP_Site>  (949) 
nan

>  <Peripheral>  (949) 
nan

>  <Num_H_Atoms_ProtBoundConf>  (949) 
nan

>  <Num_Resolved_Atoms>  (949) 
nan

>  <Num_Not_Resolved_Atoms>  (949) 
nan

$$$$
CHEMBL3109964
     RDKit          3D

  0  0  0  0  0  0  0  0  0  0999 V3000
M  V30 BEGIN CTAB
M  V30 COUNTS 41 44 0 0 0
M  V30 BEGIN ATOM
M  V30 1 C -0.235785 -6.595518 -1.507585 0
M  V30 2 O 0.147425 -5.249866 -1.227041 0
M  V30 3 C 0.729777 -4.962442 0.002536 0
M  V30 4 C 0.939792 -5.950367 0.945017 0
M  V30 5 C 1.528755 -5.552950 2.137162 0
M  V30 6 C 1.864867 -4.242494 2.321269 0
M  V30 7 C 1.663561 -3.243201 1.393911 0
M  V30 8 C 1.075395 -3.643102 0.205817 0
M  V30 9 N 0.838248 -2.651078 -0.779359 0
M  V30 10 C 1.186346 -1.284733 -0.601951 0
M  V30 11 C 0.247445 -0.537501 0.116024 0
M  V30 12 C 0.402892 0.814735 0.383269 0
M  V30 13 N -0.350218 1.711848 1.035759 0
M  V30 14 C 0.232745 2.918500 1.024849 0
M  V30 15 C -0.222093 4.178044 1.603124 0
M  V30 16 C 0.452849 5.401383 1.527948 0
M  V30 17 N -0.228047 6.373369 2.159330 0
M  V30 18 C -1.339514 5.754990 2.635009 0
M  V30 19 N -1.349841 4.428606 2.307169 0
M  V30 20 C -2.371637 3.489002 2.660167 0
M  V30 21 C 1.422802 2.774831 0.325646 0
M  V30 22 C 1.538967 1.463067 -0.079501 0
M  V30 23 C 2.433555 0.685622 -0.780433 0
M  V30 24 N 2.293883 -0.622882 -1.045026 0
M  V30 25 H 0.580435 -7.310082 -1.259714 0
M  V30 26 H -1.074743 -6.845945 -0.799335 0
M  V30 27 H -0.621924 -6.712857 -2.520659 0
M  V30 28 H 0.656473 -6.972528 0.752454 0
M  V30 29 H 1.691781 -6.335316 2.877779 0
M  V30 30 H 2.315272 -4.026228 3.275832 0
M  V30 31 H 1.930554 -2.218990 1.550911 0
M  V30 32 H 0.383727 -2.911742 -1.691271 0
M  V30 33 H -0.668548 -1.015396 0.500620 0
M  V30 34 H -1.241878 1.461776 1.466769 0
M  V30 35 H 1.396177 5.631008 1.050926 0
M  V30 36 H -2.145457 6.234858 3.212918 0
M  V30 37 H -3.150173 4.019796 3.287581 0
M  V30 38 H -2.946231 3.085449 1.808041 0
M  V30 39 H -1.995477 2.694073 3.357858 0
M  V30 40 H 2.210170 3.497235 0.075045 0
M  V30 41 H 3.330508 1.170973 -1.153784 0
M  V30 END ATOM
M  V30 BEGIN BOND
M  V30 1 1 1 2
M  V30 2 1 2 3
M  V30 3 2 3 4
M  V30 4 1 4 5
M  V30 5 2 5 6
M  V30 6 1 6 7
M  V30 7 2 7 8
M  V30 8 1 8 9
M  V30 9 1 9 10
M  V30 10 2 10 11
M  V30 11 1 11 12
M  V30 12 1 12 13
M  V30 13 1 13 14
M  V30 14 1 14 15
M  V30 15 2 15 16
M  V30 16 1 16 17
M  V30 17 2 17 18
M  V30 18 1 18 19
M  V30 19 1 19 20
M  V30 20 2 14 21
M  V30 21 1 21 22
M  V30 22 1 22 23
M  V30 23 2 23 24
M  V30 24 1 8 3
M  V30 25 1 24 10
M  V30 26 2 22 12
M  V30 27 1 19 15
M  V30 28 1 1 25
M  V30 29 1 1 26
M  V30 30 1 1 27
M  V30 31 1 4 28
M  V30 32 1 5 29
M  V30 33 1 6 30
M  V30 34 1 7 31
M  V30 35 1 9 32
M  V30 36 1 11 33
M  V30 37 1 13 34
M  V30 38 1 16 35
M  V30 39 1 18 36
M  V30 40 1 20 37
M  V30 41 1 20 38
M  V30 42 1 20 39
M  V30 43 1 21 40
M  V30 44 1 23 41
M  V30 END BOND
M  V30 END CTAB
M  END
>  <Dataset>  (950) 
ChEMBL_Kinases

>  <Ligand_Instance>  (950) 
nan

>  <PDB_ID>  (950) 
nan

>  <Standardized_SMILES>  (950) 
COc1ccccc1Nc1cc2[nH]c(-c3cncn3C)cc2cn1

>  <Name>  (950) 
nan

>  <Pocket>  (950) 
nan

>  <ATP_Site>  (950) 
nan

>  <Peripheral>  (950) 
nan

>  <Num_H_Atoms_ProtBoundConf>  (950) 
nan

>  <Num_Resolved_Atoms>  (950) 
nan

>  <Num_Not_Resolved_Atoms>  (950) 
nan

$$$$
CHEMBL3109963
     RDKit          3D

  0  0  0  0  0  0  0  0  0  0999 V3000
M  V30 BEGIN CTAB
M  V30 COUNTS 43 46 0 0 0
M  V30 BEGIN ATOM
M  V30 1 C 0.945547 -4.448597 -0.687964 0
M  V30 2 O 0.389035 -3.281258 -1.268981 0
M  V30 3 C 0.992912 -2.675495 -2.359218 0
M  V30 4 C 2.163478 -3.175896 -2.934299 0
M  V30 5 C 2.808565 -2.630762 -4.006095 0
M  V30 6 C 2.272851 -1.488021 -4.583129 0
M  V30 7 C 1.114494 -0.944673 -4.058239 0
M  V30 8 C 0.486062 -1.522466 -2.971029 0
M  V30 9 N -0.705513 -0.934717 -2.463528 0
M  V30 10 C -0.926015 -0.411757 -1.161814 0
M  V30 11 C 0.052296 -0.391450 -0.192535 0
M  V30 12 C -0.190705 0.124366 1.077796 0
M  V30 13 N 0.494777 0.298424 2.220963 0
M  V30 14 C -0.226345 0.866135 3.196907 0
M  V30 15 C 0.202667 1.192884 4.544167 0
M  V30 16 C 1.437254 0.994120 5.116245 0
M  V30 17 C 2.648412 0.400346 4.521302 0
M  V30 18 N 1.413476 1.446407 6.405982 0
M  V30 19 O 0.244244 1.900789 6.636205 0
M  V30 20 C -0.521972 1.774810 5.558094 0
M  V30 21 C -1.936827 2.223873 5.544710 0
M  V30 22 C -1.451785 1.053870 2.600823 0
M  V30 23 C -1.483991 0.613464 1.293012 0
M  V30 24 C -2.462708 0.587164 0.305610 0
M  V30 25 N -2.154400 0.071337 -0.903850 0
M  V30 26 H 0.209869 -4.989371 -0.061479 0
M  V30 27 H 1.254436 -5.160132 -1.506428 0
M  V30 28 H 1.853357 -4.238226 -0.098068 0
M  V30 29 H 2.630845 -4.061701 -2.532805 0
M  V30 30 H 3.705309 -3.039059 -4.423822 0
M  V30 31 H 2.733411 -1.003798 -5.435824 0
M  V30 32 H 0.661043 -0.046658 -4.482977 0
M  V30 33 H -1.422552 -0.939901 -3.204637 0
M  V30 34 H 1.028547 -0.769948 -0.388647 0
M  V30 35 H 1.465387 -0.019123 2.202746 0
M  V30 36 H 2.533060 -0.658596 4.209778 0
M  V30 37 H 3.489662 0.371560 5.268413 0
M  V30 38 H 3.018811 0.990321 3.669947 0
M  V30 39 H -2.127750 3.028347 4.796202 0
M  V30 40 H -2.650497 1.413020 5.359414 0
M  V30 41 H -2.222990 2.638822 6.544084 0
M  V30 42 H -2.345302 1.486064 3.022766 0
M  V30 43 H -3.445486 0.976101 0.518995 0
M  V30 END ATOM
M  V30 BEGIN BOND
M  V30 1 1 1 2
M  V30 2 1 2 3
M  V30 3 2 3 4
M  V30 4 1 4 5
M  V30 5 2 5 6
M  V30 6 1 6 7
M  V30 7 2 7 8
M  V30 8 1 8 9
M  V30 9 1 9 10
M  V30 10 2 10 11
M  V30 11 1 11 12
M  V30 12 1 12 13
M  V30 13 1 13 14
M  V30 14 1 14 15
M  V30 15 1 15 16
M  V30 16 1 16 17
M  V30 17 2 16 18
M  V30 18 1 18 19
M  V30 19 1 19 20
M  V30 20 1 20 21
M  V30 21 2 14 22
M  V30 22 1 22 23
M  V30 23 1 23 24
M  V30 24 2 24 25
M  V30 25 1 8 3
M  V30 26 1 25 10
M  V30 27 2 23 12
M  V30 28 2 20 15
M  V30 29 1 1 26
M  V30 30 1 1 27
M  V30 31 1 1 28
M  V30 32 1 4 29
M  V30 33 1 5 30
M  V30 34 1 6 31
M  V30 35 1 7 32
M  V30 36 1 9 33
M  V30 37 1 11 34
M  V30 38 1 13 35
M  V30 39 1 17 36
M  V30 40 1 17 37
M  V30 41 1 17 38
M  V30 42 1 21 39
M  V30 43 1 21 40
M  V30 44 1 21 41
M  V30 45 1 22 42
M  V30 46 1 24 43
M  V30 END BOND
M  V30 END CTAB
M  END
>  <Dataset>  (951) 
ChEMBL_Kinases

>  <Ligand_Instance>  (951) 
nan

>  <PDB_ID>  (951) 
nan

>  <Standardized_SMILES>  (951) 
COc1ccccc1Nc1cc2[nH]c(-c3c(C)noc3C)cc2cn1

>  <Name>  (951) 
nan

>  <Pocket>  (951) 
nan

>  <ATP_Site>  (951) 
nan

>  <Peripheral>  (951) 
nan

>  <Num_H_Atoms_ProtBoundConf>  (951) 
nan

>  <Num_Resolved_Atoms>  (951) 
nan

>  <Num_Not_Resolved_Atoms>  (951) 
nan

$$$$
CHEMBL3109962
     RDKit          3D

  0  0  0  0  0  0  0  0  0  0999 V3000
M  V30 BEGIN CTAB
M  V30 COUNTS 37 40 0 0 0
M  V30 BEGIN ATOM
M  V30 1 C -1.032489 -4.452631 0.798053 0
M  V30 2 O -0.317969 -3.684603 -0.124784 0
M  V30 3 C 1.061045 -3.643194 -0.089473 0
M  V30 4 C 1.924931 -4.275433 0.762051 0
M  V30 5 C 3.256823 -4.019251 0.520260 0
M  V30 6 C 3.738426 -3.216303 -0.464908 0
M  V30 7 C 2.821980 -2.588735 -1.312551 0
M  V30 8 C 1.447479 -2.819212 -1.104292 0
M  V30 9 N 0.663970 -2.077432 -2.065803 0
M  V30 10 C -0.158027 -1.198085 -1.296774 0
M  V30 11 C 0.509184 -0.198826 -0.583956 0
M  V30 12 C -0.203549 0.721360 0.192185 0
M  V30 13 N 0.338391 1.712313 0.922297 0
M  V30 14 C -0.702209 2.360340 1.525045 0
M  V30 15 C -0.670129 3.514877 2.435465 0
M  V30 16 C -1.608812 4.246647 3.133013 0
M  V30 17 N -1.002115 5.225021 3.829751 0
M  V30 18 C 0.327845 5.092443 3.555711 0
M  V30 19 O 0.499192 4.083857 2.736228 0
M  V30 20 C -1.864500 1.709159 1.118190 0
M  V30 21 C -1.587362 0.665228 0.272519 0
M  V30 22 C -2.177841 -0.342629 -0.455031 0
M  V30 23 N -1.519187 -1.239610 -1.207531 0
M  V30 24 H -0.410727 -5.234152 1.235282 0
M  V30 25 H -1.438138 -3.809045 1.632023 0
M  V30 26 H -1.846362 -4.952509 0.218628 0
M  V30 27 H 1.516781 -4.898912 1.531318 0
M  V30 28 H 3.983160 -4.493481 1.165526 0
M  V30 29 H 4.802904 -3.058801 -0.594961 0
M  V30 30 H 3.289967 -1.964528 -2.075056 0
M  V30 31 H 0.652175 -2.129922 -3.102594 0
M  V30 32 H 1.588601 -0.152588 -0.645645 0
M  V30 33 H 1.319042 1.979165 1.045048 0
M  V30 34 H -2.646806 3.967240 3.047872 0
M  V30 35 H 1.211473 5.638837 3.875430 0
M  V30 36 H -2.901770 1.941463 1.392688 0
M  V30 37 H -3.267731 -0.364491 -0.378253 0
M  V30 END ATOM
M  V30 BEGIN BOND
M  V30 1 1 1 2
M  V30 2 1 2 3
M  V30 3 2 3 4
M  V30 4 1 4 5
M  V30 5 2 5 6
M  V30 6 1 6 7
M  V30 7 2 7 8
M  V30 8 1 8 9
M  V30 9 1 9 10
M  V30 10 2 10 11
M  V30 11 1 11 12
M  V30 12 1 12 13
M  V30 13 1 13 14
M  V30 14 1 14 15
M  V30 15 2 15 16
M  V30 16 1 16 17
M  V30 17 2 17 18
M  V30 18 1 18 19
M  V30 19 2 14 20
M  V30 20 1 20 21
M  V30 21 1 21 22
M  V30 22 2 22 23
M  V30 23 1 8 3
M  V30 24 1 23 10
M  V30 25 2 21 12
M  V30 26 1 19 15
M  V30 27 1 1 24
M  V30 28 1 1 25
M  V30 29 1 1 26
M  V30 30 1 4 27
M  V30 31 1 5 28
M  V30 32 1 6 29
M  V30 33 1 7 30
M  V30 34 1 9 31
M  V30 35 1 11 32
M  V30 36 1 13 33
M  V30 37 1 16 34
M  V30 38 1 18 35
M  V30 39 1 20 36
M  V30 40 1 22 37
M  V30 END BOND
M  V30 END CTAB
M  END
>  <Dataset>  (952) 
ChEMBL_Kinases

>  <Ligand_Instance>  (952) 
nan

>  <PDB_ID>  (952) 
nan

>  <Standardized_SMILES>  (952) 
COc1ccccc1Nc1cc2[nH]c(-c3cnco3)cc2cn1

>  <Name>  (952) 
nan

>  <Pocket>  (952) 
nan

>  <ATP_Site>  (952) 
nan

>  <Peripheral>  (952) 
nan

>  <Num_H_Atoms_ProtBoundConf>  (952) 
nan

>  <Num_Resolved_Atoms>  (952) 
nan

>  <Num_Not_Resolved_Atoms>  (952) 
nan

$$$$
CHEMBL3109961
     RDKit          3D

  0  0  0  0  0  0  0  0  0  0999 V3000
M  V30 BEGIN CTAB
M  V30 COUNTS 44 47 0 0 0
M  V30 BEGIN ATOM
M  V30 1 C -2.196129 -4.669672 -2.157146 0
M  V30 2 O -1.482230 -3.460820 -2.346908 0
M  V30 3 C -0.249383 -3.421184 -2.983521 0
M  V30 4 C 0.343049 -4.582340 -3.467407 0
M  V30 5 C 1.580195 -4.534336 -4.104494 0
M  V30 6 C 2.247226 -3.320299 -4.268863 0
M  V30 7 C 1.642332 -2.167362 -3.779723 0
M  V30 8 C 0.403705 -2.193021 -3.138301 0
M  V30 9 N -0.199123 -0.978558 -2.646130 0
M  V30 10 C -0.557465 -0.637853 -1.296736 0
M  V30 11 C 0.343979 0.067147 -0.509680 0
M  V30 12 C 0.087467 0.433010 0.797309 0
M  V30 13 N 0.725044 1.085830 1.767990 0
M  V30 14 C 0.004143 1.170813 2.891610 0
M  V30 15 C 0.268134 1.779372 4.190330 0
M  V30 16 C -0.583859 1.775479 5.302151 0
M  V30 17 N 0.014958 2.439392 6.300389 0
M  V30 18 N 1.198363 2.873438 5.909582 0
M  V30 19 C 2.151867 3.631684 6.693427 0
M  V30 20 C 1.376288 2.479260 4.613830 0
M  V30 21 C 2.578793 2.781104 3.825671 0
M  V30 22 C -1.186430 0.509894 2.585947 0
M  V30 23 C -1.146252 0.047282 1.287336 0
M  V30 24 C -2.049284 -0.654647 0.510734 0
M  V30 25 N -1.766032 -0.998760 -0.771991 0
M  V30 26 H -2.203448 -5.264962 -3.102903 0
M  V30 27 H -1.822201 -5.300687 -1.348140 0
M  V30 28 H -3.268123 -4.465539 -1.947491 0
M  V30 29 H -0.186944 -5.522233 -3.333934 0
M  V30 30 H 2.026561 -5.463269 -4.476499 0
M  V30 31 H 3.214935 -3.266528 -4.765829 0
M  V30 32 H 2.151575 -1.222886 -3.902827 0
M  V30 33 H -0.412873 -0.227258 -3.353072 0
M  V30 34 H 1.312122 0.367128 -0.901040 0
M  V30 35 H 1.662605 1.475884 1.656530 0
M  V30 36 H -1.567043 1.316208 5.359175 0
M  V30 37 H 1.610883 4.078697 7.568000 0
M  V30 38 H 2.919644 2.949188 7.106736 0
M  V30 39 H 2.671927 4.394386 6.092424 0
M  V30 40 H 2.383538 3.378245 2.908036 0
M  V30 41 H 3.103408 1.852082 3.537739 0
M  V30 42 H 3.312171 3.389909 4.428181 0
M  V30 43 H -2.049282 0.351008 3.227550 0
M  V30 44 H -3.010927 -0.945049 0.919545 0
M  V30 END ATOM
M  V30 BEGIN BOND
M  V30 1 1 1 2
M  V30 2 1 2 3
M  V30 3 2 3 4
M  V30 4 1 4 5
M  V30 5 2 5 6
M  V30 6 1 6 7
M  V30 7 2 7 8
M  V30 8 1 8 9
M  V30 9 1 9 10
M  V30 10 2 10 11
M  V30 11 1 11 12
M  V30 12 1 12 13
M  V30 13 1 13 14
M  V30 14 1 14 15
M  V30 15 1 15 16
M  V30 16 2 16 17
M  V30 17 1 17 18
M  V30 18 1 18 19
M  V30 19 1 18 20
M  V30 20 1 20 21
M  V30 21 2 14 22
M  V30 22 1 22 23
M  V30 23 1 23 24
M  V30 24 2 24 25
M  V30 25 1 8 3
M  V30 26 1 25 10
M  V30 27 2 23 12
M  V30 28 2 20 15
M  V30 29 1 1 26
M  V30 30 1 1 27
M  V30 31 1 1 28
M  V30 32 1 4 29
M  V30 33 1 5 30
M  V30 34 1 6 31
M  V30 35 1 7 32
M  V30 36 1 9 33
M  V30 37 1 11 34
M  V30 38 1 13 35
M  V30 39 1 16 36
M  V30 40 1 19 37
M  V30 41 1 19 38
M  V30 42 1 19 39
M  V30 43 1 21 40
M  V30 44 1 21 41
M  V30 45 1 21 42
M  V30 46 1 22 43
M  V30 47 1 24 44
M  V30 END BOND
M  V30 END CTAB
M  END
>  <Dataset>  (953) 
ChEMBL_Kinases

>  <Ligand_Instance>  (953) 
nan

>  <PDB_ID>  (953) 
nan

>  <Standardized_SMILES>  (953) 
COc1ccccc1Nc1cc2[nH]c(-c3cnn(C)c3C)cc2cn1

>  <Name>  (953) 
nan

>  <Pocket>  (953) 
nan

>  <ATP_Site>  (953) 
nan

>  <Peripheral>  (953) 
nan

>  <Num_H_Atoms_ProtBoundConf>  (953) 
nan

>  <Num_Resolved_Atoms>  (953) 
nan

>  <Num_Not_Resolved_Atoms>  (953) 
nan

$$$$
CHEMBL3099838
     RDKit          3D

  0  0  0  0  0  0  0  0  0  0999 V3000
M  V30 BEGIN CTAB
M  V30 COUNTS 80 86 0 0 0
M  V30 BEGIN ATOM
M  V30 1 O 2.914031 -2.351135 5.928410 0
M  V30 2 C 1.788352 -2.715039 5.476366 0
M  V30 3 N 0.846961 -3.520534 6.216602 0
M  V30 4 C -0.268445 -3.676008 5.315122 0
M  V30 5 O -1.216727 -4.376424 5.809988 0
M  V30 6 C 0.009237 -2.971448 4.057548 0
M  V30 7 C -0.978044 -3.027607 2.986124 0
M  V30 8 N -0.790724 -3.300349 1.676120 0
M  V30 9 N -1.918533 -3.254239 0.997166 0
M  V30 10 C -2.207788 -3.479558 -0.406858 0
M  V30 11 C -2.129695 -2.240354 -1.248265 0
M  V30 12 C -3.068623 -1.148988 -0.842138 0
M  V30 13 N -2.986400 0.027744 -1.647691 0
M  V30 14 C -3.882693 1.051960 -1.235083 0
M  V30 15 C -4.892677 1.504815 -2.227424 0
M  V30 16 O -4.624677 1.227999 -3.542181 0
M  V30 17 C -3.245927 1.140875 -3.724206 0
M  V30 18 C -2.845677 -0.178058 -3.050337 0
M  V30 19 C -2.937971 -2.937955 1.851018 0
M  V30 20 N -4.275904 -2.756772 1.693161 0
M  V30 21 C -5.085302 -2.437435 2.703443 0
M  V30 22 C -4.538212 -2.285590 3.957973 0
M  V30 23 C -3.185170 -2.467482 4.125585 0
M  V30 24 C -2.335522 -2.800118 3.083592 0
M  V30 25 C 1.209966 -2.410456 4.150744 0
M  V30 26 C 1.802983 -1.604728 3.089268 0
M  V30 27 C 1.186577 -0.611226 2.319880 0
M  V30 28 N 2.047145 -0.087347 1.433372 0
M  V30 29 C 1.856058 0.962812 0.442612 0
M  V30 30 C 1.411010 0.356436 -0.846743 0
M  V30 31 C 1.186221 1.360606 -1.942927 0
M  V30 32 N 2.348323 2.117222 -2.277657 0
M  V30 33 C 1.997670 3.047698 -3.332356 0
M  V30 34 C 1.945390 2.368191 -4.664229 0
M  V30 35 O 3.195835 1.875390 -5.026334 0
M  V30 36 C 4.087156 1.810884 -3.978891 0
M  V30 37 C 3.447440 1.294518 -2.706775 0
M  V30 38 C 3.254483 -0.696997 1.567864 0
M  V30 39 C 4.480900 -0.564216 0.926619 0
M  V30 40 C 5.574463 -1.333069 1.262828 0
M  V30 41 C 5.421067 -2.259534 2.273900 0
M  V30 42 C 4.194645 -2.372131 2.894715 0
M  V30 43 C 3.084859 -1.617337 2.580511 0
M  V30 44 H 1.049902 -3.854592 7.187833 0
M  V30 45 H -3.184579 -3.991050 -0.516983 0
M  V30 46 H -1.454601 -4.190877 -0.859051 0
M  V30 47 H -1.097661 -1.871930 -1.383570 0
M  V30 48 H -2.451065 -2.552359 -2.285423 0
M  V30 49 H -2.824574 -0.836038 0.209796 0
M  V30 50 H -4.126425 -1.478179 -0.826562 0
M  V30 51 H -4.468935 0.643167 -0.358911 0
M  V30 52 H -3.306045 1.893892 -0.774994 0
M  V30 53 H -4.937644 2.630973 -2.140616 0
M  V30 54 H -5.948856 1.205135 -1.960241 0
M  V30 55 H -2.816466 1.951649 -3.091514 0
M  V30 56 H -2.937193 1.195994 -4.773578 0
M  V30 57 H -1.796297 -0.358560 -3.372242 0
M  V30 58 H -3.543085 -0.948075 -3.476955 0
M  V30 59 H -6.157523 -2.291367 2.583491 0
M  V30 60 H -5.175036 -2.027148 4.788673 0
M  V30 61 H -2.809468 -2.329477 5.113030 0
M  V30 62 H 0.156062 -0.297427 2.416053 0
M  V30 63 H 1.056517 1.661526 0.773818 0
M  V30 64 H 2.807387 1.499189 0.245277 0
M  V30 65 H 0.524114 -0.275585 -0.675826 0
M  V30 66 H 2.214538 -0.333075 -1.175435 0
M  V30 67 H 0.837929 0.842045 -2.859308 0
M  V30 68 H 0.341455 1.995609 -1.627788 0
M  V30 69 H 0.954941 3.389315 -3.102392 0
M  V30 70 H 2.703541 3.899211 -3.388887 0
M  V30 71 H 1.244891 1.538261 -4.726066 0
M  V30 72 H 1.590143 3.142332 -5.402996 0
M  V30 73 H 4.884306 1.076229 -4.254371 0
M  V30 74 H 4.597907 2.762579 -3.758972 0
M  V30 75 H 4.242899 1.389784 -1.920429 0
M  V30 76 H 3.222342 0.233967 -2.843357 0
M  V30 77 H 4.570549 0.167378 0.141103 0
M  V30 78 H 6.496929 -1.174290 0.720086 0
M  V30 79 H 6.274946 -2.877027 2.553200 0
M  V30 80 H 4.159510 -3.124743 3.667482 0
M  V30 END ATOM
M  V30 BEGIN BOND
M  V30 1 2 1 2
M  V30 2 1 2 3
M  V30 3 1 3 4
M  V30 4 2 4 5
M  V30 5 1 4 6
M  V30 6 1 6 7
M  V30 7 2 7 8
M  V30 8 1 8 9
M  V30 9 1 9 10
M  V30 10 1 10 11
M  V30 11 1 11 12
M  V30 12 1 12 13
M  V30 13 1 13 14
M  V30 14 1 14 15
M  V30 15 1 15 16
M  V30 16 1 16 17
M  V30 17 1 17 18
M  V30 18 1 9 19
M  V30 19 2 19 20
M  V30 20 1 20 21
M  V30 21 2 21 22
M  V30 22 1 22 23
M  V30 23 2 23 24
M  V30 24 2 6 25
M  V30 25 1 25 26
M  V30 26 2 26 27
M  V30 27 1 27 28
M  V30 28 1 28 29
M  V30 29 1 29 30
M  V30 30 1 30 31
M  V30 31 1 31 32
M  V30 32 1 32 33
M  V30 33 1 33 34
M  V30 34 1 34 35
M  V30 35 1 35 36
M  V30 36 1 36 37
M  V30 37 1 28 38
M  V30 38 2 38 39
M  V30 39 1 39 40
M  V30 40 2 40 41
M  V30 41 1 41 42
M  V30 42 2 42 43
M  V30 43 1 25 2
M  V30 44 1 43 26
M  V30 45 1 24 7
M  V30 46 1 37 32
M  V30 47 1 43 38
M  V30 48 1 18 13
M  V30 49 1 24 19
M  V30 50 1 3 44
M  V30 51 1 10 45
M  V30 52 1 10 46
M  V30 53 1 11 47
M  V30 54 1 11 48
M  V30 55 1 12 49
M  V30 56 1 12 50
M  V30 57 1 14 51
M  V30 58 1 14 52
M  V30 59 1 15 53
M  V30 60 1 15 54
M  V30 61 1 17 55
M  V30 62 1 17 56
M  V30 63 1 18 57
M  V30 64 1 18 58
M  V30 65 1 21 59
M  V30 66 1 22 60
M  V30 67 1 23 61
M  V30 68 1 27 62
M  V30 69 1 29 63
M  V30 70 1 29 64
M  V30 71 1 30 65
M  V30 72 1 30 66
M  V30 73 1 31 67
M  V30 74 1 31 68
M  V30 75 1 33 69
M  V30 76 1 33 70
M  V30 77 1 34 71
M  V30 78 1 34 72
M  V30 79 1 36 73
M  V30 80 1 36 74
M  V30 81 1 37 75
M  V30 82 1 37 76
M  V30 83 1 39 77
M  V30 84 1 40 78
M  V30 85 1 41 79
M  V30 86 1 42 80
M  V30 END BOND
M  V30 END CTAB
M  END
>  <Dataset>  (954) 
ChEMBL_Kinases

>  <Ligand_Instance>  (954) 
nan

>  <PDB_ID>  (954) 
nan

>  <Standardized_SMILES>  (954) 
O=C1NC(=O)C(c2nn(CCCN3CCOCC3)c3ncccc23)=C1c1cn(CCCN2CCOCC2)c2ccccc12

>  <Name>  (954) 
nan

>  <Pocket>  (954) 
nan

>  <ATP_Site>  (954) 
nan

>  <Peripheral>  (954) 
nan

>  <Num_H_Atoms_ProtBoundConf>  (954) 
nan

>  <Num_Resolved_Atoms>  (954) 
nan

>  <Num_Not_Resolved_Atoms>  (954) 
nan

$$$$
CHEMBL3109939
     RDKit          3D

  0  0  0  0  0  0  0  0  0  0999 V3000
M  V30 BEGIN CTAB
M  V30 COUNTS 69 73 0 0 0
M  V30 BEGIN ATOM
M  V30 1 C 5.244461 -1.328833 7.968692 0
M  V30 2 N 4.375477 -1.139708 6.824306 0
M  V30 3 C 4.610610 -1.323147 5.514217 0
M  V30 4 C 3.479219 -1.021817 4.747142 0
M  V30 5 C 3.470186 -1.136685 3.300786 0
M  V30 6 C 4.555238 -1.546339 2.565282 0
M  V30 7 C 4.192459 -1.537910 1.220547 0
M  V30 8 C 4.885676 -1.859124 0.044569 0
M  V30 9 N 4.268557 -1.758901 -1.152768 0
M  V30 10 C 2.995866 -1.357626 -1.270214 0
M  V30 11 N 2.418081 -1.285830 -2.554515 0
M  V30 12 C 1.113356 -0.834491 -2.888303 0
M  V30 13 C 0.282256 -1.760363 -3.488063 0
M  V30 14 C -0.984522 -1.319003 -3.816928 0
M  V30 15 C -1.395847 -0.030153 -3.561160 0
M  V30 16 C -2.702767 0.548120 -3.860283 0
M  V30 17 O -2.912534 1.532748 -4.647033 0
M  V30 18 N -3.942135 0.076179 -3.297771 0
M  V30 19 C -5.138681 0.779034 -3.709177 0
M  V30 20 C -6.189551 -0.260139 -4.032711 0
M  V30 21 S -5.417725 -1.828303 -4.440100 0
M  V30 22 O -4.562137 -1.717906 -5.653643 0
M  V30 23 O -6.509262 -2.806736 -4.722176 0
M  V30 24 C -4.435488 -2.294088 -3.032345 0
M  V30 25 C -3.942414 -1.040926 -2.376902 0
M  V30 26 C -0.537882 0.889287 -2.953939 0
M  V30 27 C 0.748902 0.485133 -2.606713 0
M  V30 28 Cl 1.835788 1.633400 -1.862031 0
M  V30 29 C 2.329144 -1.047976 -0.123511 0
M  V30 30 C 2.883080 -1.122661 1.134645 0
M  V30 31 N 2.510257 -0.899647 2.405786 0
M  V30 32 C 1.232946 -0.459081 2.648290 0
M  V30 33 O 0.295560 -0.206299 1.864895 0
M  V30 34 O 0.106424 -0.044115 3.225278 0
M  V30 35 C -1.123258 0.327144 2.689887 0
M  V30 36 C -1.012425 1.494635 1.732021 0
M  V30 37 C -1.936596 0.869939 3.892384 0
M  V30 38 C -1.958087 -0.767680 2.116857 0
M  V30 39 C 2.569066 -0.650581 5.695262 0
M  V30 40 N 3.118500 -0.726368 6.928552 0
M  V30 41 H 6.162396 -1.858045 7.599403 0
M  V30 42 H 5.529340 -0.300473 8.317889 0
M  V30 43 H 4.769243 -1.909889 8.779018 0
M  V30 44 H 5.600387 -1.665211 5.223987 0
M  V30 45 H 5.562421 -1.843751 2.890634 0
M  V30 46 H 5.908991 -2.178720 0.166975 0
M  V30 47 H 2.942217 -1.577567 -3.411885 0
M  V30 48 H 0.585558 -2.768021 -3.696368 0
M  V30 49 H -1.708020 -1.957645 -4.286650 0
M  V30 50 H -4.962341 1.476865 -4.527236 0
M  V30 51 H -5.477436 1.341323 -2.798340 0
M  V30 52 H -6.814811 -0.475753 -3.139688 0
M  V30 53 H -6.842919 0.092135 -4.831953 0
M  V30 54 H -5.137832 -2.840340 -2.336030 0
M  V30 55 H -3.630748 -3.001332 -3.297662 0
M  V30 56 H -2.951454 -1.171710 -1.887648 0
M  V30 57 H -4.631413 -0.807495 -1.526790 0
M  V30 58 H -0.803082 1.908134 -2.728400 0
M  V30 59 H 1.304689 -0.729899 -0.163308 0
M  V30 60 H -1.130502 1.181575 0.671421 0
M  V30 61 H -1.862168 2.187473 1.923609 0
M  V30 62 H -0.099332 2.082292 1.925616 0
M  V30 63 H -1.296526 1.576362 4.457421 0
M  V30 64 H -2.282337 -0.001317 4.461055 0
M  V30 65 H -2.817279 1.386137 3.476310 0
M  V30 66 H -1.624974 -1.216586 1.183001 0
M  V30 67 H -2.989765 -0.362208 1.994870 0
M  V30 68 H -2.080252 -1.549638 2.924830 0
M  V30 69 H 1.566986 -0.345656 5.471131 0
M  V30 END ATOM
M  V30 BEGIN BOND
M  V30 1 1 1 2
M  V30 2 1 2 3
M  V30 3 2 3 4
M  V30 4 1 4 5
M  V30 5 2 5 6
M  V30 6 1 6 7
M  V30 7 2 7 8
M  V30 8 1 8 9
M  V30 9 2 9 10
M  V30 10 1 10 11
M  V30 11 1 11 12
M  V30 12 2 12 13
M  V30 13 1 13 14
M  V30 14 2 14 15
M  V30 15 1 15 16
M  V30 16 2 16 17
M  V30 17 1 16 18
M  V30 18 1 18 19
M  V30 19 1 19 20
M  V30 20 1 20 21
M  V30 21 2 21 22
M  V30 22 2 21 23
M  V30 23 1 21 24
M  V30 24 1 24 25
M  V30 25 1 15 26
M  V30 26 2 26 27
M  V30 27 1 27 28
M  V30 28 1 10 29
M  V30 29 2 29 30
M  V30 30 1 30 31
M  V30 31 1 31 32
M  V30 32 2 32 33
M  V30 33 1 32 34
M  V30 34 1 34 35
M  V30 35 1 35 36
M  V30 36 1 35 37
M  V30 37 1 35 38
M  V30 38 1 4 39
M  V30 39 2 39 40
M  V30 40 1 40 2
M  V30 41 1 31 5
M  V30 42 1 30 7
M  V30 43 1 27 12
M  V30 44 1 25 18
M  V30 45 1 1 41
M  V30 46 1 1 42
M  V30 47 1 1 43
M  V30 48 1 3 44
M  V30 49 1 6 45
M  V30 50 1 8 46
M  V30 51 1 11 47
M  V30 52 1 13 48
M  V30 53 1 14 49
M  V30 54 1 19 50
M  V30 55 1 19 51
M  V30 56 1 20 52
M  V30 57 1 20 53
M  V30 58 1 24 54
M  V30 59 1 24 55
M  V30 60 1 25 56
M  V30 61 1 25 57
M  V30 62 1 26 58
M  V30 63 1 29 59
M  V30 64 1 36 60
M  V30 65 1 36 61
M  V30 66 1 36 62
M  V30 67 1 37 63
M  V30 68 1 37 64
M  V30 69 1 37 65
M  V30 70 1 38 66
M  V30 71 1 38 67
M  V30 72 1 38 68
M  V30 73 1 39 69
M  V30 END BOND
M  V30 END CTAB
M  END
>  <Dataset>  (955) 
ChEMBL_Kinases

>  <Ligand_Instance>  (955) 
nan

>  <PDB_ID>  (955) 
nan

>  <Standardized_SMILES>  (955) 
Cn1cc(-c2cc3cnc(Nc4ccc(C(=O)N5CCS(=O)(=O)CC5)cc4Cl)cc3n2C(=O)OC(C)(C)C)cn1

>  <Name>  (955) 
nan

>  <Pocket>  (955) 
nan

>  <ATP_Site>  (955) 
nan

>  <Peripheral>  (955) 
nan

>  <Num_H_Atoms_ProtBoundConf>  (955) 
nan

>  <Num_Resolved_Atoms>  (955) 
nan

>  <Num_Not_Resolved_Atoms>  (955) 
nan

$$$$
CHEMBL3109940
     RDKit          3D

  0  0  0  0  0  0  0  0  0  0999 V3000
M  V30 BEGIN CTAB
M  V30 COUNTS 58 61 0 0 0
M  V30 BEGIN ATOM
M  V30 1 C 4.569274 -2.610278 4.608733 0
M  V30 2 N 4.071769 -1.725243 3.580425 0
M  V30 3 C 2.625964 -1.796306 3.621065 0
M  V30 4 C 4.927956 -0.953429 2.721847 0
M  V30 5 O 6.144988 -1.141407 2.973172 0
M  V30 6 C 4.139456 -0.169388 1.800379 0
M  V30 7 C 3.913284 -0.534397 0.490989 0
M  V30 8 C 3.130562 0.303089 -0.312539 0
M  V30 9 C 2.588575 1.486042 0.201724 0
M  V30 10 N 1.842588 2.112993 -0.836184 0
M  V30 11 C 0.482609 2.246538 -0.443460 0
M  V30 12 C -0.268916 1.085824 -0.664010 0
M  V30 13 C -1.617329 1.034135 -0.345765 0
M  V30 14 C -2.125588 2.194227 0.187876 0
M  V30 15 C -1.413061 3.359379 0.419587 0
M  V30 16 N -0.118499 3.335497 0.088819 0
M  V30 17 C -3.462976 1.985447 0.448401 0
M  V30 18 C -3.780554 0.673989 0.068141 0
M  V30 19 C -5.091126 0.041853 0.174280 0
M  V30 20 C -6.218548 0.691294 0.687775 0
M  V30 21 N -7.270999 -0.144973 0.655551 0
M  V30 22 C -6.808013 -1.295371 0.130926 0
M  V30 23 O -5.535194 -1.149583 -0.136925 0
M  V30 24 N -2.634293 0.155815 -0.399164 0
M  V30 25 C -2.433967 -1.153069 -0.902026 0
M  V30 26 O -3.263072 -2.087430 -1.022765 0
M  V30 27 O -1.245824 -1.658764 -1.368118 0
M  V30 28 C -1.005627 -2.939939 -1.868527 0
M  V30 29 C -1.290139 -4.037654 -0.867086 0
M  V30 30 C -1.777774 -3.226943 -3.160073 0
M  V30 31 C 0.481374 -3.031834 -2.179467 0
M  V30 32 C 2.832400 1.823120 1.514082 0
M  V30 33 Cl 2.073108 3.333186 1.957956 0
M  V30 34 C 3.602727 0.996847 2.300807 0
M  V30 35 H 4.139974 -3.634575 4.542517 0
M  V30 36 H 5.663559 -2.666723 4.630123 0
M  V30 37 H 4.257024 -2.215340 5.607378 0
M  V30 38 H 2.225370 -1.036295 2.913128 0
M  V30 39 H 2.242584 -1.558737 4.651888 0
M  V30 40 H 2.236468 -2.804843 3.379658 0
M  V30 41 H 4.363459 -1.450383 0.178318 0
M  V30 42 H 3.046034 -0.117504 -1.312344 0
M  V30 43 H 2.298572 2.402742 -1.722713 0
M  V30 44 H 0.159603 0.176551 -1.091316 0
M  V30 45 H -1.847268 4.253128 0.840990 0
M  V30 46 H -4.180342 2.675025 0.869273 0
M  V30 47 H -6.300018 1.712115 1.069609 0
M  V30 48 H -7.223489 -2.268276 -0.110829 0
M  V30 49 H -0.804150 -4.969310 -1.272528 0
M  V30 50 H -0.774908 -3.785009 0.082592 0
M  V30 51 H -2.367021 -4.198427 -0.688174 0
M  V30 52 H -2.511021 -4.029375 -2.964626 0
M  V30 53 H -2.239543 -2.281673 -3.481861 0
M  V30 54 H -1.063353 -3.545680 -3.969029 0
M  V30 55 H 0.959876 -2.052115 -2.283567 0
M  V30 56 H 0.643712 -3.656503 -3.076411 0
M  V30 57 H 1.031037 -3.564933 -1.356967 0
M  V30 58 H 3.723317 1.375024 3.325729 0
M  V30 END ATOM
M  V30 BEGIN BOND
M  V30 1 1 1 2
M  V30 2 1 2 3
M  V30 3 1 2 4
M  V30 4 2 4 5
M  V30 5 1 4 6
M  V30 6 2 6 7
M  V30 7 1 7 8
M  V30 8 2 8 9
M  V30 9 1 9 10
M  V30 10 1 10 11
M  V30 11 2 11 12
M  V30 12 1 12 13
M  V30 13 2 13 14
M  V30 14 1 14 15
M  V30 15 2 15 16
M  V30 16 1 14 17
M  V30 17 2 17 18
M  V30 18 1 18 19
M  V30 19 2 19 20
M  V30 20 1 20 21
M  V30 21 2 21 22
M  V30 22 1 22 23
M  V30 23 1 18 24
M  V30 24 1 24 25
M  V30 25 2 25 26
M  V30 26 1 25 27
M  V30 27 1 27 28
M  V30 28 1 28 29
M  V30 29 1 28 30
M  V30 30 1 28 31
M  V30 31 1 9 32
M  V30 32 1 32 33
M  V30 33 2 32 34
M  V30 34 1 34 6
M  V30 35 1 16 11
M  V30 36 1 23 19
M  V30 37 1 24 13
M  V30 38 1 1 35
M  V30 39 1 1 36
M  V30 40 1 1 37
M  V30 41 1 3 38
M  V30 42 1 3 39
M  V30 43 1 3 40
M  V30 44 1 7 41
M  V30 45 1 8 42
M  V30 46 1 10 43
M  V30 47 1 12 44
M  V30 48 1 15 45
M  V30 49 1 17 46
M  V30 50 1 20 47
M  V30 51 1 22 48
M  V30 52 1 29 49
M  V30 53 1 29 50
M  V30 54 1 29 51
M  V30 55 1 30 52
M  V30 56 1 30 53
M  V30 57 1 30 54
M  V30 58 1 31 55
M  V30 59 1 31 56
M  V30 60 1 31 57
M  V30 61 1 34 58
M  V30 END BOND
M  V30 END CTAB
M  END
>  <Dataset>  (956) 
ChEMBL_Kinases

>  <Ligand_Instance>  (956) 
nan

>  <PDB_ID>  (956) 
nan

>  <Standardized_SMILES>  (956) 
CN(C)C(=O)c1ccc(Nc2cc3c(cn2)cc(-c2cnco2)n3C(=O)OC(C)(C)C)c(Cl)c1

>  <Name>  (956) 
nan

>  <Pocket>  (956) 
nan

>  <ATP_Site>  (956) 
nan

>  <Peripheral>  (956) 
nan

>  <Num_H_Atoms_ProtBoundConf>  (956) 
nan

>  <Num_Resolved_Atoms>  (956) 
nan

>  <Num_Not_Resolved_Atoms>  (956) 
nan

$$$$
CHEMBL3109941
     RDKit          3D

  0  0  0  0  0  0  0  0  0  0999 V3000
M  V30 BEGIN CTAB
M  V30 COUNTS 62 66 0 0 0
M  V30 BEGIN ATOM
M  V30 1 C 3.786499 -3.644869 5.813556 0
M  V30 2 N 3.889513 -2.313263 5.269048 0
M  V30 3 C 3.571089 -1.960281 4.013684 0
M  V30 4 C 3.823682 -0.586332 3.923284 0
M  V30 5 C 3.547211 0.050122 2.630584 0
M  V30 6 C 3.707918 -0.654867 1.442274 0
M  V30 7 C 3.411111 -0.004824 0.240525 0
M  V30 8 C 2.963236 1.320428 0.215974 0
M  V30 9 N 2.730621 1.676723 -1.161691 0
M  V30 10 C 1.323232 1.983866 -1.151989 0
M  V30 11 C 0.495006 0.859693 -1.119334 0
M  V30 12 C -0.879181 0.955817 -1.103877 0
M  V30 13 C -1.369433 2.232316 -1.123158 0
M  V30 14 C -0.584146 3.367250 -1.156665 0
M  V30 15 N 0.747638 3.196610 -1.169540 0
M  V30 16 C -2.746143 2.137053 -1.095567 0
M  V30 17 C -3.122951 0.813572 -1.058310 0
M  V30 18 C -4.477391 0.287763 -1.003573 0
M  V30 19 C -4.982819 -0.987970 -0.969858 0
M  V30 20 N -6.343087 -0.946411 -0.910663 0
M  V30 21 N -6.733678 0.321490 -0.905096 0
M  V30 22 C -8.073565 0.904971 -0.850662 0
M  V30 23 C -5.611754 1.070359 -0.961518 0
M  V30 24 N -1.956929 0.168758 -1.066590 0
M  V30 25 C -1.714720 -1.199088 -1.053536 0
M  V30 26 O -0.660603 -1.869562 -1.050456 0
M  V30 27 O -1.803590 -2.529350 -1.040361 0
M  V30 28 C -0.746958 -3.457330 -1.036059 0
M  V30 29 C 0.165036 -3.362218 -2.231411 0
M  V30 30 C 0.122825 -3.353743 0.200920 0
M  V30 31 C -1.332557 -4.861615 -1.026712 0
M  V30 32 C 2.811337 2.003700 1.398981 0
M  V30 33 Cl 2.262234 3.625471 1.197260 0
M  V30 34 C 3.105826 1.352372 2.573570 0
M  V30 35 C 4.288458 -0.160052 5.136210 0
M  V30 36 N 4.304423 -1.247189 5.901392 0
M  V30 37 H 4.227290 -4.408555 5.127477 0
M  V30 38 H 2.716688 -3.884354 5.931503 0
M  V30 39 H 4.296568 -3.681828 6.795742 0
M  V30 40 H 3.192688 -2.677309 3.268991 0
M  V30 41 H 4.055112 -1.668541 1.536262 0
M  V30 42 H 3.588710 -0.688400 -0.598402 0
M  V30 43 H 3.547061 1.643320 -1.810006 0
M  V30 44 H 0.912121 -0.153999 -1.103991 0
M  V30 45 H -1.048757 4.336880 -1.170456 0
M  V30 46 H -3.472154 2.966787 -1.101436 0
M  V30 47 H -4.402905 -1.890814 -0.986542 0
M  V30 48 H -8.732177 0.182382 -0.338066 0
M  V30 49 H -8.479477 1.057716 -1.872078 0
M  V30 50 H -8.033010 1.896534 -0.362135 0
M  V30 51 H -5.595956 2.164473 -0.974269 0
M  V30 52 H 0.362658 -4.393694 -2.654099 0
M  V30 53 H -0.246200 -2.802463 -3.083573 0
M  V30 54 H 1.181700 -3.018575 -1.927157 0
M  V30 55 H -0.357243 -2.823336 1.038153 0
M  V30 56 H 1.140246 -2.933379 -0.030921 0
M  V30 57 H 0.363860 -4.377240 0.613458 0
M  V30 58 H -1.333372 -5.300740 -2.043979 0
M  V30 59 H -2.372373 -4.889923 -0.631894 0
M  V30 60 H -0.727697 -5.519355 -0.379597 0
M  V30 61 H 2.957298 1.968103 3.468512 0
M  V30 62 H 4.540746 0.884695 5.261572 0
M  V30 END ATOM
M  V30 BEGIN BOND
M  V30 1 1 1 2
M  V30 2 1 2 3
M  V30 3 2 3 4
M  V30 4 1 4 5
M  V30 5 2 5 6
M  V30 6 1 6 7
M  V30 7 2 7 8
M  V30 8 1 8 9
M  V30 9 1 9 10
M  V30 10 2 10 11
M  V30 11 1 11 12
M  V30 12 2 12 13
M  V30 13 1 13 14
M  V30 14 2 14 15
M  V30 15 1 13 16
M  V30 16 2 16 17
M  V30 17 1 17 18
M  V30 18 1 18 19
M  V30 19 2 19 20
M  V30 20 1 20 21
M  V30 21 1 21 22
M  V30 22 1 21 23
M  V30 23 1 17 24
M  V30 24 1 24 25
M  V30 25 2 25 26
M  V30 26 1 25 27
M  V30 27 1 27 28
M  V30 28 1 28 29
M  V30 29 1 28 30
M  V30 30 1 28 31
M  V30 31 1 8 32
M  V30 32 1 32 33
M  V30 33 2 32 34
M  V30 34 1 4 35
M  V30 35 2 35 36
M  V30 36 1 36 2
M  V30 37 1 34 5
M  V30 38 1 15 10
M  V30 39 2 23 18
M  V30 40 1 24 12
M  V30 41 1 1 37
M  V30 42 1 1 38
M  V30 43 1 1 39
M  V30 44 1 3 40
M  V30 45 1 6 41
M  V30 46 1 7 42
M  V30 47 1 9 43
M  V30 48 1 11 44
M  V30 49 1 14 45
M  V30 50 1 16 46
M  V30 51 1 19 47
M  V30 52 1 22 48
M  V30 53 1 22 49
M  V30 54 1 22 50
M  V30 55 1 23 51
M  V30 56 1 29 52
M  V30 57 1 29 53
M  V30 58 1 29 54
M  V30 59 1 30 55
M  V30 60 1 30 56
M  V30 61 1 30 57
M  V30 62 1 31 58
M  V30 63 1 31 59
M  V30 64 1 31 60
M  V30 65 1 34 61
M  V30 66 1 35 62
M  V30 END BOND
M  V30 END CTAB
M  END
>  <Dataset>  (957) 
ChEMBL_Kinases

>  <Ligand_Instance>  (957) 
nan

>  <PDB_ID>  (957) 
nan

>  <Standardized_SMILES>  (957) 
Cn1cc(-c2ccc(Nc3cc4c(cn3)cc(-c3cnn(C)c3)n4C(=O)OC(C)(C)C)c(Cl)c2)cn1

>  <Name>  (957) 
nan

>  <Pocket>  (957) 
nan

>  <ATP_Site>  (957) 
nan

>  <Peripheral>  (957) 
nan

>  <Num_H_Atoms_ProtBoundConf>  (957) 
nan

>  <Num_Resolved_Atoms>  (957) 
nan

>  <Num_Not_Resolved_Atoms>  (957) 
nan

$$$$
CHEMBL3109942
     RDKit          3D

  0  0  0  0  0  0  0  0  0  0999 V3000
M  V30 BEGIN CTAB
M  V30 COUNTS 47 51 0 0 0
M  V30 BEGIN ATOM
M  V30 1 C -0.788755 -7.187295 2.589538 0
M  V30 2 N 0.429970 -6.564665 2.061494 0
M  V30 3 C 0.336550 -5.462969 1.286094 0
M  V30 4 C 1.617960 -5.044268 0.905671 0
M  V30 5 C 1.872012 -3.884700 0.076662 0
M  V30 6 C 3.037967 -3.122265 0.230404 0
M  V30 7 C 3.214251 -2.015180 -0.575219 0
M  V30 8 C 2.293277 -1.627965 -1.523259 0
M  V30 9 N 2.706587 -0.425227 -2.199823 0
M  V30 10 C 1.614379 0.459853 -1.865673 0
M  V30 11 C 1.476995 0.842124 -0.534116 0
M  V30 12 C 0.492839 1.692182 -0.007375 0
M  V30 13 N 0.277726 2.110020 1.246642 0
M  V30 14 C -0.800851 2.894533 1.141729 0
M  V30 15 C -1.430756 3.592502 2.252749 0
M  V30 16 C -1.007776 3.564040 3.588926 0
M  V30 17 N -1.836216 4.324354 4.317738 0
M  V30 18 N -2.795158 4.865718 3.552700 0
M  V30 19 C -3.910548 5.745568 3.836206 0
M  V30 20 C -2.530986 4.411579 2.316014 0
M  V30 21 C -1.249597 2.962495 -0.165142 0
M  V30 22 C -0.408935 2.177284 -0.928924 0
M  V30 23 C -0.273962 1.799316 -2.255370 0
M  V30 24 N 0.683552 0.982163 -2.719037 0
M  V30 25 C 1.155880 -2.369167 -1.678107 0
M  V30 26 Cl 0.057059 -1.811610 -2.907078 0
M  V30 27 C 0.957415 -3.488149 -0.877163 0
M  V30 28 C 2.417977 -5.994326 1.526105 0
M  V30 29 N 1.697493 -6.893587 2.211658 0
M  V30 30 H -1.279266 -6.397247 3.225177 0
M  V30 31 H -1.477079 -7.391184 1.771223 0
M  V30 32 H -0.484279 -8.059876 3.178536 0
M  V30 33 H -0.575952 -4.939176 0.975909 0
M  V30 34 H 3.740733 -3.455219 0.982735 0
M  V30 35 H 4.158030 -1.501818 -0.364591 0
M  V30 36 H 3.564182 -0.240972 -2.776197 0
M  V30 37 H 2.198850 0.447061 0.169187 0
M  V30 38 H 0.843901 1.858575 2.084933 0
M  V30 39 H -0.146627 3.014549 3.965295 0
M  V30 40 H -4.827642 5.185546 3.490812 0
M  V30 41 H -3.969281 5.859530 4.945800 0
M  V30 42 H -3.815967 6.743100 3.356475 0
M  V30 43 H -3.098800 4.635813 1.413680 0
M  V30 44 H -2.099054 3.511252 -0.586134 0
M  V30 45 H -0.984272 2.188018 -2.953434 0
M  V30 46 H 0.037658 -4.032928 -1.051227 0
M  V30 47 H 3.498602 -5.901654 1.389372 0
M  V30 END ATOM
M  V30 BEGIN BOND
M  V30 1 1 1 2
M  V30 2 1 2 3
M  V30 3 2 3 4
M  V30 4 1 4 5
M  V30 5 2 5 6
M  V30 6 1 6 7
M  V30 7 2 7 8
M  V30 8 1 8 9
M  V30 9 1 9 10
M  V30 10 2 10 11
M  V30 11 1 11 12
M  V30 12 1 12 13
M  V30 13 1 13 14
M  V30 14 1 14 15
M  V30 15 1 15 16
M  V30 16 2 16 17
M  V30 17 1 17 18
M  V30 18 1 18 19
M  V30 19 1 18 20
M  V30 20 2 14 21
M  V30 21 1 21 22
M  V30 22 1 22 23
M  V30 23 2 23 24
M  V30 24 1 8 25
M  V30 25 1 25 26
M  V30 26 2 25 27
M  V30 27 1 4 28
M  V30 28 2 28 29
M  V30 29 1 29 2
M  V30 30 1 27 5
M  V30 31 1 24 10
M  V30 32 2 22 12
M  V30 33 2 20 15
M  V30 34 1 1 30
M  V30 35 1 1 31
M  V30 36 1 1 32
M  V30 37 1 3 33
M  V30 38 1 6 34
M  V30 39 1 7 35
M  V30 40 1 9 36
M  V30 41 1 11 37
M  V30 42 1 13 38
M  V30 43 1 16 39
M  V30 44 1 19 40
M  V30 45 1 19 41
M  V30 46 1 19 42
M  V30 47 1 20 43
M  V30 48 1 21 44
M  V30 49 1 23 45
M  V30 50 1 27 46
M  V30 51 1 28 47
M  V30 END BOND
M  V30 END CTAB
M  END
>  <Dataset>  (958) 
ChEMBL_Kinases

>  <Ligand_Instance>  (958) 
nan

>  <PDB_ID>  (958) 
nan

>  <Standardized_SMILES>  (958) 
Cn1cc(-c2ccc(Nc3cc4[nH]c(-c5cnn(C)c5)cc4cn3)c(Cl)c2)cn1

>  <Name>  (958) 
nan

>  <Pocket>  (958) 
nan

>  <ATP_Site>  (958) 
nan

>  <Peripheral>  (958) 
nan

>  <Num_H_Atoms_ProtBoundConf>  (958) 
nan

>  <Num_Resolved_Atoms>  (958) 
nan

>  <Num_Not_Resolved_Atoms>  (958) 
nan

$$$$
CHEMBL3109943
     RDKit          3D

  0  0  0  0  0  0  0  0  0  0999 V3000
M  V30 BEGIN CTAB
M  V30 COUNTS 62 66 0 0 0
M  V30 BEGIN ATOM
M  V30 1 C 6.560514 -5.617805 2.675737 0
M  V30 2 N 6.312978 -4.617106 1.639530 0
M  V30 3 C 5.104370 -4.110280 1.591127 0
M  V30 4 C 4.677104 -3.153976 0.667384 0
M  V30 5 C 3.946739 -2.243575 -0.111422 0
M  V30 6 C 4.142328 -1.359311 -1.141168 0
M  V30 7 C 2.945773 -0.830445 -1.476589 0
M  V30 8 C 2.808840 0.111163 -2.474444 0
M  V30 9 N 1.537977 0.572193 -2.682242 0
M  V30 10 C 0.521907 0.104231 -1.933172 0
M  V30 11 N -0.672995 0.751826 -2.322463 0
M  V30 12 C -1.848307 1.343761 -1.779125 0
M  V30 13 C -3.185201 1.097609 -1.918593 0
M  V30 14 C -4.105979 1.885333 -1.256539 0
M  V30 15 C -3.615143 2.890937 -0.476701 0
M  V30 16 C -4.624387 3.726130 0.179109 0
M  V30 17 C -4.381472 4.799886 0.984305 0
M  V30 18 C -5.549698 5.382095 1.419885 0
M  V30 19 N -6.516686 4.636366 0.860183 0
M  V30 20 C -7.978678 4.797967 0.963727 0
M  V30 21 N -5.980551 3.669288 0.137062 0
M  V30 22 C -2.284333 3.224634 -0.265266 0
M  V30 23 C -1.390128 2.394787 -0.960417 0
M  V30 24 Cl 0.295622 2.857601 -0.640071 0
M  V30 25 C 0.703031 -0.836039 -0.950360 0
M  V30 26 C 1.957628 -1.341387 -0.691609 0
M  V30 27 N 2.607213 -2.201200 0.128388 0
M  V30 28 C 1.748063 -2.908243 1.001444 0
M  V30 29 O 1.593391 -3.697964 1.931873 0
M  V30 30 O 0.406713 -2.939836 1.089351 0
M  V30 31 C -0.475098 -3.613484 1.905688 0
M  V30 32 C -1.879602 -3.204726 1.397582 0
M  V30 33 C -0.384872 -5.109714 1.670083 0
M  V30 34 C -0.407645 -3.250060 3.377606 0
M  V30 35 C 6.030914 -3.181344 0.102646 0
M  V30 36 N 6.958187 -4.002216 0.644208 0
M  V30 37 H 5.727612 -6.315844 2.778978 0
M  V30 38 H 6.712286 -5.050399 3.632800 0
M  V30 39 H 7.521193 -6.125805 2.446519 0
M  V30 40 H 4.179637 -4.253649 2.180694 0
M  V30 41 H 5.156553 -1.194841 -1.543112 0
M  V30 42 H 3.626504 0.493446 -3.079856 0
M  V30 43 H -0.941154 0.919466 -3.328146 0
M  V30 44 H -3.349499 0.260973 -2.579483 0
M  V30 45 H -5.131109 1.653363 -1.413889 0
M  V30 46 H -3.451587 5.237808 1.307538 0
M  V30 47 H -5.808778 6.224225 2.046251 0
M  V30 48 H -8.147197 5.915863 0.964687 0
M  V30 49 H -8.395141 4.369673 1.872427 0
M  V30 50 H -8.474063 4.387213 0.070209 0
M  V30 51 H -2.018312 4.050200 0.383312 0
M  V30 52 H -0.114524 -1.197072 -0.367950 0
M  V30 53 H -2.316557 -4.031536 0.777215 0
M  V30 54 H -1.838788 -2.328508 0.745180 0
M  V30 55 H -2.546417 -3.062694 2.261701 0
M  V30 56 H 0.423401 -5.607585 2.234121 0
M  V30 57 H -1.367277 -5.593914 1.899134 0
M  V30 58 H -0.126105 -5.254004 0.598672 0
M  V30 59 H 0.189130 -4.037366 3.904015 0
M  V30 60 H -1.455389 -3.372563 3.750487 0
M  V30 61 H -0.055989 -2.243687 3.575743 0
M  V30 62 H 6.621870 -2.692096 -0.720280 0
M  V30 END ATOM
M  V30 BEGIN BOND
M  V30 1 1 1 2
M  V30 2 1 2 3
M  V30 3 2 3 4
M  V30 4 1 4 5
M  V30 5 2 5 6
M  V30 6 1 6 7
M  V30 7 2 7 8
M  V30 8 1 8 9
M  V30 9 2 9 10
M  V30 10 1 10 11
M  V30 11 1 11 12
M  V30 12 2 12 13
M  V30 13 1 13 14
M  V30 14 2 14 15
M  V30 15 1 15 16
M  V30 16 1 16 17
M  V30 17 2 17 18
M  V30 18 1 18 19
M  V30 19 1 19 20
M  V30 20 1 19 21
M  V30 21 1 15 22
M  V30 22 2 22 23
M  V30 23 1 23 24
M  V30 24 1 10 25
M  V30 25 2 25 26
M  V30 26 1 26 27
M  V30 27 1 27 28
M  V30 28 2 28 29
M  V30 29 1 28 30
M  V30 30 1 30 31
M  V30 31 1 31 32
M  V30 32 1 31 33
M  V30 33 1 31 34
M  V30 34 1 4 35
M  V30 35 2 35 36
M  V30 36 1 36 2
M  V30 37 1 27 5
M  V30 38 1 26 7
M  V30 39 1 23 12
M  V30 40 2 21 16
M  V30 41 1 1 37
M  V30 42 1 1 38
M  V30 43 1 1 39
M  V30 44 1 3 40
M  V30 45 1 6 41
M  V30 46 1 8 42
M  V30 47 1 11 43
M  V30 48 1 13 44
M  V30 49 1 14 45
M  V30 50 1 17 46
M  V30 51 1 18 47
M  V30 52 1 20 48
M  V30 53 1 20 49
M  V30 54 1 20 50
M  V30 55 1 22 51
M  V30 56 1 25 52
M  V30 57 1 32 53
M  V30 58 1 32 54
M  V30 59 1 32 55
M  V30 60 1 33 56
M  V30 61 1 33 57
M  V30 62 1 33 58
M  V30 63 1 34 59
M  V30 64 1 34 60
M  V30 65 1 34 61
M  V30 66 1 35 62
M  V30 END BOND
M  V30 END CTAB
M  END
>  <Dataset>  (959) 
ChEMBL_Kinases

>  <Ligand_Instance>  (959) 
nan

>  <PDB_ID>  (959) 
nan

>  <Standardized_SMILES>  (959) 
Cn1cc(-c2cc3cnc(Nc4ccc(-c5ccn(C)n5)cc4Cl)cc3n2C(=O)OC(C)(C)C)cn1

>  <Name>  (959) 
nan

>  <Pocket>  (959) 
nan

>  <ATP_Site>  (959) 
nan

>  <Peripheral>  (959) 
nan

>  <Num_H_Atoms_ProtBoundConf>  (959) 
nan

>  <Num_Resolved_Atoms>  (959) 
nan

>  <Num_Not_Resolved_Atoms>  (959) 
nan

$$$$
CHEMBL3109944
     RDKit          3D

  0  0  0  0  0  0  0  0  0  0999 V3000
M  V30 BEGIN CTAB
M  V30 COUNTS 58 62 0 0 0
M  V30 BEGIN ATOM
M  V30 1 C 3.188852 -6.092962 4.538967 0
M  V30 2 N 3.491658 -4.756674 4.037182 0
M  V30 3 C 2.690745 -4.194444 3.078785 0
M  V30 4 C 3.245616 -2.943320 2.827401 0
M  V30 5 C 2.779213 -1.943700 1.887926 0
M  V30 6 C 3.372365 -0.718286 1.679489 0
M  V30 7 C 2.722572 0.046825 0.732821 0
M  V30 8 C 2.999316 1.325052 0.237569 0
M  V30 9 N 2.136014 1.759332 -0.698466 0
M  V30 10 C 1.095504 0.994528 -1.103715 0
M  V30 11 N 0.293180 1.610539 -2.102243 0
M  V30 12 C -0.735834 2.547079 -1.797544 0
M  V30 13 C -0.953213 2.869323 -0.473476 0
M  V30 14 C -1.934980 3.779621 -0.151322 0
M  V30 15 C -2.690410 4.357889 -1.178818 0
M  V30 16 C -3.740378 5.333913 -0.891699 0
M  V30 17 C -4.113911 5.797788 0.338436 0
M  V30 18 N -5.113801 6.683894 0.187728 0
M  V30 19 C -5.343594 6.753657 -1.140972 0
M  V30 20 O -4.495523 5.925759 -1.750899 0
M  V30 21 C -2.441561 4.006115 -2.512067 0
M  V30 22 C -1.445088 3.079984 -2.854566 0
M  V30 23 Cl -1.170901 2.672618 -4.526632 0
M  V30 24 C 0.816286 -0.264041 -0.621811 0
M  V30 25 C 1.675558 -0.754568 0.341740 0
M  V30 26 N 1.747083 -1.902542 1.038142 0
M  V30 27 C 0.875083 -3.013246 0.942076 0
M  V30 28 O -0.116541 -3.564947 0.442886 0
M  V30 29 O -0.207403 -3.117318 0.121806 0
M  V30 30 C -1.104188 -4.171903 -0.022191 0
M  V30 31 C -1.862273 -4.545296 1.217134 0
M  V30 32 C -0.383257 -5.347452 -0.635069 0
M  V30 33 C -2.127970 -3.718999 -1.071104 0
M  V30 34 C 4.344809 -2.833828 3.651399 0
M  V30 35 N 4.477188 -3.950567 4.381161 0
M  V30 36 H 3.109540 -6.792451 3.699638 0
M  V30 37 H 2.254984 -6.048038 5.132929 0
M  V30 38 H 4.015313 -6.385208 5.237862 0
M  V30 39 H 1.818009 -4.581357 2.592233 0
M  V30 40 H 4.265243 -0.363161 2.196424 0
M  V30 41 H 3.860400 1.876597 0.617985 0
M  V30 42 H 0.517200 1.321707 -3.080927 0
M  V30 43 H -0.338991 2.394311 0.300153 0
M  V30 44 H -2.120896 4.045776 0.879506 0
M  V30 45 H -3.663527 5.488661 1.266512 0
M  V30 46 H -6.011377 7.287422 -1.802427 0
M  V30 47 H -2.992603 4.419871 -3.333515 0
M  V30 48 H -0.020100 -0.853054 -0.960719 0
M  V30 49 H -2.094935 -3.640866 1.801618 0
M  V30 50 H -1.339506 -5.290608 1.833387 0
M  V30 51 H -2.857426 -4.973489 0.920214 0
M  V30 52 H 0.323134 -4.951160 -1.385976 0
M  V30 53 H 0.190929 -5.881738 0.132643 0
M  V30 54 H -1.137582 -5.995619 -1.140278 0
M  V30 55 H -2.586344 -2.795324 -0.683311 0
M  V30 56 H -1.594113 -3.492823 -2.026454 0
M  V30 57 H -2.869310 -4.528344 -1.216362 0
M  V30 58 H 5.046348 -2.008779 3.756075 0
M  V30 END ATOM
M  V30 BEGIN BOND
M  V30 1 1 1 2
M  V30 2 1 2 3
M  V30 3 2 3 4
M  V30 4 1 4 5
M  V30 5 2 5 6
M  V30 6 1 6 7
M  V30 7 2 7 8
M  V30 8 1 8 9
M  V30 9 2 9 10
M  V30 10 1 10 11
M  V30 11 1 11 12
M  V30 12 2 12 13
M  V30 13 1 13 14
M  V30 14 2 14 15
M  V30 15 1 15 16
M  V30 16 2 16 17
M  V30 17 1 17 18
M  V30 18 2 18 19
M  V30 19 1 19 20
M  V30 20 1 15 21
M  V30 21 2 21 22
M  V30 22 1 22 23
M  V30 23 1 10 24
M  V30 24 2 24 25
M  V30 25 1 25 26
M  V30 26 1 26 27
M  V30 27 2 27 28
M  V30 28 1 27 29
M  V30 29 1 29 30
M  V30 30 1 30 31
M  V30 31 1 30 32
M  V30 32 1 30 33
M  V30 33 1 4 34
M  V30 34 2 34 35
M  V30 35 1 35 2
M  V30 36 1 26 5
M  V30 37 1 25 7
M  V30 38 1 22 12
M  V30 39 1 20 16
M  V30 40 1 1 36
M  V30 41 1 1 37
M  V30 42 1 1 38
M  V30 43 1 3 39
M  V30 44 1 6 40
M  V30 45 1 8 41
M  V30 46 1 11 42
M  V30 47 1 13 43
M  V30 48 1 14 44
M  V30 49 1 17 45
M  V30 50 1 19 46
M  V30 51 1 21 47
M  V30 52 1 24 48
M  V30 53 1 31 49
M  V30 54 1 31 50
M  V30 55 1 31 51
M  V30 56 1 32 52
M  V30 57 1 32 53
M  V30 58 1 32 54
M  V30 59 1 33 55
M  V30 60 1 33 56
M  V30 61 1 33 57
M  V30 62 1 34 58
M  V30 END BOND
M  V30 END CTAB
M  END
>  <Dataset>  (960) 
ChEMBL_Kinases

>  <Ligand_Instance>  (960) 
nan

>  <PDB_ID>  (960) 
nan

>  <Standardized_SMILES>  (960) 
Cn1cc(-c2cc3cnc(Nc4ccc(-c5cnco5)cc4Cl)cc3n2C(=O)OC(C)(C)C)cn1

>  <Name>  (960) 
nan

>  <Pocket>  (960) 
nan

>  <ATP_Site>  (960) 
nan

>  <Peripheral>  (960) 
nan

>  <Num_H_Atoms_ProtBoundConf>  (960) 
nan

>  <Num_Resolved_Atoms>  (960) 
nan

>  <Num_Not_Resolved_Atoms>  (960) 
nan

$$$$
CHEMBL3109945
     RDKit          3D

  0  0  0  0  0  0  0  0  0  0999 V3000
M  V30 BEGIN CTAB
M  V30 COUNTS 62 66 0 0 0
M  V30 BEGIN ATOM
M  V30 1 C -0.886573 5.094077 -7.800892 0
M  V30 2 N -1.163827 4.338649 -6.583946 0
M  V30 3 C -0.630046 3.141804 -6.270078 0
M  V30 4 C -1.148845 2.773227 -5.046554 0
M  V30 5 C -0.822289 1.534410 -4.355478 0
M  V30 6 C 0.033868 0.546989 -4.784905 0
M  V30 7 C 0.091421 -0.493649 -3.865873 0
M  V30 8 C 0.815428 -1.666905 -3.892446 0
M  V30 9 N 0.668160 -2.507767 -2.827604 0
M  V30 10 C -0.145109 -2.203728 -1.802937 0
M  V30 11 N -0.284290 -3.083834 -0.698416 0
M  V30 12 C 0.453003 -2.995141 0.491325 0
M  V30 13 C 1.383433 -1.990297 0.640288 0
M  V30 14 C 2.058828 -1.976950 1.846668 0
M  V30 15 C 1.847105 -2.892398 2.866083 0
M  V30 16 C 2.667743 -2.686198 4.053901 0
M  V30 17 C 2.851032 -1.416471 4.613422 0
M  V30 18 N 3.637149 -1.477384 5.691060 0
M  V30 19 C 3.966356 -2.766855 5.839201 0
M  V30 20 N 3.395466 -3.500623 4.869542 0
M  V30 21 C 3.460095 -4.915545 4.620081 0
M  V30 22 C 0.907626 -3.885464 2.681571 0
M  V30 23 C 0.203906 -3.930801 1.472840 0
M  V30 24 Cl -0.978375 -5.218593 1.297724 0
M  V30 25 C -0.861122 -1.023555 -1.796115 0
M  V30 26 C -0.755262 -0.133438 -2.841459 0
M  V30 27 N -1.249199 1.045079 -3.185324 0
M  V30 28 C -2.154022 1.692555 -2.349402 0
M  V30 29 O -2.936731 2.173993 -1.555247 0
M  V30 30 O -2.695848 1.318864 -1.164583 0
M  V30 31 C -3.587105 1.952469 -0.322130 0
M  V30 32 C -3.089173 3.275700 0.204359 0
M  V30 33 C -3.804866 1.069708 0.909419 0
M  V30 34 C -4.931279 2.101228 -0.979862 0
M  V30 35 C -2.005979 3.766147 -4.623214 0
M  V30 36 N -1.973894 4.691305 -5.599513 0
M  V30 37 H 0.200730 5.312558 -7.789058 0
M  V30 38 H -1.062202 4.419261 -8.664901 0
M  V30 39 H -1.501526 6.001995 -7.835927 0
M  V30 40 H 0.060832 2.596607 -6.865212 0
M  V30 41 H 0.589269 0.594834 -5.733105 0
M  V30 42 H 1.458055 -1.856405 -4.752601 0
M  V30 43 H -1.006685 -3.802602 -0.893217 0
M  V30 44 H 1.572516 -1.266095 -0.125660 0
M  V30 45 H 2.795208 -1.167915 1.942570 0
M  V30 46 H 2.449789 -0.461138 4.285732 0
M  V30 47 H 4.599219 -3.166380 6.623039 0
M  V30 48 H 3.241121 -5.190572 3.588441 0
M  V30 49 H 4.464567 -5.325206 4.882508 0
M  V30 50 H 2.738684 -5.449179 5.273457 0
M  V30 51 H 0.781878 -4.573077 3.506614 0
M  V30 52 H -1.538268 -0.724137 -0.988972 0
M  V30 53 H -3.496747 4.100299 -0.412588 0
M  V30 54 H -1.979541 3.235419 0.226915 0
M  V30 55 H -3.409395 3.416816 1.270063 0
M  V30 56 H -4.564702 1.500850 1.588869 0
M  V30 57 H -4.137130 0.042595 0.602655 0
M  V30 58 H -2.869699 0.902536 1.477715 0
M  V30 59 H -5.040150 3.122518 -1.421067 0
M  V30 60 H -5.735038 1.963641 -0.206147 0
M  V30 61 H -5.079163 1.305612 -1.733625 0
M  V30 62 H -2.579703 3.818370 -3.729478 0
M  V30 END ATOM
M  V30 BEGIN BOND
M  V30 1 1 1 2
M  V30 2 1 2 3
M  V30 3 2 3 4
M  V30 4 1 4 5
M  V30 5 2 5 6
M  V30 6 1 6 7
M  V30 7 2 7 8
M  V30 8 1 8 9
M  V30 9 2 9 10
M  V30 10 1 10 11
M  V30 11 1 11 12
M  V30 12 2 12 13
M  V30 13 1 13 14
M  V30 14 2 14 15
M  V30 15 1 15 16
M  V30 16 2 16 17
M  V30 17 1 17 18
M  V30 18 2 18 19
M  V30 19 1 19 20
M  V30 20 1 20 21
M  V30 21 1 15 22
M  V30 22 2 22 23
M  V30 23 1 23 24
M  V30 24 1 10 25
M  V30 25 2 25 26
M  V30 26 1 26 27
M  V30 27 1 27 28
M  V30 28 2 28 29
M  V30 29 1 28 30
M  V30 30 1 30 31
M  V30 31 1 31 32
M  V30 32 1 31 33
M  V30 33 1 31 34
M  V30 34 1 4 35
M  V30 35 2 35 36
M  V30 36 1 36 2
M  V30 37 1 27 5
M  V30 38 1 26 7
M  V30 39 1 23 12
M  V30 40 1 20 16
M  V30 41 1 1 37
M  V30 42 1 1 38
M  V30 43 1 1 39
M  V30 44 1 3 40
M  V30 45 1 6 41
M  V30 46 1 8 42
M  V30 47 1 11 43
M  V30 48 1 13 44
M  V30 49 1 14 45
M  V30 50 1 17 46
M  V30 51 1 19 47
M  V30 52 1 21 48
M  V30 53 1 21 49
M  V30 54 1 21 50
M  V30 55 1 22 51
M  V30 56 1 25 52
M  V30 57 1 32 53
M  V30 58 1 32 54
M  V30 59 1 32 55
M  V30 60 1 33 56
M  V30 61 1 33 57
M  V30 62 1 33 58
M  V30 63 1 34 59
M  V30 64 1 34 60
M  V30 65 1 34 61
M  V30 66 1 35 62
M  V30 END BOND
M  V30 END CTAB
M  END
>  <Dataset>  (961) 
ChEMBL_Kinases

>  <Ligand_Instance>  (961) 
nan

>  <PDB_ID>  (961) 
nan

>  <Standardized_SMILES>  (961) 
Cn1cc(-c2cc3cnc(Nc4ccc(-c5cncn5C)cc4Cl)cc3n2C(=O)OC(C)(C)C)cn1

>  <Name>  (961) 
nan

>  <Pocket>  (961) 
nan

>  <ATP_Site>  (961) 
nan

>  <Peripheral>  (961) 
nan

>  <Num_H_Atoms_ProtBoundConf>  (961) 
nan

>  <Num_Resolved_Atoms>  (961) 
nan

>  <Num_Not_Resolved_Atoms>  (961) 
nan

$$$$
CHEMBL3109960
     RDKit          3D

  0  0  0  0  0  0  0  0  0  0999 V3000
M  V30 BEGIN CTAB
M  V30 COUNTS 48 51 0 0 0
M  V30 BEGIN ATOM
M  V30 1 C -4.265144 -5.354383 2.097318 0
M  V30 2 O -3.052516 -6.023473 1.759198 0
M  V30 3 C -2.041251 -5.278715 1.173453 0
M  V30 4 C -2.191686 -3.930482 0.919822 0
M  V30 5 C -1.130186 -3.266339 0.332720 0
M  V30 6 C 0.057998 -3.859183 -0.012250 0
M  V30 7 N 1.092657 -3.089118 -0.611238 0
M  V30 8 C 0.824121 -1.707500 -0.827869 0
M  V30 9 C 1.126940 -0.861287 0.243311 0
M  V30 10 C 0.909439 0.501750 0.145697 0
M  V30 11 N 1.083099 1.559337 0.957612 0
M  V30 12 C 0.703964 2.720624 0.375218 0
M  V30 13 C 0.810170 3.988353 1.067968 0
M  V30 14 C 1.320906 4.134470 2.338458 0
M  V30 15 N 1.298379 5.421301 2.722253 0
M  V30 16 C 1.745341 5.991892 3.984460 0
M  V30 17 N 0.784267 6.084523 1.719622 0
M  V30 18 C 0.467613 5.259509 0.683111 0
M  V30 19 C -0.136322 5.679342 -0.579355 0
M  V30 20 F -1.367890 5.137720 -0.834044 0
M  V30 21 F 0.759968 5.515900 -1.644692 0
M  V30 22 F -0.349008 7.066604 -0.547547 0
M  V30 23 C 0.276863 2.330400 -0.864051 0
M  V30 24 C 0.387955 0.967879 -1.043257 0
M  V30 25 C 0.087770 0.136697 -2.102427 0
M  V30 26 N 0.317594 -1.199991 -1.963923 0
M  V30 27 C 0.229441 -5.220715 0.235902 0
M  V30 28 O 1.412647 -5.812532 -0.107317 0
M  V30 29 C 1.744015 -7.158235 0.071965 0
M  V30 30 C -0.855698 -5.870066 0.829103 0
M  V30 31 H -4.031474 -4.432760 2.688892 0
M  V30 32 H -4.864001 -5.153903 1.206380 0
M  V30 33 H -4.801132 -6.043699 2.793609 0
M  V30 34 H -3.107889 -3.414431 1.172098 0
M  V30 35 H -1.284553 -2.197470 0.145990 0
M  V30 36 H 1.997407 -3.535610 -0.871608 0
M  V30 37 H 1.527049 -1.247956 1.146152 0
M  V30 38 H 1.480749 1.369588 1.921115 0
M  V30 39 H 1.719763 3.378756 3.034681 0
M  V30 40 H 2.554473 6.709510 3.848190 0
M  V30 41 H 0.876823 6.412007 4.543516 0
M  V30 42 H 2.114587 5.167216 4.664062 0
M  V30 43 H -0.094065 2.974579 -1.614750 0
M  V30 44 H -0.319896 0.541442 -3.018261 0
M  V30 45 H 1.134212 -7.694797 0.810699 0
M  V30 46 H 1.701635 -7.741761 -0.879605 0
M  V30 47 H 2.834467 -7.185269 0.351151 0
M  V30 48 H -0.745575 -6.936935 1.033193 0
M  V30 END ATOM
M  V30 BEGIN BOND
M  V30 1 1 1 2
M  V30 2 1 2 3
M  V30 3 2 3 4
M  V30 4 1 4 5
M  V30 5 2 5 6
M  V30 6 1 6 7
M  V30 7 1 7 8
M  V30 8 2 8 9
M  V30 9 1 9 10
M  V30 10 1 10 11
M  V30 11 1 11 12
M  V30 12 1 12 13
M  V30 13 2 13 14
M  V30 14 1 14 15
M  V30 15 1 15 16
M  V30 16 1 15 17
M  V30 17 2 17 18
M  V30 18 1 18 19
M  V30 19 1 19 20
M  V30 20 1 19 21
M  V30 21 1 19 22
M  V30 22 2 12 23
M  V30 23 1 23 24
M  V30 24 1 24 25
M  V30 25 2 25 26
M  V30 26 1 6 27
M  V30 27 1 27 28
M  V30 28 1 28 29
M  V30 29 2 27 30
M  V30 30 1 30 3
M  V30 31 1 26 8
M  V30 32 2 24 10
M  V30 33 1 18 13
M  V30 34 1 1 31
M  V30 35 1 1 32
M  V30 36 1 1 33
M  V30 37 1 4 34
M  V30 38 1 5 35
M  V30 39 1 7 36
M  V30 40 1 9 37
M  V30 41 1 11 38
M  V30 42 1 14 39
M  V30 43 1 16 40
M  V30 44 1 16 41
M  V30 45 1 16 42
M  V30 46 1 23 43
M  V30 47 1 25 44
M  V30 48 1 29 45
M  V30 49 1 29 46
M  V30 50 1 29 47
M  V30 51 1 30 48
M  V30 END BOND
M  V30 END CTAB
M  END
>  <Dataset>  (962) 
ChEMBL_Kinases

>  <Ligand_Instance>  (962) 
nan

>  <PDB_ID>  (962) 
nan

>  <Standardized_SMILES>  (962) 
COc1ccc(Nc2cc3[nH]c(-c4cn(C)nc4C(F)(F)F)cc3cn2)c(OC)c1

>  <Name>  (962) 
nan

>  <Pocket>  (962) 
nan

>  <ATP_Site>  (962) 
nan

>  <Peripheral>  (962) 
nan

>  <Num_H_Atoms_ProtBoundConf>  (962) 
nan

>  <Num_Resolved_Atoms>  (962) 
nan

>  <Num_Not_Resolved_Atoms>  (962) 
nan

$$$$
CHEMBL3109947
     RDKit          3D

  0  0  0  0  0  0  0  0  0  0999 V3000
M  V30 BEGIN CTAB
M  V30 COUNTS 60 64 0 0 0
M  V30 BEGIN ATOM
M  V30 1 C 4.281044 -6.949479 3.360132 0
M  V30 2 N 4.292667 -6.297888 2.070614 0
M  V30 3 C 3.501985 -5.270862 1.841604 0
M  V30 4 C 3.313464 -4.512466 0.786715 0
M  V30 5 C 3.020026 -3.619023 -0.335318 0
M  V30 6 C 3.375708 -3.256381 -1.598760 0
M  V30 7 C 2.594453 -2.209093 -1.981140 0
M  V30 8 C 2.683627 -1.574148 -3.187420 0
M  V30 9 N 1.855784 -0.546497 -3.409247 0
M  V30 10 C 0.970690 -0.159778 -2.471960 0
M  V30 11 N 0.165099 0.945220 -2.814888 0
M  V30 12 C -0.867895 1.687686 -2.184839 0
M  V30 13 C -2.134301 1.767280 -2.716265 0
M  V30 14 C -3.194117 2.466396 -2.178630 0
M  V30 15 C -2.961884 3.143360 -1.008631 0
M  V30 16 C -4.061437 3.901002 -0.418057 0
M  V30 17 C -3.950952 4.631846 0.742269 0
M  V30 18 N -5.003293 5.330202 1.241660 0
M  V30 19 C -6.166309 5.276090 0.549172 0
M  V30 20 C -6.318890 4.556776 -0.615005 0
M  V30 21 N -5.245689 3.868724 -1.088790 0
M  V30 22 C -1.706461 3.085801 -0.449457 0
M  V30 23 C -0.638047 2.389755 -0.976469 0
M  V30 24 Cl 0.938015 2.363871 -0.219416 0
M  V30 25 C 0.919832 -0.830030 -1.280067 0
M  V30 26 C 1.733389 -1.895760 -0.967512 0
M  V30 27 N 2.012478 -2.762327 0.011164 0
M  V30 28 C 1.201242 -2.594541 1.161442 0
M  V30 29 O 0.867596 -2.923560 2.298462 0
M  V30 30 O 0.213310 -1.695552 1.401044 0
M  V30 31 C -0.585874 -1.532709 2.519511 0
M  V30 32 C -1.441967 -2.720473 2.865962 0
M  V30 33 C -1.543526 -0.358719 2.259802 0
M  V30 34 C 0.259355 -1.101538 3.711507 0
M  V30 35 C 4.341065 -5.345654 0.118464 0
M  V30 36 N 4.862494 -6.348812 0.900009 0
M  V30 37 H 3.855261 -7.973134 3.302656 0
M  V30 38 H 3.687528 -6.401576 4.116555 0
M  V30 39 H 5.321017 -6.955431 3.774952 0
M  V30 40 H 2.762538 -4.764023 2.522386 0
M  V30 41 H 4.161318 -3.790230 -2.099937 0
M  V30 42 H 3.382571 -1.858306 -3.955181 0
M  V30 43 H 0.265791 1.422285 -3.735934 0
M  V30 44 H -2.286654 1.213794 -3.656576 0
M  V30 45 H -4.141561 2.440555 -2.706885 0
M  V30 46 H -3.024192 4.661615 1.280619 0
M  V30 47 H -6.985238 5.858468 0.991711 0
M  V30 48 H -7.302165 4.608253 -1.052235 0
M  V30 49 H -1.486676 3.606418 0.477112 0
M  V30 50 H 0.217147 -0.519295 -0.548638 0
M  V30 51 H -1.167003 -3.156910 3.868647 0
M  V30 52 H -1.332633 -3.482187 2.066585 0
M  V30 53 H -2.524611 -2.453002 2.892129 0
M  V30 54 H -1.189490 0.205308 1.367525 0
M  V30 55 H -1.651530 0.294109 3.148246 0
M  V30 56 H -2.560020 -0.735154 2.032218 0
M  V30 57 H 1.276513 -0.792596 3.414601 0
M  V30 58 H -0.180425 -0.203497 4.234363 0
M  V30 59 H 0.341221 -1.944210 4.427404 0
M  V30 60 H 4.935284 -5.534937 -0.835117 0
M  V30 END ATOM
M  V30 BEGIN BOND
M  V30 1 1 1 2
M  V30 2 1 2 3
M  V30 3 2 3 4
M  V30 4 1 4 5
M  V30 5 2 5 6
M  V30 6 1 6 7
M  V30 7 2 7 8
M  V30 8 1 8 9
M  V30 9 2 9 10
M  V30 10 1 10 11
M  V30 11 1 11 12
M  V30 12 2 12 13
M  V30 13 1 13 14
M  V30 14 2 14 15
M  V30 15 1 15 16
M  V30 16 2 16 17
M  V30 17 1 17 18
M  V30 18 2 18 19
M  V30 19 1 19 20
M  V30 20 2 20 21
M  V30 21 1 15 22
M  V30 22 2 22 23
M  V30 23 1 23 24
M  V30 24 1 10 25
M  V30 25 2 25 26
M  V30 26 1 26 27
M  V30 27 1 27 28
M  V30 28 2 28 29
M  V30 29 1 28 30
M  V30 30 1 30 31
M  V30 31 1 31 32
M  V30 32 1 31 33
M  V30 33 1 31 34
M  V30 34 1 4 35
M  V30 35 2 35 36
M  V30 36 1 36 2
M  V30 37 1 27 5
M  V30 38 1 26 7
M  V30 39 1 23 12
M  V30 40 1 21 16
M  V30 41 1 1 37
M  V30 42 1 1 38
M  V30 43 1 1 39
M  V30 44 1 3 40
M  V30 45 1 6 41
M  V30 46 1 8 42
M  V30 47 1 11 43
M  V30 48 1 13 44
M  V30 49 1 14 45
M  V30 50 1 17 46
M  V30 51 1 19 47
M  V30 52 1 20 48
M  V30 53 1 22 49
M  V30 54 1 25 50
M  V30 55 1 32 51
M  V30 56 1 32 52
M  V30 57 1 32 53
M  V30 58 1 33 54
M  V30 59 1 33 55
M  V30 60 1 33 56
M  V30 61 1 34 57
M  V30 62 1 34 58
M  V30 63 1 34 59
M  V30 64 1 35 60
M  V30 END BOND
M  V30 END CTAB
M  END
>  <Dataset>  (963) 
ChEMBL_Kinases

>  <Ligand_Instance>  (963) 
nan

>  <PDB_ID>  (963) 
nan

>  <Standardized_SMILES>  (963) 
Cn1cc(-c2cc3cnc(Nc4ccc(-c5cnccn5)cc4Cl)cc3n2C(=O)OC(C)(C)C)cn1

>  <Name>  (963) 
nan

>  <Pocket>  (963) 
nan

>  <ATP_Site>  (963) 
nan

>  <Peripheral>  (963) 
nan

>  <Num_H_Atoms_ProtBoundConf>  (963) 
nan

>  <Num_Resolved_Atoms>  (963) 
nan

>  <Num_Not_Resolved_Atoms>  (963) 
nan

$$$$
CHEMBL3109948
     RDKit          3D

  0  0  0  0  0  0  0  0  0  0999 V3000
M  V30 BEGIN CTAB
M  V30 COUNTS 60 64 0 0 0
M  V30 BEGIN ATOM
M  V30 1 C 4.843263 -6.071830 4.495735 0
M  V30 2 N 3.866507 -5.256558 3.762215 0
M  V30 3 C 4.226241 -4.092214 3.162996 0
M  V30 4 C 3.055800 -3.633836 2.590151 0
M  V30 5 C 2.990614 -2.388587 1.833038 0
M  V30 6 C 4.062326 -1.547902 1.607663 0
M  V30 7 C 3.698065 -0.439085 0.856507 0
M  V30 8 C 4.395402 0.653198 0.383119 0
M  V30 9 N 3.691061 1.552465 -0.333315 0
M  V30 10 C 2.377252 1.394615 -0.574751 0
M  V30 11 N 1.702884 2.385977 -1.355717 0
M  V30 12 C 0.306291 2.397118 -1.622983 0
M  V30 13 C -0.347481 2.312231 -2.831266 0
M  V30 14 C -1.717198 2.351492 -2.903239 0
M  V30 15 C -2.471033 2.477210 -1.765510 0
M  V30 16 C -3.928522 2.521859 -1.797791 0
M  V30 17 C -4.671954 2.013196 -0.728448 0
M  V30 18 N -6.011799 2.074725 -0.798007 0
M  V30 19 C -6.685062 2.590117 -1.822747 0
M  V30 20 N -6.005413 3.100676 -2.893635 0
M  V30 21 C -4.663372 3.046532 -2.839070 0
M  V30 22 C -1.844111 2.565897 -0.529290 0
M  V30 23 C -0.448334 2.526368 -0.450433 0
M  V30 24 Cl 0.180144 2.668913 1.199951 0
M  V30 25 C 1.645457 0.316864 -0.119049 0
M  V30 26 C 2.351859 -0.624837 0.623095 0
M  V30 27 N 1.975729 -1.772253 1.207803 0
M  V30 28 C 0.705315 -2.385811 1.246230 0
M  V30 29 O -0.459753 -2.213067 0.850955 0
M  V30 30 O -0.416592 -1.805740 0.625555 0
M  V30 31 C -1.693644 -2.370207 0.633648 0
M  V30 32 C -1.805900 -3.725704 0.019889 0
M  V30 33 C -2.602099 -1.448215 -0.191212 0
M  V30 34 C -2.252154 -2.308102 2.045274 0
M  V30 35 C 2.019337 -4.509250 2.843818 0
M  V30 36 N 2.593378 -5.491858 3.575042 0
M  V30 37 H 4.357847 -7.024221 4.812193 0
M  V30 38 H 5.112164 -5.537507 5.436058 0
M  V30 39 H 5.763755 -6.206601 3.920373 0
M  V30 40 H 5.215562 -3.650674 3.155056 0
M  V30 41 H 5.089813 -1.667351 1.941270 0
M  V30 42 H 5.451019 0.760717 0.587921 0
M  V30 43 H 2.225379 3.183868 -1.787312 0
M  V30 44 H 0.332158 2.216092 -3.668948 0
M  V30 45 H -2.173705 2.282762 -3.872215 0
M  V30 46 H -4.185823 1.575583 0.144016 0
M  V30 47 H -7.772794 2.643332 -1.888187 0
M  V30 48 H -4.087429 3.450145 -3.686930 0
M  V30 49 H -2.480738 2.666392 0.363372 0
M  V30 50 H 0.606501 0.136563 -0.284395 0
M  V30 51 H -1.666605 -4.552806 0.747098 0
M  V30 52 H -1.028981 -3.830411 -0.766023 0
M  V30 53 H -2.802773 -3.839357 -0.467358 0
M  V30 54 H -1.992534 -0.932876 -0.966899 0
M  V30 55 H -3.100537 -0.684146 0.431586 0
M  V30 56 H -3.423316 -2.051393 -0.668247 0
M  V30 57 H -1.625368 -2.887568 2.762284 0
M  V30 58 H -2.178617 -1.252915 2.387785 0
M  V30 59 H -3.325516 -2.557185 2.083258 0
M  V30 60 H 0.984710 -4.449802 2.542896 0
M  V30 END ATOM
M  V30 BEGIN BOND
M  V30 1 1 1 2
M  V30 2 1 2 3
M  V30 3 2 3 4
M  V30 4 1 4 5
M  V30 5 2 5 6
M  V30 6 1 6 7
M  V30 7 2 7 8
M  V30 8 1 8 9
M  V30 9 2 9 10
M  V30 10 1 10 11
M  V30 11 1 11 12
M  V30 12 2 12 13
M  V30 13 1 13 14
M  V30 14 2 14 15
M  V30 15 1 15 16
M  V30 16 2 16 17
M  V30 17 1 17 18
M  V30 18 2 18 19
M  V30 19 1 19 20
M  V30 20 2 20 21
M  V30 21 1 15 22
M  V30 22 2 22 23
M  V30 23 1 23 24
M  V30 24 1 10 25
M  V30 25 2 25 26
M  V30 26 1 26 27
M  V30 27 1 27 28
M  V30 28 2 28 29
M  V30 29 1 28 30
M  V30 30 1 30 31
M  V30 31 1 31 32
M  V30 32 1 31 33
M  V30 33 1 31 34
M  V30 34 1 4 35
M  V30 35 2 35 36
M  V30 36 1 36 2
M  V30 37 1 27 5
M  V30 38 1 26 7
M  V30 39 1 23 12
M  V30 40 1 21 16
M  V30 41 1 1 37
M  V30 42 1 1 38
M  V30 43 1 1 39
M  V30 44 1 3 40
M  V30 45 1 6 41
M  V30 46 1 8 42
M  V30 47 1 11 43
M  V30 48 1 13 44
M  V30 49 1 14 45
M  V30 50 1 17 46
M  V30 51 1 19 47
M  V30 52 1 21 48
M  V30 53 1 22 49
M  V30 54 1 25 50
M  V30 55 1 32 51
M  V30 56 1 32 52
M  V30 57 1 32 53
M  V30 58 1 33 54
M  V30 59 1 33 55
M  V30 60 1 33 56
M  V30 61 1 34 57
M  V30 62 1 34 58
M  V30 63 1 34 59
M  V30 64 1 35 60
M  V30 END BOND
M  V30 END CTAB
M  END
>  <Dataset>  (964) 
ChEMBL_Kinases

>  <Ligand_Instance>  (964) 
nan

>  <PDB_ID>  (964) 
nan

>  <Standardized_SMILES>  (964) 
Cn1cc(-c2cc3cnc(Nc4ccc(-c5cncnc5)cc4Cl)cc3n2C(=O)OC(C)(C)C)cn1

>  <Name>  (964) 
nan

>  <Pocket>  (964) 
nan

>  <ATP_Site>  (964) 
nan

>  <Peripheral>  (964) 
nan

>  <Num_H_Atoms_ProtBoundConf>  (964) 
nan

>  <Num_Resolved_Atoms>  (964) 
nan

>  <Num_Not_Resolved_Atoms>  (964) 
nan

$$$$
CHEMBL3109953
     RDKit          3D

  0  0  0  0  0  0  0  0  0  0999 V3000
M  V30 BEGIN CTAB
M  V30 COUNTS 38 41 0 0 0
M  V30 BEGIN ATOM
M  V30 1 C -2.110030 -6.370740 -0.434205 0
M  V30 2 O -1.798389 -5.018499 -0.205331 0
M  V30 3 C -0.656181 -4.619283 0.439315 0
M  V30 4 C 0.334137 -5.432714 0.948151 0
M  V30 5 C 1.477149 -5.020895 1.595583 0
M  V30 6 C 1.649424 -3.661956 1.750775 0
M  V30 7 C 0.680333 -2.794912 1.254264 0
M  V30 8 C -0.474136 -3.238511 0.598460 0
M  V30 9 N -1.403736 -2.241009 0.130453 0
M  V30 10 C -1.032902 -0.899809 0.445237 0
M  V30 11 C -0.066452 -0.096855 -0.142422 0
M  V30 12 C 0.125934 1.193221 0.333113 0
M  V30 13 N 1.006125 2.113608 -0.091797 0
M  V30 14 C 0.758117 3.174481 0.727470 0
M  V30 15 C 1.438365 4.467115 0.708843 0
M  V30 16 C 1.248114 5.574795 1.513665 0
M  V30 17 N 2.120305 6.538705 1.108671 0
M  V30 18 N 2.830890 6.062885 0.093340 0
M  V30 19 C 2.447052 4.818133 -0.175502 0
M  V30 20 C -0.255864 2.901606 1.634896 0
M  V30 21 C -0.666713 1.608476 1.376899 0
M  V30 22 C -1.624459 0.812332 1.959123 0
M  V30 23 N -1.772414 -0.426958 1.464623 0
M  V30 24 H -1.322914 -7.079637 -0.196816 0
M  V30 25 H -3.026990 -6.687013 0.135699 0
M  V30 26 H -2.378995 -6.470131 -1.518039 0
M  V30 27 H 0.251503 -6.500557 0.857322 0
M  V30 28 H 2.219588 -5.704280 1.974913 0
M  V30 29 H 2.546886 -3.299547 2.260901 0
M  V30 30 H 0.926632 -1.752630 1.433571 0
M  V30 31 H -2.225325 -2.638658 -0.376867 0
M  V30 32 H 0.462083 -0.578550 -0.941967 0
M  V30 33 H 1.704922 2.042209 -0.853723 0
M  V30 34 H 0.522568 5.623425 2.314939 0
M  V30 35 H 3.515002 6.775066 -0.245961 0
M  V30 36 H 2.916536 4.285930 -0.968389 0
M  V30 37 H -0.671100 3.519397 2.391763 0
M  V30 38 H -2.220348 1.200630 2.781212 0
M  V30 END ATOM
M  V30 BEGIN BOND
M  V30 1 1 1 2
M  V30 2 1 2 3
M  V30 3 2 3 4
M  V30 4 1 4 5
M  V30 5 2 5 6
M  V30 6 1 6 7
M  V30 7 2 7 8
M  V30 8 1 8 9
M  V30 9 1 9 10
M  V30 10 2 10 11
M  V30 11 1 11 12
M  V30 12 1 12 13
M  V30 13 1 13 14
M  V30 14 1 14 15
M  V30 15 1 15 16
M  V30 16 2 16 17
M  V30 17 1 17 18
M  V30 18 1 18 19
M  V30 19 2 14 20
M  V30 20 1 20 21
M  V30 21 1 21 22
M  V30 22 2 22 23
M  V30 23 1 8 3
M  V30 24 1 23 10
M  V30 25 2 21 12
M  V30 26 2 19 15
M  V30 27 1 1 24
M  V30 28 1 1 25
M  V30 29 1 1 26
M  V30 30 1 4 27
M  V30 31 1 5 28
M  V30 32 1 6 29
M  V30 33 1 7 30
M  V30 34 1 9 31
M  V30 35 1 11 32
M  V30 36 1 13 33
M  V30 37 1 16 34
M  V30 38 1 18 35
M  V30 39 1 19 36
M  V30 40 1 20 37
M  V30 41 1 22 38
M  V30 END BOND
M  V30 END CTAB
M  END
>  <Dataset>  (965) 
ChEMBL_Kinases

>  <Ligand_Instance>  (965) 
nan

>  <PDB_ID>  (965) 
nan

>  <Standardized_SMILES>  (965) 
COc1ccccc1Nc1cc2[nH]c(-c3cn[nH]c3)cc2cn1

>  <Name>  (965) 
nan

>  <Pocket>  (965) 
nan

>  <ATP_Site>  (965) 
nan

>  <Peripheral>  (965) 
nan

>  <Num_H_Atoms_ProtBoundConf>  (965) 
nan

>  <Num_Resolved_Atoms>  (965) 
nan

>  <Num_Not_Resolved_Atoms>  (965) 
nan

$$$$
CHEMBL3109955
     RDKit          3D

  0  0  0  0  0  0  0  0  0  0999 V3000
M  V30 BEGIN CTAB
M  V30 COUNTS 34 37 0 0 0
M  V30 BEGIN ATOM
M  V30 1 Cl 3.499642 -4.632978 1.827964 0
M  V30 2 C 1.941608 -5.098819 1.132799 0
M  V30 3 C 1.727086 -6.448176 0.968334 0
M  V30 4 C 0.545793 -6.900953 0.435950 0
M  V30 5 C -0.410375 -5.992443 0.073229 0
M  V30 6 C -0.135661 -4.659231 0.262725 0
M  V30 7 C 1.025599 -4.144312 0.789817 0
M  V30 8 N 1.318747 -2.774061 0.989244 0
M  V30 9 C 0.501451 -1.652816 0.697702 0
M  V30 10 C 0.953062 -0.376614 0.960255 0
M  V30 11 C 0.227463 0.763324 0.709173 0
M  V30 12 N 0.501895 2.083221 0.897871 0
M  V30 13 C -0.568236 2.761045 0.473870 0
M  V30 14 C -0.674647 4.218319 0.506133 0
M  V30 15 C 0.244563 5.136787 0.950669 0
M  V30 16 N -0.247114 6.374970 0.805518 0
M  V30 17 N -1.476053 6.316499 0.273830 0
M  V30 18 C -1.734921 5.005289 0.092267 0
M  V30 19 C -1.560653 1.926915 0.002356 0
M  V30 20 C -1.030080 0.665139 0.163021 0
M  V30 21 C -1.473531 -0.607853 -0.095849 0
M  V30 22 N -0.728584 -1.683369 0.167005 0
M  V30 23 H 2.471475 -7.184054 1.249189 0
M  V30 24 H 0.384905 -7.956902 0.310257 0
M  V30 25 H -1.347875 -6.328770 -0.348049 0
M  V30 26 H -0.923095 -3.986359 -0.040016 0
M  V30 27 H 2.261122 -2.556866 1.406197 0
M  V30 28 H 1.933652 -0.223621 1.390218 0
M  V30 29 H 1.360139 2.490882 1.288840 0
M  V30 30 H 1.227016 4.911920 1.361175 0
M  V30 31 H -2.160045 7.062156 0.019589 0
M  V30 32 H -2.653593 4.564844 -0.326443 0
M  V30 33 H -2.537712 2.142564 -0.406355 0
M  V30 34 H -2.464649 -0.759160 -0.530242 0
M  V30 END ATOM
M  V30 BEGIN BOND
M  V30 1 1 1 2
M  V30 2 2 2 3
M  V30 3 1 3 4
M  V30 4 2 4 5
M  V30 5 1 5 6
M  V30 6 2 6 7
M  V30 7 1 7 8
M  V30 8 1 8 9
M  V30 9 2 9 10
M  V30 10 1 10 11
M  V30 11 1 11 12
M  V30 12 1 12 13
M  V30 13 1 13 14
M  V30 14 1 14 15
M  V30 15 2 15 16
M  V30 16 1 16 17
M  V30 17 1 17 18
M  V30 18 2 13 19
M  V30 19 1 19 20
M  V30 20 1 20 21
M  V30 21 2 21 22
M  V30 22 1 7 2
M  V30 23 1 22 9
M  V30 24 2 20 11
M  V30 25 2 18 14
M  V30 26 1 3 23
M  V30 27 1 4 24
M  V30 28 1 5 25
M  V30 29 1 6 26
M  V30 30 1 8 27
M  V30 31 1 10 28
M  V30 32 1 12 29
M  V30 33 1 15 30
M  V30 34 1 17 31
M  V30 35 1 18 32
M  V30 36 1 19 33
M  V30 37 1 21 34
M  V30 END BOND
M  V30 END CTAB
M  END
>  <Dataset>  (966) 
ChEMBL_Kinases

>  <Ligand_Instance>  (966) 
nan

>  <PDB_ID>  (966) 
nan

>  <Standardized_SMILES>  (966) 
Clc1ccccc1Nc1cc2[nH]c(-c3cn[nH]c3)cc2cn1

>  <Name>  (966) 
nan

>  <Pocket>  (966) 
nan

>  <ATP_Site>  (966) 
nan

>  <Peripheral>  (966) 
nan

>  <Num_H_Atoms_ProtBoundConf>  (966) 
nan

>  <Num_Resolved_Atoms>  (966) 
nan

>  <Num_Not_Resolved_Atoms>  (966) 
nan

$$$$
CHEMBL3109956
     RDKit          3D

  0  0  0  0  0  0  0  0  0  0999 V3000
M  V30 BEGIN CTAB
M  V30 COUNTS 38 41 0 0 0
M  V30 BEGIN ATOM
M  V30 1 C 0.208258 -6.041802 4.151744 0
M  V30 2 O -0.994216 -5.308732 4.211407 0
M  V30 3 C -1.241053 -4.239494 3.372411 0
M  V30 4 C -0.458219 -3.686186 2.387177 0
M  V30 5 C -0.914674 -2.596192 1.652390 0
M  V30 6 C -2.158501 -2.015634 1.863945 0
M  V30 7 N -2.586164 -0.893637 1.071893 0
M  V30 8 C -1.604564 -0.478858 0.131519 0
M  V30 9 C -0.955715 0.671477 0.598994 0
M  V30 10 C 0.062530 1.229324 -0.181371 0
M  V30 11 N 0.881170 2.294938 -0.071578 0
M  V30 12 C 1.699476 2.391526 -1.132489 0
M  V30 13 C 2.695998 3.438605 -1.322115 0
M  V30 14 C 2.927245 4.472242 -0.440560 0
M  V30 15 N 3.913149 5.206537 -0.990370 0
M  V30 16 N 4.284593 4.663073 -2.159530 0
M  V30 17 C 3.545563 3.543166 -2.414938 0
M  V30 18 C 1.410292 1.341449 -1.984401 0
M  V30 19 C 0.390492 0.614731 -1.396536 0
M  V30 20 C -0.280495 -0.527824 -1.822788 0
M  V30 21 N -1.249367 -1.025927 -1.040490 0
M  V30 22 C -2.964313 -2.565072 2.861039 0
M  V30 23 Cl -4.550886 -1.858729 3.166438 0
M  V30 24 C -2.475870 -3.648308 3.571123 0
M  V30 25 H 0.064233 -6.988296 3.543906 0
M  V30 26 H 1.003777 -5.475764 3.627304 0
M  V30 27 H 0.630876 -6.293715 5.150586 0
M  V30 28 H 0.500852 -4.145528 2.233015 0
M  V30 29 H -0.229624 -2.237167 0.908566 0
M  V30 30 H -3.513109 -0.486110 1.225112 0
M  V30 31 H -1.131372 1.209908 1.500509 0
M  V30 32 H 0.854181 2.949369 0.755760 0
M  V30 33 H 2.400864 4.627912 0.495866 0
M  V30 34 H 5.046659 5.061181 -2.784409 0
M  V30 35 H 3.646130 2.903637 -3.300325 0
M  V30 36 H 1.864844 1.103653 -2.921525 0
M  V30 37 H -0.065571 -1.039299 -2.751111 0
M  V30 38 H -3.182753 -3.991590 4.316011 0
M  V30 END ATOM
M  V30 BEGIN BOND
M  V30 1 1 1 2
M  V30 2 1 2 3
M  V30 3 2 3 4
M  V30 4 1 4 5
M  V30 5 2 5 6
M  V30 6 1 6 7
M  V30 7 1 7 8
M  V30 8 2 8 9
M  V30 9 1 9 10
M  V30 10 1 10 11
M  V30 11 1 11 12
M  V30 12 1 12 13
M  V30 13 1 13 14
M  V30 14 2 14 15
M  V30 15 1 15 16
M  V30 16 1 16 17
M  V30 17 2 12 18
M  V30 18 1 18 19
M  V30 19 1 19 20
M  V30 20 2 20 21
M  V30 21 1 6 22
M  V30 22 1 22 23
M  V30 23 2 22 24
M  V30 24 1 24 3
M  V30 25 1 21 8
M  V30 26 2 19 10
M  V30 27 2 17 13
M  V30 28 1 1 25
M  V30 29 1 1 26
M  V30 30 1 1 27
M  V30 31 1 4 28
M  V30 32 1 5 29
M  V30 33 1 7 30
M  V30 34 1 9 31
M  V30 35 1 11 32
M  V30 36 1 14 33
M  V30 37 1 16 34
M  V30 38 1 17 35
M  V30 39 1 18 36
M  V30 40 1 20 37
M  V30 41 1 24 38
M  V30 END BOND
M  V30 END CTAB
M  END
>  <Dataset>  (967) 
ChEMBL_Kinases

>  <Ligand_Instance>  (967) 
nan

>  <PDB_ID>  (967) 
nan

>  <Standardized_SMILES>  (967) 
COc1ccc(Nc2cc3[nH]c(-c4cn[nH]c4)cc3cn2)c(Cl)c1

>  <Name>  (967) 
nan

>  <Pocket>  (967) 
nan

>  <ATP_Site>  (967) 
nan

>  <Peripheral>  (967) 
nan

>  <Num_H_Atoms_ProtBoundConf>  (967) 
nan

>  <Num_Resolved_Atoms>  (967) 
nan

>  <Num_Not_Resolved_Atoms>  (967) 
nan

$$$$
CHEMBL3109957
     RDKit          3D

  0  0  0  0  0  0  0  0  0  0999 V3000
M  V30 BEGIN CTAB
M  V30 COUNTS 41 44 0 0 0
M  V30 BEGIN ATOM
M  V30 1 C -0.660342 -6.083454 -2.767926 0
M  V30 2 O -0.220917 -4.820239 -2.339837 0
M  V30 3 C 0.689851 -4.716485 -1.309714 0
M  V30 4 C 1.201875 -5.823508 -0.670908 0
M  V30 5 C 2.117572 -5.772450 0.365568 0
M  V30 6 C 2.560274 -4.525505 0.802320 0
M  V30 7 C 2.048369 -3.419204 0.164486 0
M  V30 8 C 1.137899 -3.493563 -0.863768 0
M  V30 9 N 0.661598 -2.291468 -1.425517 0
M  V30 10 C 0.975809 -0.953727 -1.080839 0
M  V30 11 C 0.203337 -0.540606 0.012680 0
M  V30 12 C 0.329293 0.738425 0.528293 0
M  V30 13 N -0.246946 1.408732 1.536499 0
M  V30 14 C 0.208989 2.660599 1.667757 0
M  V30 15 C -0.225118 3.606296 2.686416 0
M  V30 16 C 0.155918 4.912766 2.905156 0
M  V30 17 N -0.520017 5.391100 3.997011 0
M  V30 18 N -1.316877 4.426522 4.474488 0
M  V30 19 C -2.210851 4.483769 5.622539 0
M  V30 20 C -1.138513 3.359858 3.687748 0
M  V30 21 C 1.144128 2.795459 0.666842 0
M  V30 22 C 1.226230 1.596316 -0.051819 0
M  V30 23 C 1.988214 1.162771 -1.145345 0
M  V30 24 N 1.859684 -0.084524 -1.641151 0
M  V30 25 H 0.159486 -6.828426 -2.738770 0
M  V30 26 H -1.523429 -6.425143 -2.120709 0
M  V30 27 H -1.008378 -6.066842 -3.829593 0
M  V30 28 H 0.942514 -6.844423 -0.904900 0
M  V30 29 H 2.540608 -6.616279 0.891798 0
M  V30 30 H 3.283545 -4.450784 1.617245 0
M  V30 31 H 2.385197 -2.440220 0.496363 0
M  V30 32 H 0.003506 -2.117485 -2.184817 0
M  V30 33 H -0.527091 -1.144084 0.534532 0
M  V30 34 H -0.982994 0.992760 2.162763 0
M  V30 35 H 0.874614 5.463150 2.304537 0
M  V30 36 H -2.082457 3.609320 6.302968 0
M  V30 37 H -1.981771 5.382563 6.245757 0
M  V30 38 H -3.253298 4.444548 5.269577 0
M  V30 39 H -1.644660 2.403183 3.808149 0
M  V30 40 H 1.719412 3.686893 0.466752 0
M  V30 41 H 2.678572 1.837339 -1.587551 0
M  V30 END ATOM
M  V30 BEGIN BOND
M  V30 1 1 1 2
M  V30 2 1 2 3
M  V30 3 2 3 4
M  V30 4 1 4 5
M  V30 5 2 5 6
M  V30 6 1 6 7
M  V30 7 2 7 8
M  V30 8 1 8 9
M  V30 9 1 9 10
M  V30 10 2 10 11
M  V30 11 1 11 12
M  V30 12 1 12 13
M  V30 13 1 13 14
M  V30 14 1 14 15
M  V30 15 1 15 16
M  V30 16 2 16 17
M  V30 17 1 17 18
M  V30 18 1 18 19
M  V30 19 1 18 20
M  V30 20 2 14 21
M  V30 21 1 21 22
M  V30 22 1 22 23
M  V30 23 2 23 24
M  V30 24 1 8 3
M  V30 25 1 24 10
M  V30 26 2 22 12
M  V30 27 2 20 15
M  V30 28 1 1 25
M  V30 29 1 1 26
M  V30 30 1 1 27
M  V30 31 1 4 28
M  V30 32 1 5 29
M  V30 33 1 6 30
M  V30 34 1 7 31
M  V30 35 1 9 32
M  V30 36 1 11 33
M  V30 37 1 13 34
M  V30 38 1 16 35
M  V30 39 1 19 36
M  V30 40 1 19 37
M  V30 41 1 19 38
M  V30 42 1 20 39
M  V30 43 1 21 40
M  V30 44 1 23 41
M  V30 END BOND
M  V30 END CTAB
M  END
>  <Dataset>  (968) 
ChEMBL_Kinases

>  <Ligand_Instance>  (968) 
nan

>  <PDB_ID>  (968) 
nan

>  <Standardized_SMILES>  (968) 
COc1ccccc1Nc1cc2[nH]c(-c3cnn(C)c3)cc2cn1

>  <Name>  (968) 
nan

>  <Pocket>  (968) 
nan

>  <ATP_Site>  (968) 
nan

>  <Peripheral>  (968) 
nan

>  <Num_H_Atoms_ProtBoundConf>  (968) 
nan

>  <Num_Resolved_Atoms>  (968) 
nan

>  <Num_Not_Resolved_Atoms>  (968) 
nan

$$$$
CHEMBL3109958
     RDKit          3D

  0  0  0  0  0  0  0  0  0  0999 V3000
M  V30 BEGIN CTAB
M  V30 COUNTS 44 47 0 0 0
M  V30 BEGIN ATOM
M  V30 1 C 3.098199 -2.607522 -2.264557 0
M  V30 2 O 2.781134 -1.252131 -2.376762 0
M  V30 3 C 3.665625 -0.200527 -2.408457 0
M  V30 4 C 5.034285 -0.377963 -2.328954 0
M  V30 5 C 5.953285 0.640914 -2.357077 0
M  V30 6 C 5.505253 1.941237 -2.472019 0
M  V30 7 C 4.128430 2.157879 -2.554616 0
M  V30 8 C 3.200883 1.114032 -2.525089 0
M  V30 9 N 1.817085 1.419408 -2.617259 0
M  V30 10 C 0.790897 1.146377 -1.679588 0
M  V30 11 C 1.040105 0.522199 -0.476923 0
M  V30 12 C 0.001641 0.270043 0.417768 0
M  V30 13 N -0.010323 -0.316353 1.636015 0
M  V30 14 C -1.292308 -0.294135 2.050949 0
M  V30 15 C -1.724803 -0.840358 3.338592 0
M  V30 16 C -0.877737 -1.431836 4.256549 0
M  V30 17 N -1.650246 -1.798290 5.296122 0
M  V30 18 N -2.910103 -1.463208 5.059291 0
M  V30 19 C -4.002829 -1.705628 5.959055 0
M  V30 20 C -4.676734 -3.039650 5.741319 0
M  V30 21 F -3.820497 -4.094300 5.906406 0
M  V30 22 F -5.328755 -3.087766 4.523582 0
M  V30 23 F -5.659188 -3.153390 6.716083 0
M  V30 24 C -3.015904 -0.860589 3.849103 0
M  V30 25 C -2.103685 0.304314 1.103584 0
M  V30 26 C -1.280991 0.674898 0.040630 0
M  V30 27 C -1.490163 1.299482 -1.177100 0
M  V30 28 N -0.452557 1.527750 -2.022387 0
M  V30 29 H 2.975134 -2.968436 -1.201996 0
M  V30 30 H 4.122216 -2.868647 -2.602592 0
M  V30 31 H 2.347555 -3.148377 -2.912379 0
M  V30 32 H 5.461172 -1.371665 -2.236704 0
M  V30 33 H 7.025948 0.454808 -2.291144 0
M  V30 34 H 6.195418 2.775780 -2.498213 0
M  V30 35 H 3.772556 3.188401 -2.645932 0
M  V30 36 H 1.671932 1.891396 -3.513299 0
M  V30 37 H 2.021758 0.216870 -0.193761 0
M  V30 38 H 0.840651 -0.696005 2.116215 0
M  V30 39 H 0.192803 -1.593092 4.202298 0
M  V30 40 H -3.609878 -1.709342 6.998297 0
M  V30 41 H -4.784005 -0.918674 5.921425 0
M  V30 42 H -3.881244 -0.472039 3.357440 0
M  V30 43 H -3.166102 0.463359 1.156371 0
M  V30 44 H -2.508030 1.589955 -1.412696 0
M  V30 END ATOM
M  V30 BEGIN BOND
M  V30 1 1 1 2
M  V30 2 1 2 3
M  V30 3 2 3 4
M  V30 4 1 4 5
M  V30 5 2 5 6
M  V30 6 1 6 7
M  V30 7 2 7 8
M  V30 8 1 8 9
M  V30 9 1 9 10
M  V30 10 2 10 11
M  V30 11 1 11 12
M  V30 12 1 12 13
M  V30 13 1 13 14
M  V30 14 1 14 15
M  V30 15 1 15 16
M  V30 16 2 16 17
M  V30 17 1 17 18
M  V30 18 1 18 19
M  V30 19 1 19 20
M  V30 20 1 20 21
M  V30 21 1 20 22
M  V30 22 1 20 23
M  V30 23 1 18 24
M  V30 24 2 14 25
M  V30 25 1 25 26
M  V30 26 1 26 27
M  V30 27 2 27 28
M  V30 28 1 8 3
M  V30 29 1 28 10
M  V30 30 2 26 12
M  V30 31 2 24 15
M  V30 32 1 1 29
M  V30 33 1 1 30
M  V30 34 1 1 31
M  V30 35 1 4 32
M  V30 36 1 5 33
M  V30 37 1 6 34
M  V30 38 1 7 35
M  V30 39 1 9 36
M  V30 40 1 11 37
M  V30 41 1 13 38
M  V30 42 1 16 39
M  V30 43 1 19 40
M  V30 44 1 19 41
M  V30 45 1 24 42
M  V30 46 1 25 43
M  V30 47 1 27 44
M  V30 END BOND
M  V30 END CTAB
M  END
>  <Dataset>  (969) 
ChEMBL_Kinases

>  <Ligand_Instance>  (969) 
nan

>  <PDB_ID>  (969) 
nan

>  <Standardized_SMILES>  (969) 
COc1ccccc1Nc1cc2[nH]c(-c3cnn(CC(F)(F)F)c3)cc2cn1

>  <Name>  (969) 
nan

>  <Pocket>  (969) 
nan

>  <ATP_Site>  (969) 
nan

>  <Peripheral>  (969) 
nan

>  <Num_H_Atoms_ProtBoundConf>  (969) 
nan

>  <Num_Resolved_Atoms>  (969) 
nan

>  <Num_Not_Resolved_Atoms>  (969) 
nan

$$$$
CHEMBL3109959
     RDKit          3D

  0  0  0  0  0  0  0  0  0  0999 V3000
M  V30 BEGIN CTAB
M  V30 COUNTS 41 44 0 0 0
M  V30 BEGIN ATOM
M  V30 1 C -0.912030 -4.335712 1.500887 0
M  V30 2 O -0.455457 -3.783305 0.304955 0
M  V30 3 C -1.208216 -3.589918 -0.843829 0
M  V30 4 C -2.553898 -3.939522 -0.934150 0
M  V30 5 C -3.325718 -3.759924 -2.061088 0
M  V30 6 C -2.751991 -3.200393 -3.183643 0
M  V30 7 C -1.420244 -2.839819 -3.135453 0
M  V30 8 C -0.666812 -3.027333 -2.000636 0
M  V30 9 N 0.695123 -2.633146 -2.034096 0
M  V30 10 C 1.350607 -1.671159 -1.229006 0
M  V30 11 C 0.664444 -0.952933 -0.274037 0
M  V30 12 C 1.380848 -0.030732 0.475795 0
M  V30 13 N 0.938740 0.783204 1.458514 0
M  V30 14 C 1.980640 1.511231 1.908670 0
M  V30 15 C 1.972386 2.519567 2.965595 0
M  V30 16 C 3.012437 3.304402 3.475461 0
M  V30 17 N 2.457223 4.057525 4.429334 0
M  V30 18 N 1.180169 3.835276 4.578845 0
M  V30 19 C 0.292469 4.495973 5.535584 0
M  V30 20 F -0.941807 3.848200 5.561978 0
M  V30 21 F 0.065606 5.786891 5.121176 0
M  V30 22 C 0.839964 2.881571 3.683051 0
M  V30 23 C 3.118718 1.142853 1.184037 0
M  V30 24 C 2.735424 0.156429 0.267251 0
M  V30 25 C 3.370859 -0.605239 -0.718111 0
M  V30 26 N 2.667761 -1.491825 -1.434680 0
M  V30 27 H -0.040378 -4.883006 1.958773 0
M  V30 28 H -1.224782 -3.566512 2.254059 0
M  V30 29 H -1.778884 -5.015734 1.381315 0
M  V30 30 H -3.048729 -4.381348 -0.080865 0
M  V30 31 H -4.371381 -4.054923 -2.065131 0
M  V30 32 H -3.383830 -3.072997 -4.051050 0
M  V30 33 H -0.988605 -2.400147 -4.033134 0
M  V30 34 H 1.178615 -3.178850 -2.774572 0
M  V30 35 H -0.393482 -1.076900 -0.091019 0
M  V30 36 H -0.026801 0.862946 1.829919 0
M  V30 37 H 4.031149 3.245873 3.109453 0
M  V30 38 H 0.714001 4.409364 6.543622 0
M  V30 39 H -0.170398 2.496576 3.582583 0
M  V30 40 H 4.143355 1.502127 1.253823 0
M  V30 41 H 4.425739 -0.444682 -0.865098 0
M  V30 END ATOM
M  V30 BEGIN BOND
M  V30 1 1 1 2
M  V30 2 1 2 3
M  V30 3 2 3 4
M  V30 4 1 4 5
M  V30 5 2 5 6
M  V30 6 1 6 7
M  V30 7 2 7 8
M  V30 8 1 8 9
M  V30 9 1 9 10
M  V30 10 2 10 11
M  V30 11 1 11 12
M  V30 12 1 12 13
M  V30 13 1 13 14
M  V30 14 1 14 15
M  V30 15 1 15 16
M  V30 16 2 16 17
M  V30 17 1 17 18
M  V30 18 1 18 19
M  V30 19 1 19 20
M  V30 20 1 19 21
M  V30 21 1 18 22
M  V30 22 2 14 23
M  V30 23 1 23 24
M  V30 24 1 24 25
M  V30 25 2 25 26
M  V30 26 1 8 3
M  V30 27 1 26 10
M  V30 28 2 24 12
M  V30 29 2 22 15
M  V30 30 1 1 27
M  V30 31 1 1 28
M  V30 32 1 1 29
M  V30 33 1 4 30
M  V30 34 1 5 31
M  V30 35 1 6 32
M  V30 36 1 7 33
M  V30 37 1 9 34
M  V30 38 1 11 35
M  V30 39 1 13 36
M  V30 40 1 16 37
M  V30 41 1 19 38
M  V30 42 1 22 39
M  V30 43 1 23 40
M  V30 44 1 25 41
M  V30 END BOND
M  V30 END CTAB
M  END
>  <Dataset>  (970) 
ChEMBL_Kinases

>  <Ligand_Instance>  (970) 
nan

>  <PDB_ID>  (970) 
nan

>  <Standardized_SMILES>  (970) 
COc1ccccc1Nc1cc2[nH]c(-c3cnn(C(F)F)c3)cc2cn1

>  <Name>  (970) 
nan

>  <Pocket>  (970) 
nan

>  <ATP_Site>  (970) 
nan

>  <Peripheral>  (970) 
nan

>  <Num_H_Atoms_ProtBoundConf>  (970) 
nan

>  <Num_Resolved_Atoms>  (970) 
nan

>  <Num_Not_Resolved_Atoms>  (970) 
nan

$$$$
CHEMBL3109946
     RDKit          3D

  0  0  0  0  0  0  0  0  0  0999 V3000
M  V30 BEGIN CTAB
M  V30 COUNTS 61 65 0 0 0
M  V30 BEGIN ATOM
M  V30 1 C 0.993735 -6.420126 4.530820 0
M  V30 2 N 1.970654 -5.484573 3.958119 0
M  V30 3 C 1.641977 -4.610954 2.991112 0
M  V30 4 C 2.715000 -3.838390 2.599688 0
M  V30 5 C 2.842173 -2.789396 1.600723 0
M  V30 6 C 3.947534 -2.049274 1.254336 0
M  V30 7 C 3.663642 -1.157361 0.248573 0
M  V30 8 C 4.428336 -0.215008 -0.427890 0
M  V30 9 N 3.877366 0.551416 -1.405993 0
M  V30 10 C 2.578078 0.402870 -1.727644 0
M  V30 11 N 1.897621 1.165993 -2.749257 0
M  V30 12 C 0.669697 1.703005 -2.202501 0
M  V30 13 C -0.627581 1.479078 -2.603424 0
M  V30 14 C -1.632516 2.111284 -1.912857 0
M  V30 15 C -1.442018 2.951055 -0.851843 0
M  V30 16 C -2.563614 3.585126 -0.163701 0
M  V30 17 C -2.459678 3.870721 1.202976 0
M  V30 18 C -3.479605 4.474960 1.947654 0
M  V30 19 C -4.665277 4.809392 1.286008 0
M  V30 20 N -4.757446 4.530634 -0.029222 0
M  V30 21 C -3.768175 3.952635 -0.720591 0
M  V30 22 C -0.157848 3.192615 -0.431321 0
M  V30 23 C 0.885228 2.560601 -1.116981 0
M  V30 24 Cl 2.507611 2.923553 -0.512017 0
M  V30 25 C 1.836641 -0.536955 -1.045470 0
M  V30 26 C 2.341945 -1.349062 -0.039314 0
M  V30 27 N 1.907474 -2.316803 0.781145 0
M  V30 28 C 0.574240 -2.693506 0.654026 0
M  V30 29 O -0.583036 -3.094667 0.620675 0
M  V30 30 O -0.418523 -2.276276 -0.174086 0
M  V30 31 C -1.718497 -2.740163 -0.187282 0
M  V30 32 C -1.909465 -4.211247 -0.450062 0
M  V30 33 C -2.319282 -2.080339 -1.471390 0
M  V30 34 C -2.612915 -2.214688 0.912036 0
M  V30 35 C 3.725274 -4.322548 3.417318 0
M  V30 36 N 3.245193 -5.302310 4.213209 0
M  V30 37 H 0.341053 -6.754321 3.690101 0
M  V30 38 H 1.546319 -7.312543 4.846750 0
M  V30 39 H 0.336138 -5.961794 5.269802 0
M  V30 40 H 0.651651 -4.514725 2.564267 0
M  V30 41 H 4.925452 -2.146998 1.709875 0
M  V30 42 H 5.458580 -0.119285 -0.150511 0
M  V30 43 H 2.288673 1.275823 -3.728365 0
M  V30 44 H -0.707980 0.809366 -3.442998 0
M  V30 45 H -2.637333 1.921566 -2.245553 0
M  V30 46 H -1.532192 3.600453 1.687407 0
M  V30 47 H -3.269944 4.641410 3.003404 0
M  V30 48 H -5.440203 5.275655 1.885383 0
M  V30 49 H -3.869235 3.737498 -1.784657 0
M  V30 50 H 0.048082 3.850078 0.407945 0
M  V30 51 H 0.794308 -0.657598 -1.301972 0
M  V30 52 H -1.090672 -4.589776 -1.079200 0
M  V30 53 H -2.836319 -4.326358 -1.047232 0
M  V30 54 H -2.084188 -4.828123 0.452485 0
M  V30 55 H -2.024191 -1.033329 -1.474476 0
M  V30 56 H -1.812191 -2.646583 -2.296033 0
M  V30 57 H -3.390334 -2.299412 -1.468495 0
M  V30 58 H -2.763417 -1.102765 0.769441 0
M  V30 59 H -3.641460 -2.655297 0.782638 0
M  V30 60 H -2.220780 -2.356059 1.909037 0
M  V30 61 H 4.768422 -4.028793 3.480812 0
M  V30 END ATOM
M  V30 BEGIN BOND
M  V30 1 1 1 2
M  V30 2 1 2 3
M  V30 3 2 3 4
M  V30 4 1 4 5
M  V30 5 2 5 6
M  V30 6 1 6 7
M  V30 7 2 7 8
M  V30 8 1 8 9
M  V30 9 2 9 10
M  V30 10 1 10 11
M  V30 11 1 11 12
M  V30 12 2 12 13
M  V30 13 1 13 14
M  V30 14 2 14 15
M  V30 15 1 15 16
M  V30 16 2 16 17
M  V30 17 1 17 18
M  V30 18 2 18 19
M  V30 19 1 19 20
M  V30 20 2 20 21
M  V30 21 1 15 22
M  V30 22 2 22 23
M  V30 23 1 23 24
M  V30 24 1 10 25
M  V30 25 2 25 26
M  V30 26 1 26 27
M  V30 27 1 27 28
M  V30 28 2 28 29
M  V30 29 1 28 30
M  V30 30 1 30 31
M  V30 31 1 31 32
M  V30 32 1 31 33
M  V30 33 1 31 34
M  V30 34 1 4 35
M  V30 35 2 35 36
M  V30 36 1 36 2
M  V30 37 1 27 5
M  V30 38 1 26 7
M  V30 39 1 23 12
M  V30 40 1 21 16
M  V30 41 1 1 37
M  V30 42 1 1 38
M  V30 43 1 1 39
M  V30 44 1 3 40
M  V30 45 1 6 41
M  V30 46 1 8 42
M  V30 47 1 11 43
M  V30 48 1 13 44
M  V30 49 1 14 45
M  V30 50 1 17 46
M  V30 51 1 18 47
M  V30 52 1 19 48
M  V30 53 1 21 49
M  V30 54 1 22 50
M  V30 55 1 25 51
M  V30 56 1 32 52
M  V30 57 1 32 53
M  V30 58 1 32 54
M  V30 59 1 33 55
M  V30 60 1 33 56
M  V30 61 1 33 57
M  V30 62 1 34 58
M  V30 63 1 34 59
M  V30 64 1 34 60
M  V30 65 1 35 61
M  V30 END BOND
M  V30 END CTAB
M  END
>  <Dataset>  (971) 
ChEMBL_Kinases

>  <Ligand_Instance>  (971) 
nan

>  <PDB_ID>  (971) 
nan

>  <Standardized_SMILES>  (971) 
Cn1cc(-c2cc3cnc(Nc4ccc(-c5cccnc5)cc4Cl)cc3n2C(=O)OC(C)(C)C)cn1

>  <Name>  (971) 
nan

>  <Pocket>  (971) 
nan

>  <ATP_Site>  (971) 
nan

>  <Peripheral>  (971) 
nan

>  <Num_H_Atoms_ProtBoundConf>  (971) 
nan

>  <Num_Resolved_Atoms>  (971) 
nan

>  <Num_Not_Resolved_Atoms>  (971) 
nan

$$$$
CHEMBL3113145
     RDKit          3D

  0  0  0  0  0  0  0  0  0  0999 V3000
M  V30 BEGIN CTAB
M  V30 COUNTS 41 44 0 0 0
M  V30 BEGIN ATOM
M  V30 1 Cl -0.722915 -5.816022 3.453875 0
M  V30 2 C -0.626026 -4.439722 2.366663 0
M  V30 3 C -1.781502 -3.775188 2.040736 0
M  V30 4 C -1.780617 -2.689644 1.195674 0
M  V30 5 C -0.580052 -2.232928 0.641506 0
M  V30 6 C -0.302107 -1.106086 -0.280823 0
M  V30 7 N 0.656526 -1.484733 -1.239292 0
M  V30 8 C 0.363437 -2.483564 -2.187998 0
M  V30 9 C -0.781009 -2.206585 -3.202902 0
M  V30 10 C -0.782693 -3.382541 -2.220505 0
M  V30 11 C 0.194152 0.046588 0.542268 0
M  V30 12 C 0.783713 1.060507 -0.187779 0
M  V30 13 C 1.287219 2.191689 0.464409 0
M  V30 14 C 1.153399 2.216397 1.855097 0
M  V30 15 C 1.653859 3.366621 2.627139 0
M  V30 16 C 1.703342 4.697409 2.199494 0
M  V30 17 N 2.228338 5.423017 3.208267 0
M  V30 18 N 2.508924 4.631308 4.235720 0
M  V30 19 C 2.165851 3.350192 3.910589 0
M  V30 20 C 0.563606 1.202908 2.589564 0
M  V30 21 C 0.075503 0.097854 1.917374 0
M  V30 22 C 0.583073 -2.928281 0.990136 0
M  V30 23 C 0.580033 -4.016688 1.837714 0
M  V30 24 H -2.757294 -4.052737 2.418653 0
M  V30 25 H -2.608371 -2.078519 0.856907 0
M  V30 26 H -1.265507 -0.747611 -0.708610 0
M  V30 27 H 1.652051 -1.390570 -0.954304 0
M  V30 28 H 1.285877 -2.845815 -2.738921 0
M  V30 29 H -1.382940 -1.314970 -2.926243 0
M  V30 30 H -0.596848 -2.382812 -4.262433 0
M  V30 31 H -1.624504 -3.422171 -1.536396 0
M  V30 32 H -0.649022 -4.365896 -2.766196 0
M  V30 33 H 0.890691 1.050866 -1.250760 0
M  V30 34 H 1.757621 3.015757 -0.045180 0
M  V30 35 H 1.369977 5.063076 1.216897 0
M  V30 36 H 2.923462 4.919433 5.150015 0
M  V30 37 H 2.277469 2.468238 4.554035 0
M  V30 38 H 0.473845 1.247472 3.659263 0
M  V30 39 H -0.398217 -0.741354 2.387178 0
M  V30 40 H 1.587619 -2.679629 0.630485 0
M  V30 41 H 1.472872 -4.561315 2.113765 0
M  V30 END ATOM
M  V30 BEGIN BOND
M  V30 1 1 1 2
M  V30 2 2 2 3
M  V30 3 1 3 4
M  V30 4 2 4 5
M  V30 5 1 5 6
M  V30 6 1 6 7
M  V30 7 1 7 8
M  V30 8 1 8 9
M  V30 9 1 9 10
M  V30 10 1 6 11
M  V30 11 2 11 12
M  V30 12 1 12 13
M  V30 13 2 13 14
M  V30 14 1 14 15
M  V30 15 1 15 16
M  V30 16 2 16 17
M  V30 17 1 17 18
M  V30 18 1 18 19
M  V30 19 1 14 20
M  V30 20 2 20 21
M  V30 21 1 5 22
M  V30 22 2 22 23
M  V30 23 1 23 2
M  V30 24 1 10 8
M  V30 25 1 21 11
M  V30 26 2 19 15
M  V30 27 1 3 24
M  V30 28 1 4 25
M  V30 29 1 6 26
M  V30 30 1 7 27
M  V30 31 1 8 28
M  V30 32 1 9 29
M  V30 33 1 9 30
M  V30 34 1 10 31
M  V30 35 1 10 32
M  V30 36 1 12 33
M  V30 37 1 13 34
M  V30 38 1 16 35
M  V30 39 1 18 36
M  V30 40 1 19 37
M  V30 41 1 20 38
M  V30 42 1 21 39
M  V30 43 1 22 40
M  V30 44 1 23 41
M  V30 END BOND
M  V30 END CTAB
M  END
>  <Dataset>  (972) 
ChEMBL_Kinases

>  <Ligand_Instance>  (972) 
nan

>  <PDB_ID>  (972) 
nan

>  <Standardized_SMILES>  (972) 
Clc1ccc(C(NC2CC2)c2ccc(-c3cn[nH]c3)cc2)cc1

>  <Name>  (972) 
nan

>  <Pocket>  (972) 
nan

>  <ATP_Site>  (972) 
nan

>  <Peripheral>  (972) 
nan

>  <Num_H_Atoms_ProtBoundConf>  (972) 
nan

>  <Num_Resolved_Atoms>  (972) 
nan

>  <Num_Not_Resolved_Atoms>  (972) 
nan

$$$$
CHEMBL3113144
     RDKit          3D

  0  0  0  0  0  0  0  0  0  0999 V3000
M  V30 BEGIN CTAB
M  V30 COUNTS 46 48 0 0 0
M  V30 BEGIN ATOM
M  V30 1 C 0.992717 -4.611645 -1.060789 0
M  V30 2 C -0.177317 -3.669124 -0.877110 0
M  V30 3 C -1.038438 -4.052036 0.291515 0
M  V30 4 C 0.333892 -2.220970 -0.715248 0
M  V30 5 N 1.171667 -2.149478 0.408518 0
M  V30 6 C 1.699216 -0.916344 0.842414 0
M  V30 7 C 2.456295 -0.117578 -0.139230 0
M  V30 8 C 3.816471 0.172161 0.026822 0
M  V30 9 C 4.596799 0.926963 -0.811992 0
M  V30 10 C 4.016242 1.462736 -1.929425 0
M  V30 11 Cl 4.902713 2.440705 -3.074156 0
M  V30 12 C 2.693812 1.223323 -2.157350 0
M  V30 13 C 1.925371 0.449538 -1.282392 0
M  V30 14 C 0.576994 -0.122350 1.433996 0
M  V30 15 C 0.295842 1.213921 1.237452 0
M  V30 16 C -0.792200 1.780921 1.869270 0
M  V30 17 C -1.636126 1.080548 2.704312 0
M  V30 18 C -2.771961 1.727013 3.345962 0
M  V30 19 C -3.951725 1.070479 3.652077 0
M  V30 20 N -4.813314 1.947803 4.243865 0
M  V30 21 N -4.209416 3.138241 4.318721 0
M  V30 22 C -2.982018 3.018480 3.782344 0
M  V30 23 C -1.363712 -0.255812 2.907444 0
M  V30 24 C -0.264473 -0.847643 2.274663 0
M  V30 25 H 1.386457 -4.989467 -0.113093 0
M  V30 26 H 0.643927 -5.472780 -1.661562 0
M  V30 27 H 1.801382 -4.062768 -1.601751 0
M  V30 28 H -0.778523 -3.682156 -1.815021 0
M  V30 29 H -1.390554 -3.151458 0.802488 0
M  V30 30 H -0.532992 -4.719861 1.015049 0
M  V30 31 H -1.963527 -4.588095 -0.062731 0
M  V30 32 H -0.550644 -1.587556 -0.634853 0
M  V30 33 H 0.859015 -1.958197 -1.687373 0
M  V30 34 H 1.676682 -3.007213 0.690482 0
M  V30 35 H 2.411741 -1.045930 1.716992 0
M  V30 36 H 4.300659 -0.248585 0.914956 0
M  V30 37 H 5.637932 1.091240 -0.592513 0
M  V30 38 H 2.222332 1.643749 -3.040287 0
M  V30 39 H 0.883487 0.327756 -1.530425 0
M  V30 40 H 0.965982 1.721132 0.591155 0
M  V30 41 H -0.934302 2.830672 1.657032 0
M  V30 42 H -4.222025 0.033369 3.481754 0
M  V30 43 H -4.614833 4.009503 4.721137 0
M  V30 44 H -2.216033 3.802140 3.680668 0
M  V30 45 H -2.031145 -0.785911 3.561318 0
M  V30 46 H -0.144053 -1.895907 2.502797 0
M  V30 END ATOM
M  V30 BEGIN BOND
M  V30 1 1 1 2
M  V30 2 1 2 3
M  V30 3 1 2 4
M  V30 4 1 4 5
M  V30 5 1 5 6
M  V30 6 1 6 7
M  V30 7 2 7 8
M  V30 8 1 8 9
M  V30 9 2 9 10
M  V30 10 1 10 11
M  V30 11 1 10 12
M  V30 12 2 12 13
M  V30 13 1 6 14
M  V30 14 2 14 15
M  V30 15 1 15 16
M  V30 16 2 16 17
M  V30 17 1 17 18
M  V30 18 1 18 19
M  V30 19 2 19 20
M  V30 20 1 20 21
M  V30 21 1 21 22
M  V30 22 1 17 23
M  V30 23 2 23 24
M  V30 24 1 13 7
M  V30 25 1 24 14
M  V30 26 2 22 18
M  V30 27 1 1 25
M  V30 28 1 1 26
M  V30 29 1 1 27
M  V30 30 1 2 28
M  V30 31 1 3 29
M  V30 32 1 3 30
M  V30 33 1 3 31
M  V30 34 1 4 32
M  V30 35 1 4 33
M  V30 36 1 5 34
M  V30 37 1 6 35
M  V30 38 1 8 36
M  V30 39 1 9 37
M  V30 40 1 12 38
M  V30 41 1 13 39
M  V30 42 1 15 40
M  V30 43 1 16 41
M  V30 44 1 19 42
M  V30 45 1 21 43
M  V30 46 1 22 44
M  V30 47 1 23 45
M  V30 48 1 24 46
M  V30 END BOND
M  V30 END CTAB
M  END
>  <Dataset>  (973) 
ChEMBL_Kinases

>  <Ligand_Instance>  (973) 
nan

>  <PDB_ID>  (973) 
nan

>  <Standardized_SMILES>  (973) 
CC(C)CNC(c1ccc(Cl)cc1)c1ccc(-c2cn[nH]c2)cc1

>  <Name>  (973) 
nan

>  <Pocket>  (973) 
nan

>  <ATP_Site>  (973) 
nan

>  <Peripheral>  (973) 
nan

>  <Num_H_Atoms_ProtBoundConf>  (973) 
nan

>  <Num_Resolved_Atoms>  (973) 
nan

>  <Num_Not_Resolved_Atoms>  (973) 
nan

$$$$
CHEMBL3113143
     RDKit          3D

  0  0  0  0  0  0  0  0  0  0999 V3000
M  V30 BEGIN CTAB
M  V30 COUNTS 43 45 0 0 0
M  V30 BEGIN ATOM
M  V30 1 C 1.221412 -4.380055 -0.916895 0
M  V30 2 C 1.535491 -3.277132 0.122053 0
M  V30 3 C 0.491676 -3.446946 1.168267 0
M  V30 4 N 1.579687 -2.076742 -0.607653 0
M  V30 5 C 1.909474 -0.859806 0.019306 0
M  V30 6 C 2.056268 0.277295 -0.948966 0
M  V30 7 C 1.194781 0.546802 -1.992534 0
M  V30 8 C 1.406686 1.618554 -2.835837 0
M  V30 9 C 2.479709 2.463414 -2.677233 0
M  V30 10 Cl 2.780748 3.828548 -3.722376 0
M  V30 11 C 3.372667 2.240209 -1.650077 0
M  V30 12 C 3.129894 1.168758 -0.835009 0
M  V30 13 C 0.852377 -0.513444 1.030723 0
M  V30 14 C 1.232506 -0.087556 2.313127 0
M  V30 15 C 0.270719 0.247082 3.244024 0
M  V30 16 C -1.077259 0.182461 2.970361 0
M  V30 17 C -2.141162 0.521456 3.908904 0
M  V30 18 C -2.190807 0.399321 5.281821 0
M  V30 19 N -3.401287 0.851069 5.715286 0
M  V30 20 N -4.116285 1.252532 4.674483 0
M  V30 21 C -3.371313 1.062316 3.561975 0
M  V30 22 C -1.459818 -0.235480 1.711570 0
M  V30 23 C -0.510817 -0.573537 0.770165 0
M  V30 24 H 1.603321 -5.356454 -0.608441 0
M  V30 25 H 0.105740 -4.483324 -0.985629 0
M  V30 26 H 1.632870 -4.127275 -1.893491 0
M  V30 27 H 2.541893 -3.585974 0.517200 0
M  V30 28 H 0.602943 -2.879092 2.086185 0
M  V30 29 H -0.528571 -3.438374 0.713579 0
M  V30 30 H 0.591560 -4.532008 1.506845 0
M  V30 31 H 0.810512 -2.046860 -1.290128 0
M  V30 32 H 2.853546 -0.939046 0.560640 0
M  V30 33 H 0.349533 -0.115550 -2.121686 0
M  V30 34 H 0.724299 1.818052 -3.648924 0
M  V30 35 H 4.249951 2.844020 -1.436324 0
M  V30 36 H 3.818565 0.961140 -0.008810 0
M  V30 37 H 2.284504 -0.027671 2.553774 0
M  V30 38 H 0.557343 0.575145 4.231360 0
M  V30 39 H -1.341948 -0.006533 5.833205 0
M  V30 40 H -5.082851 1.639617 4.765997 0
M  V30 41 H -3.721655 1.310429 2.557702 0
M  V30 42 H -2.489050 -0.305193 1.442945 0
M  V30 43 H -0.832883 -0.893546 -0.192694 0
M  V30 END ATOM
M  V30 BEGIN BOND
M  V30 1 1 1 2
M  V30 2 1 2 3
M  V30 3 1 2 4
M  V30 4 1 4 5
M  V30 5 1 5 6
M  V30 6 2 6 7
M  V30 7 1 7 8
M  V30 8 2 8 9
M  V30 9 1 9 10
M  V30 10 1 9 11
M  V30 11 2 11 12
M  V30 12 1 5 13
M  V30 13 2 13 14
M  V30 14 1 14 15
M  V30 15 2 15 16
M  V30 16 1 16 17
M  V30 17 1 17 18
M  V30 18 2 18 19
M  V30 19 1 19 20
M  V30 20 1 20 21
M  V30 21 1 16 22
M  V30 22 2 22 23
M  V30 23 1 12 6
M  V30 24 1 23 13
M  V30 25 2 21 17
M  V30 26 1 1 24
M  V30 27 1 1 25
M  V30 28 1 1 26
M  V30 29 1 2 27
M  V30 30 1 3 28
M  V30 31 1 3 29
M  V30 32 1 3 30
M  V30 33 1 4 31
M  V30 34 1 5 32
M  V30 35 1 7 33
M  V30 36 1 8 34
M  V30 37 1 11 35
M  V30 38 1 12 36
M  V30 39 1 14 37
M  V30 40 1 15 38
M  V30 41 1 18 39
M  V30 42 1 20 40
M  V30 43 1 21 41
M  V30 44 1 22 42
M  V30 45 1 23 43
M  V30 END BOND
M  V30 END CTAB
M  END
>  <Dataset>  (974) 
ChEMBL_Kinases

>  <Ligand_Instance>  (974) 
nan

>  <PDB_ID>  (974) 
nan

>  <Standardized_SMILES>  (974) 
CC(C)NC(c1ccc(Cl)cc1)c1ccc(-c2cn[nH]c2)cc1

>  <Name>  (974) 
nan

>  <Pocket>  (974) 
nan

>  <ATP_Site>  (974) 
nan

>  <Peripheral>  (974) 
nan

>  <Num_H_Atoms_ProtBoundConf>  (974) 
nan

>  <Num_Resolved_Atoms>  (974) 
nan

>  <Num_Not_Resolved_Atoms>  (974) 
nan

$$$$
CHEMBL3113142
     RDKit          3D

  0  0  0  0  0  0  0  0  0  0999 V3000
M  V30 BEGIN CTAB
M  V30 COUNTS 51 55 0 0 0
M  V30 BEGIN ATOM
M  V30 1 Cl 1.918467 -3.431287 6.823960 0
M  V30 2 C 1.721428 -2.510241 5.347889 0
M  V30 3 C 0.492399 -2.497876 4.687736 0
M  V30 4 C 0.312656 -1.776304 3.518070 0
M  V30 5 C 1.358812 -1.066076 3.005399 0
M  V30 6 C 1.344187 -0.229390 1.750199 0
M  V30 7 N 2.534867 -0.546201 1.043016 0
M  V30 8 C 2.763035 0.133920 -0.185535 0
M  V30 9 C 2.867723 1.587147 -0.074547 0
M  V30 10 C 4.140037 2.123087 0.155391 0
M  V30 11 C 4.426848 3.468230 0.286175 0
M  V30 12 C 3.370867 4.359020 0.181461 0
M  V30 13 C 2.096632 3.882446 -0.044963 0
M  V30 14 C 1.864652 2.534536 -0.167524 0
M  V30 15 C 0.094337 -0.469201 0.984829 0
M  V30 16 C -1.032316 0.316339 0.848348 0
M  V30 17 C -2.082001 -0.127359 0.071930 0
M  V30 18 C -2.043509 -1.342916 -0.579924 0
M  V30 19 C -3.252841 -1.619666 -1.344993 0
M  V30 20 N -3.768058 -0.633205 -2.111652 0
M  V30 21 C -4.883832 -0.791886 -2.856055 0
M  V30 22 N -5.571212 -1.955485 -2.889272 0
M  V30 23 C -5.088717 -2.957588 -2.140048 0
M  V30 24 N -5.457116 -4.229710 -1.899009 0
M  V30 25 C -4.632216 -4.859625 -1.050441 0
M  V30 26 N -3.665588 -3.957212 -0.710852 0
M  V30 27 C -3.935860 -2.816793 -1.361670 0
M  V30 28 C -0.922060 -2.136286 -0.450403 0
M  V30 29 C 0.135867 -1.701013 0.325531 0
M  V30 30 C 2.579993 -1.075651 3.657298 0
M  V30 31 C 2.773849 -1.789908 4.823420 0
M  V30 32 H -0.371408 -3.056621 5.069762 0
M  V30 33 H -0.610421 -1.725137 2.959821 0
M  V30 34 H 1.301239 0.822455 2.099489 0
M  V30 35 H 2.658686 -1.566315 1.002608 0
M  V30 36 H 1.927363 -0.133953 -0.868065 0
M  V30 37 H 3.700064 -0.257172 -0.635226 0
M  V30 38 H 4.998392 1.443223 0.243361 0
M  V30 39 H 5.437907 3.793118 0.462392 0
M  V30 40 H 3.545393 5.421521 0.276792 0
M  V30 41 H 1.235154 4.552879 -0.134027 0
M  V30 42 H 0.877280 2.131643 -0.345983 0
M  V30 43 H -0.950429 1.239031 1.399388 0
M  V30 44 H -2.912467 0.580528 0.042486 0
M  V30 45 H -5.170275 0.088961 -3.414975 0
M  V30 46 H -6.325143 -4.609667 -2.375766 0
M  V30 47 H -4.720247 -5.883993 -0.705310 0
M  V30 48 H -0.966921 -3.066801 -0.987023 0
M  V30 49 H 0.943408 -2.438335 0.327141 0
M  V30 50 H 3.458586 -0.541768 3.320048 0
M  V30 51 H 3.730207 -1.804149 5.343978 0
M  V30 END ATOM
M  V30 BEGIN BOND
M  V30 1 1 1 2
M  V30 2 2 2 3
M  V30 3 1 3 4
M  V30 4 2 4 5
M  V30 5 1 5 6
M  V30 6 1 6 7
M  V30 7 1 7 8
M  V30 8 1 8 9
M  V30 9 2 9 10
M  V30 10 1 10 11
M  V30 11 2 11 12
M  V30 12 1 12 13
M  V30 13 2 13 14
M  V30 14 1 6 15
M  V30 15 2 15 16
M  V30 16 1 16 17
M  V30 17 2 17 18
M  V30 18 1 18 19
M  V30 19 2 19 20
M  V30 20 1 20 21
M  V30 21 2 21 22
M  V30 22 1 22 23
M  V30 23 1 23 24
M  V30 24 1 24 25
M  V30 25 2 25 26
M  V30 26 1 26 27
M  V30 27 1 18 28
M  V30 28 2 28 29
M  V30 29 1 5 30
M  V30 30 2 30 31
M  V30 31 1 31 2
M  V30 32 1 14 9
M  V30 33 1 29 15
M  V30 34 1 27 19
M  V30 35 2 27 23
M  V30 36 1 3 32
M  V30 37 1 4 33
M  V30 38 1 6 34
M  V30 39 1 7 35
M  V30 40 1 8 36
M  V30 41 1 8 37
M  V30 42 1 10 38
M  V30 43 1 11 39
M  V30 44 1 12 40
M  V30 45 1 13 41
M  V30 46 1 14 42
M  V30 47 1 16 43
M  V30 48 1 17 44
M  V30 49 1 21 45
M  V30 50 1 24 46
M  V30 51 1 25 47
M  V30 52 1 28 48
M  V30 53 1 29 49
M  V30 54 1 30 50
M  V30 55 1 31 51
M  V30 END BOND
M  V30 END CTAB
M  END
>  <Dataset>  (975) 
ChEMBL_Kinases

>  <Ligand_Instance>  (975) 
nan

>  <PDB_ID>  (975) 
nan

>  <Standardized_SMILES>  (975) 
Clc1ccc(C(NCc2ccccc2)c2ccc(-c3ncnc4[nH]cnc34)cc2)cc1

>  <Name>  (975) 
nan

>  <Pocket>  (975) 
nan

>  <ATP_Site>  (975) 
nan

>  <Peripheral>  (975) 
nan

>  <Num_H_Atoms_ProtBoundConf>  (975) 
nan

>  <Num_Resolved_Atoms>  (975) 
nan

>  <Num_Not_Resolved_Atoms>  (975) 
nan

$$$$
CHEMBL3113141
     RDKit          3D

  0  0  0  0  0  0  0  0  0  0999 V3000
M  V30 BEGIN CTAB
M  V30 COUNTS 54 58 0 0 0
M  V30 BEGIN ATOM
M  V30 1 Cl 4.091970 -4.708829 2.685182 0
M  V30 2 C 3.129327 -3.434699 1.988080 0
M  V30 3 C 2.277714 -2.685107 2.759317 0
M  V30 4 C 1.535593 -1.687911 2.167075 0
M  V30 5 C 1.584235 -1.371918 0.803956 0
M  V30 6 C 0.782949 -0.306346 0.160162 0
M  V30 7 N 0.827539 0.876770 0.846237 0
M  V30 8 C 1.884700 1.731008 1.034925 0
M  V30 9 C 3.036656 1.093335 1.770804 0
M  V30 10 C 4.067676 2.203655 1.998471 0
M  V30 11 C 4.815738 2.474375 0.693192 0
M  V30 12 C 3.850222 2.063072 -0.403358 0
M  V30 13 C 2.428220 2.499829 -0.116864 0
M  V30 14 C -0.644886 -0.805081 0.147879 0
M  V30 15 C -1.539851 0.229229 -0.151111 0
M  V30 16 C -2.906647 -0.041997 -0.207825 0
M  V30 17 C -3.313726 -1.340172 0.038284 0
M  V30 18 C -4.747673 -1.640149 -0.017952 0
M  V30 19 N -5.653623 -0.817369 0.579580 0
M  V30 20 C -6.988421 -1.094058 0.528121 0
M  V30 21 N -7.423096 -2.192140 -0.119481 0
M  V30 22 C -6.540992 -3.037034 -0.728697 0
M  V30 23 N -6.707338 -4.177129 -1.427340 0
M  V30 24 C -5.501067 -4.636022 -1.824699 0
M  V30 25 N -4.575534 -3.772943 -1.368751 0
M  V30 26 C -5.172524 -2.772424 -0.687866 0
M  V30 27 C -2.424103 -2.358344 0.333337 0
M  V30 28 C -1.070510 -2.094620 0.390596 0
M  V30 29 C 2.481267 -2.192870 0.106894 0
M  V30 30 C 3.237712 -3.192223 0.647792 0
M  V30 31 H 2.186593 -2.870467 3.817983 0
M  V30 32 H 0.868315 -1.104300 2.784837 0
M  V30 33 H 1.101896 -0.316528 -0.901675 0
M  V30 34 H -0.024612 1.018739 1.435340 0
M  V30 35 H 1.525780 2.526355 1.770662 0
M  V30 36 H 3.480504 0.226551 1.290455 0
M  V30 37 H 2.671871 0.866832 2.815100 0
M  V30 38 H 3.512973 3.135066 2.228942 0
M  V30 39 H 4.734804 1.973960 2.829347 0
M  V30 40 H 5.659562 1.774639 0.640769 0
M  V30 41 H 5.093901 3.523164 0.573806 0
M  V30 42 H 3.865488 0.976942 -0.557954 0
M  V30 43 H 4.195472 2.538986 -1.369407 0
M  V30 44 H 2.498424 3.586210 0.083043 0
M  V30 45 H 1.897508 2.361685 -1.073507 0
M  V30 46 H -1.283566 1.243752 -0.348629 0
M  V30 47 H -3.636305 0.730375 -0.436235 0
M  V30 48 H -7.693445 -0.447768 0.996961 0
M  V30 49 H -7.674447 -4.578078 -1.590200 0
M  V30 50 H -5.359604 -5.545833 -2.407230 0
M  V30 51 H -2.744632 -3.372806 0.525404 0
M  V30 52 H -0.292246 -2.793266 0.607301 0
M  V30 53 H 2.584686 -2.018282 -0.963185 0
M  V30 54 H 3.900513 -3.771267 0.030833 0
M  V30 END ATOM
M  V30 BEGIN BOND
M  V30 1 1 1 2
M  V30 2 2 2 3
M  V30 3 1 3 4
M  V30 4 2 4 5
M  V30 5 1 5 6
M  V30 6 1 6 7
M  V30 7 1 7 8
M  V30 8 1 8 9
M  V30 9 1 9 10
M  V30 10 1 10 11
M  V30 11 1 11 12
M  V30 12 1 12 13
M  V30 13 1 6 14
M  V30 14 2 14 15
M  V30 15 1 15 16
M  V30 16 2 16 17
M  V30 17 1 17 18
M  V30 18 2 18 19
M  V30 19 1 19 20
M  V30 20 2 20 21
M  V30 21 1 21 22
M  V30 22 1 22 23
M  V30 23 1 23 24
M  V30 24 2 24 25
M  V30 25 1 25 26
M  V30 26 1 17 27
M  V30 27 2 27 28
M  V30 28 1 5 29
M  V30 29 2 29 30
M  V30 30 1 30 2
M  V30 31 1 13 8
M  V30 32 1 28 14
M  V30 33 1 26 18
M  V30 34 2 26 22
M  V30 35 1 3 31
M  V30 36 1 4 32
M  V30 37 1 6 33
M  V30 38 1 7 34
M  V30 39 1 8 35
M  V30 40 1 9 36
M  V30 41 1 9 37
M  V30 42 1 10 38
M  V30 43 1 10 39
M  V30 44 1 11 40
M  V30 45 1 11 41
M  V30 46 1 12 42
M  V30 47 1 12 43
M  V30 48 1 13 44
M  V30 49 1 13 45
M  V30 50 1 15 46
M  V30 51 1 16 47
M  V30 52 1 20 48
M  V30 53 1 23 49
M  V30 54 1 24 50
M  V30 55 1 27 51
M  V30 56 1 28 52
M  V30 57 1 29 53
M  V30 58 1 30 54
M  V30 END BOND
M  V30 END CTAB
M  END
>  <Dataset>  (976) 
ChEMBL_Kinases

>  <Ligand_Instance>  (976) 
nan

>  <PDB_ID>  (976) 
nan

>  <Standardized_SMILES>  (976) 
Clc1ccc(C(NC2CCCCC2)c2ccc(-c3ncnc4[nH]cnc34)cc2)cc1

>  <Name>  (976) 
nan

>  <Pocket>  (976) 
nan

>  <ATP_Site>  (976) 
nan

>  <Peripheral>  (976) 
nan

>  <Num_H_Atoms_ProtBoundConf>  (976) 
nan

>  <Num_Resolved_Atoms>  (976) 
nan

>  <Num_Not_Resolved_Atoms>  (976) 
nan

$$$$
CHEMBL3113140
     RDKit          3D

  0  0  0  0  0  0  0  0  0  0999 V3000
M  V30 BEGIN CTAB
M  V30 COUNTS 50 53 0 0 0
M  V30 BEGIN ATOM
M  V30 1 C -1.882044 2.615721 1.073866 0
M  V30 2 C -1.317814 2.612184 2.469707 0
M  V30 3 C -0.713247 3.977441 2.813556 0
M  V30 4 C -0.337900 1.507051 2.748198 0
M  V30 5 N 0.819396 1.434214 1.997063 0
M  V30 6 C 0.888677 1.102646 0.647602 0
M  V30 7 C 2.312019 1.106918 0.136622 0
M  V30 8 C 3.344085 0.532173 0.855863 0
M  V30 9 C 4.648667 0.526908 0.408997 0
M  V30 10 C 4.966802 1.109777 -0.798107 0
M  V30 11 Cl 6.583151 1.167770 -1.472904 0
M  V30 12 C 3.964468 1.699842 -1.556512 0
M  V30 13 C 2.690040 1.674302 -1.062350 0
M  V30 14 C 0.330381 -0.209537 0.230586 0
M  V30 15 C -0.453031 -0.381769 -0.921468 0
M  V30 16 C -0.949189 -1.629615 -1.254249 0
M  V30 17 C -0.694299 -2.755265 -0.467606 0
M  V30 18 C -1.193060 -4.090240 -0.769672 0
M  V30 19 N -1.173631 -4.686110 -2.001205 0
M  V30 20 C -1.663382 -5.935742 -2.178357 0
M  V30 21 N -2.191322 -6.668937 -1.191170 0
M  V30 22 C -2.255473 -6.171487 0.054469 0
M  V30 23 N -2.707614 -6.623701 1.235707 0
M  V30 24 C -2.488990 -5.632961 2.144350 0
M  V30 25 N -1.904337 -4.580235 1.514377 0
M  V30 26 C -1.748779 -4.899562 0.197971 0
M  V30 27 C 0.079750 -2.504621 0.642334 0
M  V30 28 C 0.614485 -1.300731 1.050168 0
M  V30 29 H -2.969450 2.924164 1.087972 0
M  V30 30 H -1.868864 1.618751 0.613377 0
M  V30 31 H -1.376654 3.405641 0.472244 0
M  V30 32 H -2.210441 2.545995 3.159770 0
M  V30 33 H 0.067484 4.257024 2.097069 0
M  V30 34 H -1.581977 4.693366 2.788023 0
M  V30 35 H -0.287108 3.965731 3.836515 0
M  V30 36 H -0.948180 0.577714 2.822942 0
M  V30 37 H -0.020372 1.665903 3.829656 0
M  V30 38 H 1.651521 1.948420 2.326614 0
M  V30 39 H 0.427207 1.934978 0.061212 0
M  V30 40 H 3.159659 0.063274 1.805356 0
M  V30 41 H 5.460144 0.074753 0.975676 0
M  V30 42 H 4.186837 2.163890 -2.506058 0
M  V30 43 H 1.912413 2.146468 -1.677581 0
M  V30 44 H -0.650698 0.489796 -1.531044 0
M  V30 45 H -1.561578 -1.765897 -2.155235 0
M  V30 46 H -1.611996 -6.344663 -3.197699 0
M  V30 47 H -3.143651 -7.554363 1.426863 0
M  V30 48 H -2.774099 -5.766521 3.180060 0
M  V30 49 H 0.279351 -3.393795 1.261158 0
M  V30 50 H 1.194164 -1.288499 1.944540 0
M  V30 END ATOM
M  V30 BEGIN BOND
M  V30 1 1 1 2
M  V30 2 1 2 3
M  V30 3 1 2 4
M  V30 4 1 4 5
M  V30 5 1 5 6
M  V30 6 1 6 7
M  V30 7 2 7 8
M  V30 8 1 8 9
M  V30 9 2 9 10
M  V30 10 1 10 11
M  V30 11 1 10 12
M  V30 12 2 12 13
M  V30 13 1 6 14
M  V30 14 2 14 15
M  V30 15 1 15 16
M  V30 16 2 16 17
M  V30 17 1 17 18
M  V30 18 2 18 19
M  V30 19 1 19 20
M  V30 20 2 20 21
M  V30 21 1 21 22
M  V30 22 1 22 23
M  V30 23 1 23 24
M  V30 24 2 24 25
M  V30 25 1 25 26
M  V30 26 1 17 27
M  V30 27 2 27 28
M  V30 28 1 13 7
M  V30 29 1 28 14
M  V30 30 1 26 18
M  V30 31 2 26 22
M  V30 32 1 1 29
M  V30 33 1 1 30
M  V30 34 1 1 31
M  V30 35 1 2 32
M  V30 36 1 3 33
M  V30 37 1 3 34
M  V30 38 1 3 35
M  V30 39 1 4 36
M  V30 40 1 4 37
M  V30 41 1 5 38
M  V30 42 1 6 39
M  V30 43 1 8 40
M  V30 44 1 9 41
M  V30 45 1 12 42
M  V30 46 1 13 43
M  V30 47 1 15 44
M  V30 48 1 16 45
M  V30 49 1 20 46
M  V30 50 1 23 47
M  V30 51 1 24 48
M  V30 52 1 27 49
M  V30 53 1 28 50
M  V30 END BOND
M  V30 END CTAB
M  END
>  <Dataset>  (977) 
ChEMBL_Kinases

>  <Ligand_Instance>  (977) 
nan

>  <PDB_ID>  (977) 
nan

>  <Standardized_SMILES>  (977) 
CC(C)CNC(c1ccc(Cl)cc1)c1ccc(-c2ncnc3[nH]cnc23)cc1

>  <Name>  (977) 
nan

>  <Pocket>  (977) 
nan

>  <ATP_Site>  (977) 
nan

>  <Peripheral>  (977) 
nan

>  <Num_H_Atoms_ProtBoundConf>  (977) 
nan

>  <Num_Resolved_Atoms>  (977) 
nan

>  <Num_Not_Resolved_Atoms>  (977) 
nan

$$$$
CHEMBL3113139
     RDKit          3D

  0  0  0  0  0  0  0  0  0  0999 V3000
M  V30 BEGIN CTAB
M  V30 COUNTS 49 52 0 0 0
M  V30 BEGIN ATOM
M  V30 1 Cl 3.080223 -6.413783 1.200875 0
M  V30 2 C 2.566568 -4.746070 1.013603 0
M  V30 3 C 2.329478 -4.062319 2.204221 0
M  V30 4 C 1.924415 -2.756133 2.172688 0
M  V30 5 C 1.751626 -2.118775 0.960450 0
M  V30 6 C 1.301994 -0.665064 0.822407 0
M  V30 7 N 2.150208 -0.111718 -0.134909 0
M  V30 8 C 2.221606 1.248671 -0.428115 0
M  V30 9 C 2.585833 2.081525 0.768393 0
M  V30 10 C 3.948445 2.296525 0.995862 0
M  V30 11 C 4.487025 3.026626 2.029054 0
M  V30 12 C 3.595633 3.594091 2.915626 0
M  V30 13 C 2.246648 3.409235 2.731280 0
M  V30 14 C 1.761655 2.670716 1.682422 0
M  V30 15 C -0.151799 -0.714565 0.548188 0
M  V30 16 C -0.835085 -1.940185 0.676079 0
M  V30 17 C -2.177511 -2.191972 0.481261 0
M  V30 18 C -2.946146 -1.108241 0.115650 0
M  V30 19 C -4.375831 -1.282879 -0.111303 0
M  V30 20 C -5.143718 -0.561022 -1.003296 0
M  V30 21 C -6.493600 -0.789594 -1.157181 0
M  V30 22 N -7.102571 -1.733858 -0.432219 0
M  V30 23 C -6.371738 -2.448433 0.442724 0
M  V30 24 C -5.015991 -2.268669 0.644289 0
M  V30 25 C -2.387543 0.141420 -0.039887 0
M  V30 26 C -1.036796 0.266810 0.182896 0
M  V30 27 C 1.992205 -2.814135 -0.223944 0
M  V30 28 C 2.401943 -4.133696 -0.217612 0
M  V30 29 H 2.440779 -4.486251 3.184747 0
M  V30 30 H 1.720961 -2.159376 3.040779 0
M  V30 31 H 1.501306 -0.240855 1.850667 0
M  V30 32 H 2.863758 -0.731265 -0.565594 0
M  V30 33 H 1.342820 1.668063 -0.929904 0
M  V30 34 H 3.051556 1.411471 -1.197538 0
M  V30 35 H 4.669853 1.851892 0.300011 0
M  V30 36 H 5.556462 3.136904 2.122051 0
M  V30 37 H 3.990339 4.178527 3.744920 0
M  V30 38 H 1.517092 3.838208 3.404994 0
M  V30 39 H 0.714602 2.522332 1.531145 0
M  V30 40 H -0.278187 -2.840892 0.965524 0
M  V30 41 H -2.612510 -3.158498 0.601194 0
M  V30 42 H -4.639979 0.195489 -1.579701 0
M  V30 43 H -7.058483 -0.201342 -1.867084 0
M  V30 44 H -6.860929 -3.218181 1.035416 0
M  V30 45 H -4.501272 -2.871744 1.354717 0
M  V30 46 H -2.976475 0.984239 -0.322846 0
M  V30 47 H -0.641516 1.254540 0.064938 0
M  V30 48 H 1.882348 -2.392856 -1.230692 0
M  V30 49 H 2.603204 -4.722364 -1.101646 0
M  V30 END ATOM
M  V30 BEGIN BOND
M  V30 1 1 1 2
M  V30 2 2 2 3
M  V30 3 1 3 4
M  V30 4 2 4 5
M  V30 5 1 5 6
M  V30 6 1 6 7
M  V30 7 1 7 8
M  V30 8 1 8 9
M  V30 9 2 9 10
M  V30 10 1 10 11
M  V30 11 2 11 12
M  V30 12 1 12 13
M  V30 13 2 13 14
M  V30 14 1 6 15
M  V30 15 2 15 16
M  V30 16 1 16 17
M  V30 17 2 17 18
M  V30 18 1 18 19
M  V30 19 2 19 20
M  V30 20 1 20 21
M  V30 21 2 21 22
M  V30 22 1 22 23
M  V30 23 2 23 24
M  V30 24 1 18 25
M  V30 25 2 25 26
M  V30 26 1 5 27
M  V30 27 2 27 28
M  V30 28 1 28 2
M  V30 29 1 14 9
M  V30 30 1 26 15
M  V30 31 1 24 19
M  V30 32 1 3 29
M  V30 33 1 4 30
M  V30 34 1 6 31
M  V30 35 1 7 32
M  V30 36 1 8 33
M  V30 37 1 8 34
M  V30 38 1 10 35
M  V30 39 1 11 36
M  V30 40 1 12 37
M  V30 41 1 13 38
M  V30 42 1 14 39
M  V30 43 1 16 40
M  V30 44 1 17 41
M  V30 45 1 20 42
M  V30 46 1 21 43
M  V30 47 1 23 44
M  V30 48 1 24 45
M  V30 49 1 25 46
M  V30 50 1 26 47
M  V30 51 1 27 48
M  V30 52 1 28 49
M  V30 END BOND
M  V30 END CTAB
M  END
>  <Dataset>  (978) 
ChEMBL_Kinases

>  <Ligand_Instance>  (978) 
nan

>  <PDB_ID>  (978) 
nan

>  <Standardized_SMILES>  (978) 
Clc1ccc(C(NCc2ccccc2)c2ccc(-c3ccncc3)cc2)cc1

>  <Name>  (978) 
nan

>  <Pocket>  (978) 
nan

>  <ATP_Site>  (978) 
nan

>  <Peripheral>  (978) 
nan

>  <Num_H_Atoms_ProtBoundConf>  (978) 
nan

>  <Num_Resolved_Atoms>  (978) 
nan

>  <Num_Not_Resolved_Atoms>  (978) 
nan

$$$$
CHEMBL3113137
     RDKit          3D

  0  0  0  0  0  0  0  0  0  0999 V3000
M  V30 BEGIN CTAB
M  V30 COUNTS 52 55 0 0 0
M  V30 BEGIN ATOM
M  V30 1 Cl 0.640854 -4.637265 6.701033 0
M  V30 2 C 0.787301 -3.812653 5.156376 0
M  V30 3 C 2.010615 -3.391301 4.677167 0
M  V30 4 C 2.110179 -2.740772 3.453627 0
M  V30 5 C 0.972373 -2.499637 2.682698 0
M  V30 6 C 1.205732 -1.785082 1.370720 0
M  V30 7 N 2.080190 -0.689464 1.525031 0
M  V30 8 C 2.507522 -0.054436 0.345616 0
M  V30 9 C 1.520483 0.734489 -0.444165 0
M  V30 10 C 2.252788 1.646313 -1.460310 0
M  V30 11 C 3.023183 2.716164 -0.720638 0
M  V30 12 C 3.276418 2.254474 0.702136 0
M  V30 13 C 3.716429 0.819627 0.656651 0
M  V30 14 C -0.095204 -1.432059 0.766949 0
M  V30 15 C -0.939132 -0.403037 1.118254 0
M  V30 16 C -2.146357 -0.145789 0.509440 0
M  V30 17 C -2.577110 -0.949275 -0.526561 0
M  V30 18 C -3.855554 -0.689215 -1.182279 0
M  V30 19 C -4.606794 -1.719903 -1.717259 0
M  V30 20 C -5.827163 -1.578418 -2.356932 0
M  V30 21 N -6.302564 -0.326637 -2.454916 0
M  V30 22 C -5.612108 0.721340 -1.950437 0
M  V30 23 C -4.394042 0.582063 -1.311724 0
M  V30 24 C -1.801059 -2.007236 -0.951493 0
M  V30 25 C -0.606104 -2.198592 -0.291301 0
M  V30 26 C -0.265502 -2.911302 3.139409 0
M  V30 27 C -0.322126 -3.554337 4.359994 0
M  V30 28 H 2.888490 -3.583587 5.284633 0
M  V30 29 H 3.096155 -2.450020 3.160156 0
M  V30 30 H 1.695702 -2.519419 0.698400 0
M  V30 31 H 2.651638 -0.624944 2.366503 0
M  V30 32 H 2.892066 -0.860248 -0.353093 0
M  V30 33 H 0.898878 0.100451 -1.102582 0
M  V30 34 H 0.924307 1.469141 0.151356 0
M  V30 35 H 1.443612 2.106823 -2.061772 0
M  V30 36 H 2.870312 1.042584 -2.132508 0
M  V30 37 H 3.983432 2.828698 -1.274520 0
M  V30 38 H 2.447688 3.652822 -0.770513 0
M  V30 39 H 4.088383 2.903635 1.108898 0
M  V30 40 H 2.335404 2.368946 1.260886 0
M  V30 41 H 4.459612 0.656550 -0.131458 0
M  V30 42 H 4.144168 0.498794 1.647274 0
M  V30 43 H -0.577646 0.226725 1.947339 0
M  V30 44 H -2.741177 0.687073 0.855602 0
M  V30 45 H -4.194218 -2.723677 -1.621656 0
M  V30 46 H -6.336269 -2.463269 -2.742864 0
M  V30 47 H -6.037795 1.711478 -2.054759 0
M  V30 48 H -3.856567 1.429537 -0.914544 0
M  V30 49 H -2.073012 -2.671976 -1.749704 0
M  V30 50 H 0.016090 -3.042342 -0.627840 0
M  V30 51 H -1.104497 -2.705972 2.518559 0
M  V30 52 H -1.303667 -3.882407 4.724812 0
M  V30 END ATOM
M  V30 BEGIN BOND
M  V30 1 1 1 2
M  V30 2 2 2 3
M  V30 3 1 3 4
M  V30 4 2 4 5
M  V30 5 1 5 6
M  V30 6 1 6 7
M  V30 7 1 7 8
M  V30 8 1 8 9
M  V30 9 1 9 10
M  V30 10 1 10 11
M  V30 11 1 11 12
M  V30 12 1 12 13
M  V30 13 1 6 14
M  V30 14 2 14 15
M  V30 15 1 15 16
M  V30 16 2 16 17
M  V30 17 1 17 18
M  V30 18 2 18 19
M  V30 19 1 19 20
M  V30 20 2 20 21
M  V30 21 1 21 22
M  V30 22 2 22 23
M  V30 23 1 17 24
M  V30 24 2 24 25
M  V30 25 1 5 26
M  V30 26 2 26 27
M  V30 27 1 27 2
M  V30 28 1 13 8
M  V30 29 1 25 14
M  V30 30 1 23 18
M  V30 31 1 3 28
M  V30 32 1 4 29
M  V30 33 1 6 30
M  V30 34 1 7 31
M  V30 35 1 8 32
M  V30 36 1 9 33
M  V30 37 1 9 34
M  V30 38 1 10 35
M  V30 39 1 10 36
M  V30 40 1 11 37
M  V30 41 1 11 38
M  V30 42 1 12 39
M  V30 43 1 12 40
M  V30 44 1 13 41
M  V30 45 1 13 42
M  V30 46 1 15 43
M  V30 47 1 16 44
M  V30 48 1 19 45
M  V30 49 1 20 46
M  V30 50 1 22 47
M  V30 51 1 23 48
M  V30 52 1 24 49
M  V30 53 1 25 50
M  V30 54 1 26 51
M  V30 55 1 27 52
M  V30 END BOND
M  V30 END CTAB
M  END
>  <Dataset>  (979) 
ChEMBL_Kinases

>  <Ligand_Instance>  (979) 
nan

>  <PDB_ID>  (979) 
nan

>  <Standardized_SMILES>  (979) 
Clc1ccc(C(NC2CCCCC2)c2ccc(-c3ccncc3)cc2)cc1

>  <Name>  (979) 
nan

>  <Pocket>  (979) 
nan

>  <ATP_Site>  (979) 
nan

>  <Peripheral>  (979) 
nan

>  <Num_H_Atoms_ProtBoundConf>  (979) 
nan

>  <Num_Resolved_Atoms>  (979) 
nan

>  <Num_Not_Resolved_Atoms>  (979) 
nan

$$$$
CHEMBL3113136
     RDKit          3D

  0  0  0  0  0  0  0  0  0  0999 V3000
M  V30 BEGIN CTAB
M  V30 COUNTS 48 50 0 0 0
M  V30 BEGIN ATOM
M  V30 1 C 2.204030 -4.219413 -0.510723 0
M  V30 2 C 1.910122 -2.711445 -0.745786 0
M  V30 3 C 0.812685 -2.686113 -1.725542 0
M  V30 4 C 3.197560 -2.268132 -1.488053 0
M  V30 5 N 1.817364 -2.134610 0.498085 0
M  V30 6 C 1.461812 -0.853127 0.841071 0
M  V30 7 C 2.073794 0.302450 0.125909 0
M  V30 8 C 1.177479 1.236007 -0.410085 0
M  V30 9 C 1.615632 2.360271 -1.080910 0
M  V30 10 C 2.978210 2.553980 -1.217650 0
M  V30 11 Cl 3.715484 3.927173 -2.040386 0
M  V30 12 C 3.902288 1.653832 -0.701512 0
M  V30 13 C 3.419101 0.544680 -0.038945 0
M  V30 14 C 0.089459 -0.612828 1.311930 0
M  V30 15 C -0.145724 0.297850 2.365310 0
M  V30 16 C -1.350151 0.647103 2.941969 0
M  V30 17 C -2.466543 0.028989 2.425063 0
M  V30 18 C -3.782121 0.333802 2.969625 0
M  V30 19 C -4.094343 1.583239 3.478063 0
M  V30 20 C -5.369397 1.831353 3.990775 0
M  V30 21 N -6.297375 0.881291 3.999736 0
M  V30 22 C -5.996272 -0.335228 3.505715 0
M  V30 23 C -4.750753 -0.655754 2.979724 0
M  V30 24 C -2.359867 -0.878631 1.395303 0
M  V30 25 C -1.106563 -1.149579 0.898583 0
M  V30 26 H 1.933270 -4.801413 -1.392990 0
M  V30 27 H 3.247032 -4.373059 -0.219492 0
M  V30 28 H 1.561441 -4.590263 0.315741 0
M  V30 29 H 0.303201 -1.715287 -1.850640 0
M  V30 30 H 0.014700 -3.438462 -1.552118 0
M  V30 31 H 1.208767 -2.913957 -2.757073 0
M  V30 32 H 4.049918 -2.221866 -0.822699 0
M  V30 33 H 3.463196 -3.071712 -2.241936 0
M  V30 34 H 2.996231 -1.385735 -2.119115 0
M  V30 35 H 2.165373 -2.752891 1.251471 0
M  V30 36 H 2.043605 -0.718593 1.878822 0
M  V30 37 H 0.094138 1.184871 -0.362169 0
M  V30 38 H 0.967074 3.108963 -1.512545 0
M  V30 39 H 4.974766 1.748848 -0.775117 0
M  V30 40 H 4.061101 -0.193273 0.393106 0
M  V30 41 H 0.727856 0.793362 2.782517 0
M  V30 42 H -1.380368 1.361391 3.744252 0
M  V30 43 H -3.270959 2.297196 3.428597 0
M  V30 44 H -5.483700 2.843058 4.355704 0
M  V30 45 H -6.722718 -1.132452 3.495613 0
M  V30 46 H -4.542318 -1.646920 2.590338 0
M  V30 47 H -3.235755 -1.358628 0.995385 0
M  V30 48 H -1.087739 -1.867550 0.101805 0
M  V30 END ATOM
M  V30 BEGIN BOND
M  V30 1 1 1 2
M  V30 2 1 2 3
M  V30 3 1 2 4
M  V30 4 1 2 5
M  V30 5 1 5 6
M  V30 6 1 6 7
M  V30 7 2 7 8
M  V30 8 1 8 9
M  V30 9 2 9 10
M  V30 10 1 10 11
M  V30 11 1 10 12
M  V30 12 2 12 13
M  V30 13 1 6 14
M  V30 14 2 14 15
M  V30 15 1 15 16
M  V30 16 2 16 17
M  V30 17 1 17 18
M  V30 18 2 18 19
M  V30 19 1 19 20
M  V30 20 2 20 21
M  V30 21 1 21 22
M  V30 22 2 22 23
M  V30 23 1 17 24
M  V30 24 2 24 25
M  V30 25 1 13 7
M  V30 26 1 25 14
M  V30 27 1 23 18
M  V30 28 1 1 26
M  V30 29 1 1 27
M  V30 30 1 1 28
M  V30 31 1 3 29
M  V30 32 1 3 30
M  V30 33 1 3 31
M  V30 34 1 4 32
M  V30 35 1 4 33
M  V30 36 1 4 34
M  V30 37 1 5 35
M  V30 38 1 6 36
M  V30 39 1 8 37
M  V30 40 1 9 38
M  V30 41 1 12 39
M  V30 42 1 13 40
M  V30 43 1 15 41
M  V30 44 1 16 42
M  V30 45 1 19 43
M  V30 46 1 20 44
M  V30 47 1 22 45
M  V30 48 1 23 46
M  V30 49 1 24 47
M  V30 50 1 25 48
M  V30 END BOND
M  V30 END CTAB
M  END
>  <Dataset>  (980) 
ChEMBL_Kinases

>  <Ligand_Instance>  (980) 
nan

>  <PDB_ID>  (980) 
nan

>  <Standardized_SMILES>  (980) 
CC(C)(C)NC(c1ccc(Cl)cc1)c1ccc(-c2ccncc2)cc1

>  <Name>  (980) 
nan

>  <Pocket>  (980) 
nan

>  <ATP_Site>  (980) 
nan

>  <Peripheral>  (980) 
nan

>  <Num_H_Atoms_ProtBoundConf>  (980) 
nan

>  <Num_Resolved_Atoms>  (980) 
nan

>  <Num_Not_Resolved_Atoms>  (980) 
nan

$$$$
CHEMBL3113135
     RDKit          3D

  0  0  0  0  0  0  0  0  0  0999 V3000
M  V30 BEGIN CTAB
M  V30 COUNTS 48 50 0 0 0
M  V30 BEGIN ATOM
M  V30 1 C 3.259230 -3.893409 -0.839179 0
M  V30 2 C 1.769503 -3.653160 -0.879399 0
M  V30 3 C 1.267940 -3.964034 -2.269919 0
M  V30 4 C 1.455710 -2.161949 -0.598925 0
M  V30 5 N 1.924982 -1.767716 0.666511 0
M  V30 6 C 1.682412 -0.482603 1.172034 0
M  V30 7 C 2.104069 0.681330 0.400318 0
M  V30 8 C 2.966398 1.644983 0.946730 0
M  V30 9 C 3.421961 2.791205 0.340397 0
M  V30 10 C 2.984324 3.020694 -0.945681 0
M  V30 11 Cl 3.553741 4.475785 -1.734516 0
M  V30 12 C 2.129472 2.124847 -1.570253 0
M  V30 13 C 1.732954 1.008519 -0.875093 0
M  V30 14 C 0.249863 -0.342170 1.576706 0
M  V30 15 C -0.421466 -1.322964 2.276617 0
M  V30 16 C -1.741613 -1.199636 2.657172 0
M  V30 17 C -2.457882 -0.062693 2.344341 0
M  V30 18 C -3.858408 0.204897 2.682021 0
M  V30 19 C -4.650564 0.986848 1.850815 0
M  V30 20 C -5.949723 1.164571 2.280393 0
M  V30 21 N -6.472696 0.649444 3.405352 0
M  V30 22 C -5.715183 -0.107942 4.215813 0
M  V30 23 C -4.381207 -0.342981 3.859851 0
M  V30 24 C -1.805955 0.939672 1.640526 0
M  V30 25 C -0.476323 0.792336 1.268523 0
M  V30 26 H 3.697447 -4.100434 -1.848420 0
M  V30 27 H 3.797440 -3.048945 -0.334963 0
M  V30 28 H 3.522166 -4.803347 -0.240995 0
M  V30 29 H 1.316688 -4.307272 -0.130407 0
M  V30 30 H 0.497248 -3.246168 -2.632507 0
M  V30 31 H 2.105333 -4.058672 -2.975255 0
M  V30 32 H 0.754090 -4.954674 -2.214909 0
M  V30 33 H 2.134838 -1.660382 -1.364235 0
M  V30 34 H 0.392841 -2.038985 -0.820835 0
M  V30 35 H 2.601324 -2.349256 1.156360 0
M  V30 36 H 2.232650 -0.429055 2.165314 0
M  V30 37 H 3.327260 1.478880 1.974902 0
M  V30 38 H 4.087200 3.460372 0.864044 0
M  V30 39 H 1.811094 2.343887 -2.579628 0
M  V30 40 H 1.068217 0.382633 -1.412928 0
M  V30 41 H 0.081106 -2.233498 2.550994 0
M  V30 42 H -2.293726 -1.942316 3.201781 0
M  V30 43 H -4.271104 1.420388 0.936751 0
M  V30 44 H -6.567299 1.782065 1.620818 0
M  V30 45 H -6.036368 -0.569610 5.142550 0
M  V30 46 H -3.716953 -0.943837 4.467761 0
M  V30 47 H -2.332533 1.865922 1.367305 0
M  V30 48 H -0.036475 1.601215 0.730073 0
M  V30 END ATOM
M  V30 BEGIN BOND
M  V30 1 1 1 2
M  V30 2 1 2 3
M  V30 3 1 2 4
M  V30 4 1 4 5
M  V30 5 1 5 6
M  V30 6 1 6 7
M  V30 7 2 7 8
M  V30 8 1 8 9
M  V30 9 2 9 10
M  V30 10 1 10 11
M  V30 11 1 10 12
M  V30 12 2 12 13
M  V30 13 1 6 14
M  V30 14 2 14 15
M  V30 15 1 15 16
M  V30 16 2 16 17
M  V30 17 1 17 18
M  V30 18 2 18 19
M  V30 19 1 19 20
M  V30 20 2 20 21
M  V30 21 1 21 22
M  V30 22 2 22 23
M  V30 23 1 17 24
M  V30 24 2 24 25
M  V30 25 1 13 7
M  V30 26 1 25 14
M  V30 27 1 23 18
M  V30 28 1 1 26
M  V30 29 1 1 27
M  V30 30 1 1 28
M  V30 31 1 2 29
M  V30 32 1 3 30
M  V30 33 1 3 31
M  V30 34 1 3 32
M  V30 35 1 4 33
M  V30 36 1 4 34
M  V30 37 1 5 35
M  V30 38 1 6 36
M  V30 39 1 8 37
M  V30 40 1 9 38
M  V30 41 1 12 39
M  V30 42 1 13 40
M  V30 43 1 15 41
M  V30 44 1 16 42
M  V30 45 1 19 43
M  V30 46 1 20 44
M  V30 47 1 22 45
M  V30 48 1 23 46
M  V30 49 1 24 47
M  V30 50 1 25 48
M  V30 END BOND
M  V30 END CTAB
M  END
>  <Dataset>  (981) 
ChEMBL_Kinases

>  <Ligand_Instance>  (981) 
nan

>  <PDB_ID>  (981) 
nan

>  <Standardized_SMILES>  (981) 
CC(C)CNC(c1ccc(Cl)cc1)c1ccc(-c2ccncc2)cc1

>  <Name>  (981) 
nan

>  <Pocket>  (981) 
nan

>  <ATP_Site>  (981) 
nan

>  <Peripheral>  (981) 
nan

>  <Num_H_Atoms_ProtBoundConf>  (981) 
nan

>  <Num_Resolved_Atoms>  (981) 
nan

>  <Num_Not_Resolved_Atoms>  (981) 
nan

$$$$
CHEMBL3113134
     RDKit          3D

  0  0  0  0  0  0  0  0  0  0999 V3000
M  V30 BEGIN CTAB
M  V30 COUNTS 45 47 0 0 0
M  V30 BEGIN ATOM
M  V30 1 C 1.142956 -4.931175 0.782933 0
M  V30 2 C 1.078529 -3.559857 1.502097 0
M  V30 3 C -0.387903 -3.292938 1.724496 0
M  V30 4 N 1.781477 -2.663057 0.676984 0
M  V30 5 C 2.006888 -1.333338 1.085391 0
M  V30 6 C 2.927355 -0.644052 0.116686 0
M  V30 7 C 2.634923 0.639686 -0.318782 0
M  V30 8 C 3.492254 1.251548 -1.205814 0
M  V30 9 C 4.622032 0.593269 -1.650538 0
M  V30 10 Cl 5.658316 1.457592 -2.784312 0
M  V30 11 C 4.942854 -0.701363 -1.229039 0
M  V30 12 C 4.055800 -1.300707 -0.327908 0
M  V30 13 C 0.722254 -0.554771 1.163556 0
M  V30 14 C 0.479388 0.242040 2.292948 0
M  V30 15 C -0.675921 0.988651 2.403823 0
M  V30 16 C -1.630053 0.975067 1.405855 0
M  V30 17 C -2.883223 1.705182 1.388828 0
M  V30 18 C -4.050528 1.264059 0.764297 0
M  V30 19 C -5.196452 2.011201 0.792025 0
M  V30 20 N -5.241644 3.182265 1.413000 0
M  V30 21 C -4.111335 3.611836 2.019106 0
M  V30 22 C -2.914332 2.922265 2.039492 0
M  V30 23 C -1.408757 0.195876 0.284883 0
M  V30 24 C -0.250108 -0.545176 0.187064 0
M  V30 25 H 0.451497 -5.646229 1.262835 0
M  V30 26 H 0.947207 -4.786874 -0.296747 0
M  V30 27 H 2.180864 -5.263716 0.894928 0
M  V30 28 H 1.528492 -3.663017 2.513892 0
M  V30 29 H -0.577013 -2.410252 2.358225 0
M  V30 30 H -0.978748 -3.241125 0.780705 0
M  V30 31 H -0.789770 -4.215173 2.255960 0
M  V30 32 H 1.727270 -2.839872 -0.342720 0
M  V30 33 H 2.484880 -1.299906 2.061762 0
M  V30 34 H 1.736582 1.109265 0.061469 0
M  V30 35 H 3.222046 2.248811 -1.514830 0
M  V30 36 H 5.834498 -1.191670 -1.594403 0
M  V30 37 H 4.297496 -2.317874 0.010205 0
M  V30 38 H 1.182858 0.301035 3.113200 0
M  V30 39 H -0.927005 1.617748 3.234918 0
M  V30 40 H -3.992083 0.305702 0.263317 0
M  V30 41 H -6.039047 1.577254 0.278386 0
M  V30 42 H -4.129886 4.572485 2.534713 0
M  V30 43 H -2.046053 3.346702 2.556324 0
M  V30 44 H -2.059251 0.087765 -0.566443 0
M  V30 45 H -0.020770 -1.178170 -0.672622 0
M  V30 END ATOM
M  V30 BEGIN BOND
M  V30 1 1 1 2
M  V30 2 1 2 3
M  V30 3 1 2 4
M  V30 4 1 4 5
M  V30 5 1 5 6
M  V30 6 2 6 7
M  V30 7 1 7 8
M  V30 8 2 8 9
M  V30 9 1 9 10
M  V30 10 1 9 11
M  V30 11 2 11 12
M  V30 12 1 5 13
M  V30 13 2 13 14
M  V30 14 1 14 15
M  V30 15 2 15 16
M  V30 16 1 16 17
M  V30 17 2 17 18
M  V30 18 1 18 19
M  V30 19 2 19 20
M  V30 20 1 20 21
M  V30 21 2 21 22
M  V30 22 1 16 23
M  V30 23 2 23 24
M  V30 24 1 12 6
M  V30 25 1 24 13
M  V30 26 1 22 17
M  V30 27 1 1 25
M  V30 28 1 1 26
M  V30 29 1 1 27
M  V30 30 1 2 28
M  V30 31 1 3 29
M  V30 32 1 3 30
M  V30 33 1 3 31
M  V30 34 1 4 32
M  V30 35 1 5 33
M  V30 36 1 7 34
M  V30 37 1 8 35
M  V30 38 1 11 36
M  V30 39 1 12 37
M  V30 40 1 14 38
M  V30 41 1 15 39
M  V30 42 1 18 40
M  V30 43 1 19 41
M  V30 44 1 21 42
M  V30 45 1 22 43
M  V30 46 1 23 44
M  V30 47 1 24 45
M  V30 END BOND
M  V30 END CTAB
M  END
>  <Dataset>  (982) 
ChEMBL_Kinases

>  <Ligand_Instance>  (982) 
nan

>  <PDB_ID>  (982) 
nan

>  <Standardized_SMILES>  (982) 
CC(C)NC(c1ccc(Cl)cc1)c1ccc(-c2ccncc2)cc1

>  <Name>  (982) 
nan

>  <Pocket>  (982) 
nan

>  <ATP_Site>  (982) 
nan

>  <Peripheral>  (982) 
nan

>  <Num_H_Atoms_ProtBoundConf>  (982) 
nan

>  <Num_Resolved_Atoms>  (982) 
nan

>  <Num_Not_Resolved_Atoms>  (982) 
nan

$$$$
CHEMBL3113130
     RDKit          3D

  0  0  0  0  0  0  0  0  0  0999 V3000
M  V30 BEGIN CTAB
M  V30 COUNTS 45 49 0 0 0
M  V30 BEGIN ATOM
M  V30 1 Cl -0.679116 -6.559319 3.460270 0
M  V30 2 C -0.002608 -5.304870 2.436431 0
M  V30 3 C 1.162102 -4.673365 2.848351 0
M  V30 4 C 1.629932 -3.703392 1.994863 0
M  V30 5 C 1.056401 -3.305130 0.783152 0
M  V30 6 C 1.763176 -2.212968 0.004128 0
M  V30 7 N 1.700261 -2.565333 -1.338910 0
M  V30 8 C 2.427748 -1.928995 -2.331729 0
M  V30 9 C 2.245047 -0.419485 -2.509250 0
M  V30 10 C 3.573309 -1.041189 -2.147098 0
M  V30 11 C 1.005907 -0.980122 0.341838 0
M  V30 12 C -0.276679 -0.629958 -0.007237 0
M  V30 13 C -0.832838 0.561029 0.399314 0
M  V30 14 C -0.144775 1.470629 1.175578 0
M  V30 15 C -0.729519 2.733740 1.608913 0
M  V30 16 N -0.078966 3.933175 1.556230 0
M  V30 17 C -0.659575 5.074466 1.967901 0
M  V30 18 N -1.925383 5.112108 2.461383 0
M  V30 19 C -2.640328 3.962218 2.547021 0
M  V30 20 N -3.876448 3.601832 2.963451 0
M  V30 21 C -4.012294 2.264374 2.795241 0
M  V30 22 N -2.876532 1.765202 2.275729 0
M  V30 23 C -2.026522 2.787311 2.117030 0
M  V30 24 C 1.147431 1.166239 1.553020 0
M  V30 25 C 1.676304 -0.035606 1.129332 0
M  V30 26 C -0.095353 -3.976277 0.441580 0
M  V30 27 C -0.599841 -4.955170 1.266829 0
M  V30 28 H 1.670997 -4.906322 3.752200 0
M  V30 29 H 2.548051 -3.197699 2.308349 0
M  V30 30 H 2.796706 -2.174483 0.339353 0
M  V30 31 H 1.153361 -3.405294 -1.594764 0
M  V30 32 H 2.428511 -2.483464 -3.325312 0
M  V30 33 H 2.104264 -0.035666 -3.543374 0
M  V30 34 H 1.770726 0.198731 -1.758793 0
M  V30 35 H 4.337937 -0.944716 -2.945687 0
M  V30 36 H 3.977404 -0.759835 -1.161689 0
M  V30 37 H -0.804175 -1.340033 -0.613901 0
M  V30 38 H -1.847600 0.767604 0.085485 0
M  V30 39 H -0.121053 6.012536 1.915253 0
M  V30 40 H -4.486436 4.369283 3.324798 0
M  V30 41 H -4.989491 1.894668 3.110468 0
M  V30 42 H 1.727247 1.843781 2.159312 0
M  V30 43 H 2.695761 -0.232507 1.450311 0
M  V30 44 H -0.541148 -3.679250 -0.495237 0
M  V30 45 H -1.523067 -5.441486 0.920014 0
M  V30 END ATOM
M  V30 BEGIN BOND
M  V30 1 1 1 2
M  V30 2 2 2 3
M  V30 3 1 3 4
M  V30 4 2 4 5
M  V30 5 1 5 6
M  V30 6 1 6 7
M  V30 7 1 7 8
M  V30 8 1 8 9
M  V30 9 1 9 10
M  V30 10 1 6 11
M  V30 11 2 11 12
M  V30 12 1 12 13
M  V30 13 2 13 14
M  V30 14 1 14 15
M  V30 15 2 15 16
M  V30 16 1 16 17
M  V30 17 2 17 18
M  V30 18 1 18 19
M  V30 19 1 19 20
M  V30 20 1 20 21
M  V30 21 2 21 22
M  V30 22 1 22 23
M  V30 23 1 14 24
M  V30 24 2 24 25
M  V30 25 1 5 26
M  V30 26 2 26 27
M  V30 27 1 27 2
M  V30 28 1 10 8
M  V30 29 1 25 11
M  V30 30 1 23 15
M  V30 31 2 23 19
M  V30 32 1 3 28
M  V30 33 1 4 29
M  V30 34 1 6 30
M  V30 35 1 7 31
M  V30 36 1 8 32
M  V30 37 1 9 33
M  V30 38 1 9 34
M  V30 39 1 10 35
M  V30 40 1 10 36
M  V30 41 1 12 37
M  V30 42 1 13 38
M  V30 43 1 17 39
M  V30 44 1 20 40
M  V30 45 1 21 41
M  V30 46 1 24 42
M  V30 47 1 25 43
M  V30 48 1 26 44
M  V30 49 1 27 45
M  V30 END BOND
M  V30 END CTAB
M  END
>  <Dataset>  (983) 
ChEMBL_Kinases

>  <Ligand_Instance>  (983) 
nan

>  <PDB_ID>  (983) 
nan

>  <Standardized_SMILES>  (983) 
Clc1ccc(C(NC2CC2)c2ccc(-c3ncnc4[nH]cnc34)cc2)cc1

>  <Name>  (983) 
nan

>  <Pocket>  (983) 
nan

>  <ATP_Site>  (983) 
nan

>  <Peripheral>  (983) 
nan

>  <Num_H_Atoms_ProtBoundConf>  (983) 
nan

>  <Num_Resolved_Atoms>  (983) 
nan

>  <Num_Not_Resolved_Atoms>  (983) 
nan

$$$$
CHEMBL3113129
     RDKit          3D

  0  0  0  0  0  0  0  0  0  0999 V3000
M  V30 BEGIN CTAB
M  V30 COUNTS 47 50 0 0 0
M  V30 BEGIN ATOM
M  V30 1 C 0.025421 -3.503566 4.575286 0
M  V30 2 C 0.310891 -3.060577 3.120600 0
M  V30 3 C -1.039040 -2.673184 2.568195 0
M  V30 4 N 1.265804 -2.004244 3.158104 0
M  V30 5 C 1.739874 -1.553181 1.898407 0
M  V30 6 C 2.861948 -0.569227 2.151954 0
M  V30 7 C 2.866801 0.433766 3.093616 0
M  V30 8 C 3.930370 1.289372 3.256661 0
M  V30 9 C 5.050759 1.165439 2.463014 0
M  V30 10 Cl 6.406862 2.255821 2.670112 0
M  V30 11 C 5.130798 0.187867 1.494188 0
M  V30 12 C 4.031128 -0.633443 1.385183 0
M  V30 13 C 0.721764 -0.810646 1.117160 0
M  V30 14 C -0.158841 0.150180 1.549420 0
M  V30 15 C -1.042383 0.767877 0.689814 0
M  V30 16 C -1.096289 0.459419 -0.654668 0
M  V30 17 C -2.055807 1.154304 -1.493823 0
M  V30 18 N -2.195579 2.503392 -1.372827 0
M  V30 19 C -3.064165 3.221077 -2.114879 0
M  V30 20 N -3.859841 2.648211 -3.034439 0
M  V30 21 C -3.757377 1.313143 -3.190589 0
M  V30 22 N -4.377332 0.420490 -3.994080 0
M  V30 23 C -3.899246 -0.801303 -3.746773 0
M  V30 24 N -2.951679 -0.725655 -2.769885 0
M  V30 25 C -2.872164 0.572969 -2.436036 0
M  V30 26 C -0.243933 -0.486469 -1.132011 0
M  V30 27 C 0.631417 -1.091284 -0.253929 0
M  V30 28 H 0.917951 -3.985781 5.014931 0
M  V30 29 H -0.306126 -2.625667 5.159756 0
M  V30 30 H -0.823683 -4.220918 4.565617 0
M  V30 31 H 0.668523 -3.953737 2.582015 0
M  V30 32 H -1.706509 -3.563956 2.792879 0
M  V30 33 H -1.077918 -2.581579 1.480216 0
M  V30 34 H -1.482960 -1.822247 3.134841 0
M  V30 35 H 1.062019 -1.260684 3.841744 0
M  V30 36 H 2.197403 -2.364007 1.284914 0
M  V30 37 H 1.991388 0.530581 3.715583 0
M  V30 38 H 3.870838 2.057398 4.015887 0
M  V30 39 H 5.973812 0.035824 0.841717 0
M  V30 40 H 4.071604 -1.411415 0.628017 0
M  V30 41 H -0.107244 0.379765 2.603707 0
M  V30 42 H -1.712148 1.524180 1.113655 0
M  V30 43 H -3.042775 4.278223 -1.887070 0
M  V30 44 H -5.115958 0.732671 -4.683202 0
M  V30 45 H -4.198836 -1.716743 -4.229389 0
M  V30 46 H -0.242492 -0.767650 -2.176229 0
M  V30 47 H 1.293033 -1.839076 -0.675765 0
M  V30 END ATOM
M  V30 BEGIN BOND
M  V30 1 1 1 2
M  V30 2 1 2 3
M  V30 3 1 2 4
M  V30 4 1 4 5
M  V30 5 1 5 6
M  V30 6 2 6 7
M  V30 7 1 7 8
M  V30 8 2 8 9
M  V30 9 1 9 10
M  V30 10 1 9 11
M  V30 11 2 11 12
M  V30 12 1 5 13
M  V30 13 2 13 14
M  V30 14 1 14 15
M  V30 15 2 15 16
M  V30 16 1 16 17
M  V30 17 2 17 18
M  V30 18 1 18 19
M  V30 19 2 19 20
M  V30 20 1 20 21
M  V30 21 1 21 22
M  V30 22 1 22 23
M  V30 23 2 23 24
M  V30 24 1 24 25
M  V30 25 1 16 26
M  V30 26 2 26 27
M  V30 27 1 12 6
M  V30 28 1 27 13
M  V30 29 1 25 17
M  V30 30 2 25 21
M  V30 31 1 1 28
M  V30 32 1 1 29
M  V30 33 1 1 30
M  V30 34 1 2 31
M  V30 35 1 3 32
M  V30 36 1 3 33
M  V30 37 1 3 34
M  V30 38 1 4 35
M  V30 39 1 5 36
M  V30 40 1 7 37
M  V30 41 1 8 38
M  V30 42 1 11 39
M  V30 43 1 12 40
M  V30 44 1 14 41
M  V30 45 1 15 42
M  V30 46 1 19 43
M  V30 47 1 22 44
M  V30 48 1 23 45
M  V30 49 1 26 46
M  V30 50 1 27 47
M  V30 END BOND
M  V30 END CTAB
M  END
>  <Dataset>  (984) 
ChEMBL_Kinases

>  <Ligand_Instance>  (984) 
nan

>  <PDB_ID>  (984) 
nan

>  <Standardized_SMILES>  (984) 
CC(C)NC(c1ccc(Cl)cc1)c1ccc(-c2ncnc3[nH]cnc23)cc1

>  <Name>  (984) 
nan

>  <Pocket>  (984) 
nan

>  <ATP_Site>  (984) 
nan

>  <Peripheral>  (984) 
nan

>  <Num_H_Atoms_ProtBoundConf>  (984) 
nan

>  <Num_Resolved_Atoms>  (984) 
nan

>  <Num_Not_Resolved_Atoms>  (984) 
nan

$$$$
CHEMBL3112867
     RDKit          3D

  0  0  0  0  0  0  0  0  0  0999 V3000
M  V30 BEGIN CTAB
M  V30 COUNTS 48 51 0 0 0
M  V30 BEGIN ATOM
M  V30 1 C 3.228065 -2.634332 1.309673 0
M  V30 2 C 2.943657 -2.278949 -0.132714 0 CFG=2
M  V30 3 C 4.222877 -2.192179 -0.943240 0
M  V30 4 C 4.591757 -0.761591 -0.785494 0
M  V30 5 C 5.790179 -0.103550 -0.966462 0
M  V30 6 C 5.896932 1.257132 -0.755955 0
M  V30 7 C 4.798653 1.992111 -0.357288 0
M  V30 8 C 3.605850 1.304314 -0.182816 0
M  V30 9 C 3.492800 -0.047433 -0.390186 0
M  V30 10 N 2.401840 -0.957802 -0.279397 0
M  V30 11 C 1.037030 -0.676932 -0.300933 0
M  V30 12 O 0.114083 -1.533572 -0.201650 0
M  V30 13 C 0.195871 0.507526 -0.424429 0
M  V30 14 C -1.255818 0.195400 -0.389715 0
M  V30 15 N -1.954629 0.171107 0.776286 0
M  V30 16 C -3.264685 -0.109220 0.817503 0
M  V30 17 N -3.878911 -0.101323 2.101364 0
M  V30 18 C -3.063450 0.197243 3.268391 0
M  V30 19 C -3.107698 -1.073523 4.106682 0
M  V30 20 O -4.079226 -1.955992 3.736553 0
M  V30 21 C -5.314512 -1.440821 3.429919 0
M  V30 22 C -5.277637 -0.367380 2.369903 0
M  V30 23 C -3.958269 -0.386845 -0.341083 0
M  V30 24 C -3.255398 -0.363508 -1.524466 0
M  V30 25 O -3.823616 -0.604694 -2.599910 0
M  V30 26 N -1.955981 -0.079078 -1.506649 0
M  V30 27 H 4.048990 -3.383591 1.389857 0
M  V30 28 H 3.449127 -1.714021 1.875230 0
M  V30 29 H 2.349338 -3.112099 1.790512 0
M  V30 30 H 2.243055 -3.008312 -0.530309 0
M  V30 31 H 3.920910 -2.396041 -2.003125 0
M  V30 32 H 4.994250 -2.884160 -0.593842 0
M  V30 33 H 6.710624 -0.583135 -1.276960 0
M  V30 34 H 6.832495 1.786449 -0.894187 0
M  V30 35 H 4.808408 3.052415 -0.175143 0
M  V30 36 H 2.746260 1.847502 0.123015 0
M  V30 37 H 0.469061 1.194868 0.429657 0
M  V30 38 H 0.468948 1.053379 -1.347737 0
M  V30 39 H -3.488406 1.050648 3.846743 0
M  V30 40 H -2.048651 0.476696 2.964124 0
M  V30 41 H -3.059385 -0.835650 5.187057 0
M  V30 42 H -2.127918 -1.586445 3.869233 0
M  V30 43 H -5.848662 -1.151914 4.342416 0
M  V30 44 H -5.902954 -2.288488 2.997377 0
M  V30 45 H -5.901191 -0.541153 1.502479 0
M  V30 46 H -5.651336 0.566432 2.883159 0
M  V30 47 H -4.996240 -0.609912 -0.317652 0
M  V30 48 H -1.402462 -0.056788 -2.401066 0
M  V30 END ATOM
M  V30 BEGIN BOND
M  V30 1 1 1 2
M  V30 2 1 2 3
M  V30 3 1 3 4
M  V30 4 2 4 5
M  V30 5 1 5 6
M  V30 6 2 6 7
M  V30 7 1 7 8
M  V30 8 2 8 9
M  V30 9 1 9 10
M  V30 10 1 10 11
M  V30 11 2 11 12
M  V30 12 1 11 13
M  V30 13 1 13 14
M  V30 14 2 14 15
M  V30 15 1 15 16
M  V30 16 1 16 17
M  V30 17 1 17 18
M  V30 18 1 18 19
M  V30 19 1 19 20
M  V30 20 1 20 21
M  V30 21 1 21 22
M  V30 22 2 16 23
M  V30 23 1 23 24
M  V30 24 2 24 25
M  V30 25 1 24 26
M  V30 26 1 10 2
M  V30 27 1 26 14
M  V30 28 1 9 4
M  V30 29 1 22 17
M  V30 30 1 1 27
M  V30 31 1 1 28
M  V30 32 1 1 29
M  V30 33 1 2 30 CFG=3
M  V30 34 1 3 31
M  V30 35 1 3 32
M  V30 36 1 5 33
M  V30 37 1 6 34
M  V30 38 1 7 35
M  V30 39 1 8 36
M  V30 40 1 13 37
M  V30 41 1 13 38
M  V30 42 1 18 39
M  V30 43 1 18 40
M  V30 44 1 19 41
M  V30 45 1 19 42
M  V30 46 1 21 43
M  V30 47 1 21 44
M  V30 48 1 22 45
M  V30 49 1 22 46
M  V30 50 1 23 47
M  V30 51 1 26 48
M  V30 END BOND
M  V30 END CTAB
M  END
>  <Dataset>  (985) 
ChEMBL_Kinases

>  <Ligand_Instance>  (985) 
nan

>  <PDB_ID>  (985) 
nan

>  <Standardized_SMILES>  (985) 
C[C@@H]1Cc2ccccc2N1C(=O)Cc1nc(N2CCOCC2)cc(=O)[nH]1

>  <Name>  (985) 
nan

>  <Pocket>  (985) 
nan

>  <ATP_Site>  (985) 
nan

>  <Peripheral>  (985) 
nan

>  <Num_H_Atoms_ProtBoundConf>  (985) 
nan

>  <Num_Resolved_Atoms>  (985) 
nan

>  <Num_Not_Resolved_Atoms>  (985) 
nan

$$$$
CHEMBL3112866
     RDKit          3D

  0  0  0  0  0  0  0  0  0  0999 V3000
M  V30 BEGIN CTAB
M  V30 COUNTS 48 51 0 0 0
M  V30 BEGIN ATOM
M  V30 1 C 1.719267 -3.534676 -0.232086 0
M  V30 2 C 2.785094 -2.495064 -0.030376 0 CFG=1
M  V30 3 C 3.955180 -2.688414 -0.971352 0
M  V30 4 C 4.479133 -1.301993 -1.083622 0
M  V30 5 C 5.691895 -0.772547 -1.475389 0
M  V30 6 C 5.910538 0.593497 -1.483968 0
M  V30 7 C 4.914794 1.493005 -1.097147 0
M  V30 8 C 3.676696 0.982483 -0.695786 0
M  V30 9 C 3.517103 -0.387248 -0.707687 0
M  V30 10 N 2.370033 -1.149353 -0.349644 0
M  V30 11 C 1.013932 -0.825101 -0.264573 0
M  V30 12 O 0.007996 -1.531093 0.056864 0
M  V30 13 C 0.220889 0.398956 -0.497023 0
M  V30 14 C -1.221699 0.177513 -0.254629 0
M  V30 15 N -1.761088 0.374291 0.972395 0
M  V30 16 C -3.071179 0.174560 1.198964 0
M  V30 17 N -3.493313 0.419628 2.530954 0
M  V30 18 C -2.551914 0.855670 3.538498 0
M  V30 19 C -2.625474 0.110403 4.822831 0
M  V30 20 O -3.673260 -0.708795 5.020839 0
M  V30 21 C -4.725954 -0.717519 4.205316 0
M  V30 22 C -4.810568 0.302298 3.116386 0
M  V30 23 C -3.932024 -0.237625 0.206082 0
M  V30 24 C -3.357825 -0.434279 -1.048097 0
M  V30 25 O -4.133331 -0.809443 -1.958378 0
M  V30 26 N -2.043971 -0.225872 -1.242244 0
M  V30 27 H 2.217272 -4.520155 -0.278058 0
M  V30 28 H 1.184321 -3.310419 -1.172457 0
M  V30 29 H 1.061114 -3.531224 0.651900 0
M  V30 30 H 3.194669 -2.479361 0.993002 0
M  V30 31 H 3.593222 -3.014431 -1.969091 0
M  V30 32 H 4.739235 -3.355399 -0.567571 0
M  V30 33 H 6.486501 -1.439727 -1.781591 0
M  V30 34 H 6.876025 0.991295 -1.797033 0
M  V30 35 H 5.043752 2.566753 -1.089100 0
M  V30 36 H 2.861848 1.628755 -0.383680 0
M  V30 37 H 0.403898 0.778619 -1.518151 0
M  V30 38 H 0.573258 1.212701 0.185837 0
M  V30 39 H -2.804581 1.944896 3.706073 0
M  V30 40 H -1.522351 0.879510 3.100448 0
M  V30 41 H -2.582891 0.843449 5.661795 0
M  V30 42 H -1.696104 -0.498101 4.906501 0
M  V30 43 H -4.806007 -1.730001 3.731666 0
M  V30 44 H -5.656577 -0.630424 4.818559 0
M  V30 45 H -5.507834 -0.091275 2.350843 0
M  V30 46 H -5.170289 1.294256 3.450364 0
M  V30 47 H -4.980649 -0.392121 0.409765 0
M  V30 48 H -1.624755 -0.378088 -2.192426 0
M  V30 END ATOM
M  V30 BEGIN BOND
M  V30 1 1 1 2
M  V30 2 1 2 3
M  V30 3 1 3 4
M  V30 4 2 4 5
M  V30 5 1 5 6
M  V30 6 2 6 7
M  V30 7 1 7 8
M  V30 8 2 8 9
M  V30 9 1 9 10
M  V30 10 1 10 11
M  V30 11 2 11 12
M  V30 12 1 11 13
M  V30 13 1 13 14
M  V30 14 2 14 15
M  V30 15 1 15 16
M  V30 16 1 16 17
M  V30 17 1 17 18
M  V30 18 1 18 19
M  V30 19 1 19 20
M  V30 20 1 20 21
M  V30 21 1 21 22
M  V30 22 2 16 23
M  V30 23 1 23 24
M  V30 24 2 24 25
M  V30 25 1 24 26
M  V30 26 1 10 2
M  V30 27 1 26 14
M  V30 28 1 9 4
M  V30 29 1 22 17
M  V30 30 1 1 27
M  V30 31 1 1 28
M  V30 32 1 1 29
M  V30 33 1 2 30 CFG=1
M  V30 34 1 3 31
M  V30 35 1 3 32
M  V30 36 1 5 33
M  V30 37 1 6 34
M  V30 38 1 7 35
M  V30 39 1 8 36
M  V30 40 1 13 37
M  V30 41 1 13 38
M  V30 42 1 18 39
M  V30 43 1 18 40
M  V30 44 1 19 41
M  V30 45 1 19 42
M  V30 46 1 21 43
M  V30 47 1 21 44
M  V30 48 1 22 45
M  V30 49 1 22 46
M  V30 50 1 23 47
M  V30 51 1 26 48
M  V30 END BOND
M  V30 END CTAB
M  END
>  <Dataset>  (986) 
ChEMBL_Kinases

>  <Ligand_Instance>  (986) 
nan

>  <PDB_ID>  (986) 
nan

>  <Standardized_SMILES>  (986) 
C[C@H]1Cc2ccccc2N1C(=O)Cc1nc(N2CCOCC2)cc(=O)[nH]1

>  <Name>  (986) 
SAR-260301

>  <Pocket>  (986) 
nan

>  <ATP_Site>  (986) 
nan

>  <Peripheral>  (986) 
nan

>  <Num_H_Atoms_ProtBoundConf>  (986) 
nan

>  <Num_Resolved_Atoms>  (986) 
nan

>  <Num_Not_Resolved_Atoms>  (986) 
nan

$$$$
CHEMBL3110139
     RDKit          3D

  0  0  0  0  0  0  0  0  0  0999 V3000
M  V30 BEGIN CTAB
M  V30 COUNTS 37 41 0 0 0
M  V30 BEGIN ATOM
M  V30 1 C 1.028767 -4.331589 2.161387 0
M  V30 2 O 0.972738 -3.295743 1.225453 0
M  V30 3 C 2.023826 -2.815168 0.474450 0
M  V30 4 C 3.338683 -3.236403 0.475055 0
M  V30 5 C 4.272218 -2.640110 -0.347766 0
M  V30 6 C 3.848061 -1.601017 -1.178426 0
M  V30 7 C 2.542117 -1.155945 -1.203571 0
M  V30 8 C 1.633336 -1.774255 -0.367785 0
M  V30 9 N 0.306072 -1.251361 -0.458217 0
M  V30 10 N -0.524898 -1.884883 -1.296022 0
M  V30 11 C -1.731653 -1.275590 -1.269409 0
M  V30 12 C -1.598843 -0.223726 -0.362678 0
M  V30 13 C -2.467643 0.750182 0.091620 0
M  V30 14 C -1.981483 1.666929 1.025746 0
M  V30 15 C -0.677474 1.594292 1.473198 0
M  V30 16 C -0.001301 2.395160 2.386913 0
M  V30 17 C 1.271600 1.866069 2.451195 0
M  V30 18 C 1.392973 0.774875 1.611235 0
M  V30 19 N 0.188128 0.637126 1.031269 0
M  V30 20 C -0.311002 -0.216337 0.143554 0
M  V30 21 C -3.084814 2.595463 1.352055 0
M  V30 22 O -3.034373 3.567408 2.161816 0
M  V30 23 N -4.210683 2.174983 0.572902 0
M  V30 24 C -3.864597 1.040111 -0.215287 0
M  V30 25 O -4.570455 0.385347 -1.021765 0
M  V30 26 H 0.006265 -4.390240 2.631229 0
M  V30 27 H 1.136064 -5.300253 1.591753 0
M  V30 28 H 1.817036 -4.240192 2.923056 0
M  V30 29 H 3.550806 -4.047367 1.158319 0
M  V30 30 H 5.294185 -2.995307 -0.321739 0
M  V30 31 H 4.633670 -1.183354 -1.793494 0
M  V30 32 H 2.293051 -0.342718 -1.878050 0
M  V30 33 H -2.627551 -1.525071 -1.820224 0
M  V30 34 H -0.400095 3.244718 2.922683 0
M  V30 35 H 2.033707 2.294140 3.095212 0
M  V30 36 H 2.270511 0.160980 1.452996 0
M  V30 37 H -5.169300 2.622420 0.564308 0
M  V30 END ATOM
M  V30 BEGIN BOND
M  V30 1 1 1 2
M  V30 2 1 2 3
M  V30 3 2 3 4
M  V30 4 1 4 5
M  V30 5 2 5 6
M  V30 6 1 6 7
M  V30 7 2 7 8
M  V30 8 1 8 9
M  V30 9 1 9 10
M  V30 10 2 10 11
M  V30 11 1 11 12
M  V30 12 1 12 13
M  V30 13 2 13 14
M  V30 14 1 14 15
M  V30 15 2 15 16
M  V30 16 1 16 17
M  V30 17 2 17 18
M  V30 18 1 18 19
M  V30 19 1 19 20
M  V30 20 1 14 21
M  V30 21 2 21 22
M  V30 22 1 21 23
M  V30 23 1 23 24
M  V30 24 2 24 25
M  V30 25 1 8 3
M  V30 26 1 20 9
M  V30 27 2 20 12
M  V30 28 1 24 13
M  V30 29 1 19 15
M  V30 30 1 1 26
M  V30 31 1 1 27
M  V30 32 1 1 28
M  V30 33 1 4 29
M  V30 34 1 5 30
M  V30 35 1 6 31
M  V30 36 1 7 32
M  V30 37 1 11 33
M  V30 38 1 16 34
M  V30 39 1 17 35
M  V30 40 1 18 36
M  V30 41 1 23 37
M  V30 END BOND
M  V30 END CTAB
M  END
>  <Dataset>  (987) 
ChEMBL_Kinases

>  <Ligand_Instance>  (987) 
nan

>  <PDB_ID>  (987) 
nan

>  <Standardized_SMILES>  (987) 
COc1ccccc1-n1ncc2c3c(c4cccn4c21)C(=O)NC3=O

>  <Name>  (987) 
nan

>  <Pocket>  (987) 
nan

>  <ATP_Site>  (987) 
nan

>  <Peripheral>  (987) 
nan

>  <Num_H_Atoms_ProtBoundConf>  (987) 
nan

>  <Num_Resolved_Atoms>  (987) 
nan

>  <Num_Not_Resolved_Atoms>  (987) 
nan

$$$$
CHEMBL3110140
     RDKit          3D

  0  0  0  0  0  0  0  0  0  0999 V3000
M  V30 BEGIN CTAB
M  V30 COUNTS 36 40 0 0 0
M  V30 BEGIN ATOM
M  V30 1 C -0.290304 -3.894035 -1.365102 0
M  V30 2 C -0.056732 -2.726995 -0.483430 0
M  V30 3 N 0.374669 -2.735581 0.794120 0
M  V30 4 N 0.475322 -1.516050 1.290237 0
M  V30 5 C 0.912723 -1.284106 2.624577 0
M  V30 6 C 0.156858 -1.321728 3.770366 0
M  V30 7 C 0.771300 -1.064111 4.996502 0
M  V30 8 C 2.121741 -0.775911 5.049489 0
M  V30 9 C 2.899960 -0.734127 3.898815 0
M  V30 10 C 2.270514 -0.992149 2.698648 0
M  V30 11 C 0.112931 -0.612177 0.362431 0
M  V30 12 C -0.216427 -1.388891 -0.739924 0
M  V30 13 C -0.628208 -0.676889 -1.845268 0
M  V30 14 C -0.700288 0.700415 -1.835654 0
M  V30 15 C -0.356495 1.415007 -0.700582 0
M  V30 16 C -0.333257 2.770121 -0.412012 0
M  V30 17 C 0.102350 2.873032 0.896074 0
M  V30 18 C 0.324496 1.578668 1.344823 0
M  V30 19 N 0.044862 0.712594 0.375416 0
M  V30 20 C -1.167631 1.172245 -3.144669 0
M  V30 21 O -1.339151 2.391454 -3.455486 0
M  V30 22 N -1.369573 0.001465 -3.933190 0
M  V30 23 C -1.044813 -1.144678 -3.156215 0
M  V30 24 O -1.154000 -2.282780 -3.664427 0
M  V30 25 H -0.031363 -4.806748 -0.744291 0
M  V30 26 H -1.352424 -4.061129 -1.624715 0
M  V30 27 H 0.417166 -3.948497 -2.208300 0
M  V30 28 H -0.885932 -1.557454 3.604263 0
M  V30 29 H 0.126393 -1.108022 5.861785 0
M  V30 30 H 2.561933 -0.580115 6.034724 0
M  V30 31 H 3.959156 -0.505525 3.964719 0
M  V30 32 H 2.940532 -0.942794 1.835146 0
M  V30 33 H -0.603677 3.572527 -1.083627 0
M  V30 34 H 0.207392 3.851395 1.366079 0
M  V30 35 H 0.675777 1.410307 2.358961 0
M  V30 36 H -1.712136 0.084389 -4.935296 0
M  V30 END ATOM
M  V30 BEGIN BOND
M  V30 1 1 1 2
M  V30 2 2 2 3
M  V30 3 1 3 4
M  V30 4 1 4 5
M  V30 5 2 5 6
M  V30 6 1 6 7
M  V30 7 2 7 8
M  V30 8 1 8 9
M  V30 9 2 9 10
M  V30 10 1 4 11
M  V30 11 2 11 12
M  V30 12 1 12 13
M  V30 13 2 13 14
M  V30 14 1 14 15
M  V30 15 2 15 16
M  V30 16 1 16 17
M  V30 17 2 17 18
M  V30 18 1 18 19
M  V30 19 1 14 20
M  V30 20 2 20 21
M  V30 21 1 20 22
M  V30 22 1 22 23
M  V30 23 2 23 24
M  V30 24 1 12 2
M  V30 25 1 23 13
M  V30 26 1 10 5
M  V30 27 1 19 11
M  V30 28 1 19 15
M  V30 29 1 1 25
M  V30 30 1 1 26
M  V30 31 1 1 27
M  V30 32 1 6 28
M  V30 33 1 7 29
M  V30 34 1 8 30
M  V30 35 1 9 31
M  V30 36 1 10 32
M  V30 37 1 16 33
M  V30 38 1 17 34
M  V30 39 1 18 35
M  V30 40 1 22 36
M  V30 END BOND
M  V30 END CTAB
M  END
>  <Dataset>  (988) 
ChEMBL_Kinases

>  <Ligand_Instance>  (988) 
nan

>  <PDB_ID>  (988) 
nan

>  <Standardized_SMILES>  (988) 
Cc1nn(-c2ccccc2)c2c1c1c(c3cccn32)C(=O)NC1=O

>  <Name>  (988) 
nan

>  <Pocket>  (988) 
nan

>  <ATP_Site>  (988) 
nan

>  <Peripheral>  (988) 
nan

>  <Num_H_Atoms_ProtBoundConf>  (988) 
nan

>  <Num_Resolved_Atoms>  (988) 
nan

>  <Num_Not_Resolved_Atoms>  (988) 
nan

$$$$
CHEMBL3110142
     RDKit          3D

  0  0  0  0  0  0  0  0  0  0999 V3000
M  V30 BEGIN CTAB
M  V30 COUNTS 39 43 0 0 0
M  V30 BEGIN ATOM
M  V30 1 C -0.518378 -3.527505 -0.036328 0
M  V30 2 C 0.936765 -3.367641 0.055817 0
M  V30 3 C 1.742904 -4.477470 0.218357 0
M  V30 4 C 3.120602 -4.289869 0.302228 0
M  V30 5 C 3.691033 -3.023748 0.226390 0
M  V30 6 C 2.835643 -1.941989 0.062843 0
M  V30 7 C 1.448851 -2.110709 -0.023456 0
M  V30 8 N 0.698166 -0.909289 -0.190441 0
M  V30 9 N 0.402029 -0.423621 -1.381860 0
M  V30 10 C -0.315852 0.722930 -1.309703 0
M  V30 11 C -0.798711 1.507138 -2.467132 0
M  V30 12 C -0.452314 0.927091 0.022352 0
M  V30 13 C -1.049300 1.873121 0.784866 0
M  V30 14 C -1.050627 1.861012 2.159019 0
M  V30 15 C -0.395582 0.807651 2.795770 0
M  V30 16 C -0.231887 0.532197 4.136061 0
M  V30 17 C 0.492399 -0.625974 4.205078 0
M  V30 18 C 0.776564 -1.066718 2.911964 0
M  V30 19 N 0.213903 -0.158915 2.077325 0
M  V30 20 C 0.185877 -0.100132 0.727409 0
M  V30 21 C -1.780547 3.021576 2.671328 0
M  V30 22 O -1.942505 3.267579 3.898880 0
M  V30 23 N -2.235739 3.760540 1.517564 0
M  V30 24 C -1.785305 3.052954 0.368248 0
M  V30 25 O -2.101098 3.568548 -0.728298 0
M  V30 26 H -1.027112 -2.624990 -0.381473 0
M  V30 27 H -0.713717 -4.394452 -0.729386 0
M  V30 28 H -0.883367 -3.886312 0.951634 0
M  V30 29 H 1.336033 -5.478815 0.281594 0
M  V30 30 H 3.818832 -5.109443 0.429832 0
M  V30 31 H 4.745566 -2.827051 0.285646 0
M  V30 32 H 3.278769 -0.946992 0.002864 0
M  V30 33 H -0.367683 1.013715 -3.391624 0
M  V30 34 H -1.892270 1.594308 -2.549586 0
M  V30 35 H -0.384138 2.537895 -2.524079 0
M  V30 36 H -0.582901 1.084251 4.996476 0
M  V30 37 H 0.819775 -1.158263 5.086568 0
M  V30 38 H 1.330536 -1.948705 2.594560 0
M  V30 39 H -2.778249 4.625291 1.688806 0
M  V30 END ATOM
M  V30 BEGIN BOND
M  V30 1 1 1 2
M  V30 2 2 2 3
M  V30 3 1 3 4
M  V30 4 2 4 5
M  V30 5 1 5 6
M  V30 6 2 6 7
M  V30 7 1 7 8
M  V30 8 1 8 9
M  V30 9 2 9 10
M  V30 10 1 10 11
M  V30 11 1 10 12
M  V30 12 1 12 13
M  V30 13 2 13 14
M  V30 14 1 14 15
M  V30 15 2 15 16
M  V30 16 1 16 17
M  V30 17 2 17 18
M  V30 18 1 18 19
M  V30 19 1 19 20
M  V30 20 1 14 21
M  V30 21 2 21 22
M  V30 22 1 21 23
M  V30 23 1 23 24
M  V30 24 2 24 25
M  V30 25 1 7 2
M  V30 26 1 20 8
M  V30 27 2 20 12
M  V30 28 1 24 13
M  V30 29 1 19 15
M  V30 30 1 1 26
M  V30 31 1 1 27
M  V30 32 1 1 28
M  V30 33 1 3 29
M  V30 34 1 4 30
M  V30 35 1 5 31
M  V30 36 1 6 32
M  V30 37 1 11 33
M  V30 38 1 11 34
M  V30 39 1 11 35
M  V30 40 1 16 36
M  V30 41 1 17 37
M  V30 42 1 18 38
M  V30 43 1 23 39
M  V30 END BOND
M  V30 END CTAB
M  END
>  <Dataset>  (989) 
ChEMBL_Kinases

>  <Ligand_Instance>  (989) 
nan

>  <PDB_ID>  (989) 
nan

>  <Standardized_SMILES>  (989) 
Cc1ccccc1-n1nc(C)c2c3c(c4cccn4c21)C(=O)NC3=O

>  <Name>  (989) 
nan

>  <Pocket>  (989) 
nan

>  <ATP_Site>  (989) 
nan

>  <Peripheral>  (989) 
nan

>  <Num_H_Atoms_ProtBoundConf>  (989) 
nan

>  <Num_Resolved_Atoms>  (989) 
nan

>  <Num_Not_Resolved_Atoms>  (989) 
nan

$$$$
CHEMBL3110143
     RDKit          3D

  0  0  0  0  0  0  0  0  0  0999 V3000
M  V30 BEGIN CTAB
M  V30 COUNTS 36 40 0 0 0
M  V30 BEGIN ATOM
M  V30 1 C 1.293790 -3.918923 2.044005 0
M  V30 2 C 1.037847 -2.668206 1.298272 0
M  V30 3 N 1.690926 -2.209006 0.212778 0
M  V30 4 N 1.207312 -1.054017 -0.207198 0
M  V30 5 C 1.741965 -0.376977 -1.342330 0
M  V30 6 C 2.617597 0.642982 -1.001723 0
M  V30 7 C 3.238093 1.414642 -1.971434 0
M  V30 8 C 2.986100 1.171070 -3.306899 0
M  V30 9 C 2.110133 0.150318 -3.637649 0
M  V30 10 C 1.486804 -0.624141 -2.681486 0
M  V30 11 Cl 0.377784 -1.920500 -2.999884 0
M  V30 12 C 0.188730 -0.670318 0.585457 0
M  V30 13 C 0.096181 -1.686180 1.517574 0
M  V30 14 C -0.895322 -1.522637 2.461028 0
M  V30 15 C -1.721368 -0.417693 2.454096 0
M  V30 16 C -1.589458 0.571916 1.500704 0
M  V30 17 C -2.278541 1.751730 1.283650 0
M  V30 18 C -1.683660 2.311553 0.179009 0
M  V30 19 C -0.670105 1.465270 -0.229522 0
M  V30 20 N -0.618853 0.405085 0.582647 0
M  V30 21 C -2.660360 -0.556517 3.588002 0
M  V30 22 O -3.544402 0.303398 3.844664 0
M  V30 23 N -2.367106 -1.787983 4.277401 0
M  V30 24 C -1.278338 -2.375606 3.575406 0
M  V30 25 O -0.847018 -3.471896 4.004136 0
M  V30 26 H 0.486073 -4.669763 1.969167 0
M  V30 27 H 2.160785 -4.425263 1.516401 0
M  V30 28 H 1.681517 -3.743097 3.061871 0
M  V30 29 H 2.901043 0.936335 0.020529 0
M  V30 30 H 3.933230 2.226601 -1.756262 0
M  V30 31 H 3.427278 1.724915 -4.124886 0
M  V30 32 H 1.864364 -0.098260 -4.667120 0
M  V30 33 H -3.110092 2.078988 1.919287 0
M  V30 34 H -2.057763 3.267264 -0.196847 0
M  V30 35 H -0.070795 1.726202 -1.094315 0
M  V30 36 H -2.920707 -2.078157 5.116454 0
M  V30 END ATOM
M  V30 BEGIN BOND
M  V30 1 1 1 2
M  V30 2 2 2 3
M  V30 3 1 3 4
M  V30 4 1 4 5
M  V30 5 2 5 6
M  V30 6 1 6 7
M  V30 7 2 7 8
M  V30 8 1 8 9
M  V30 9 2 9 10
M  V30 10 1 10 11
M  V30 11 1 4 12
M  V30 12 2 12 13
M  V30 13 1 13 14
M  V30 14 2 14 15
M  V30 15 1 15 16
M  V30 16 2 16 17
M  V30 17 1 17 18
M  V30 18 2 18 19
M  V30 19 1 19 20
M  V30 20 1 15 21
M  V30 21 2 21 22
M  V30 22 1 21 23
M  V30 23 1 23 24
M  V30 24 2 24 25
M  V30 25 1 13 2
M  V30 26 1 24 14
M  V30 27 1 10 5
M  V30 28 1 20 12
M  V30 29 1 20 16
M  V30 30 1 1 26
M  V30 31 1 1 27
M  V30 32 1 1 28
M  V30 33 1 6 29
M  V30 34 1 7 30
M  V30 35 1 8 31
M  V30 36 1 9 32
M  V30 37 1 17 33
M  V30 38 1 18 34
M  V30 39 1 19 35
M  V30 40 1 23 36
M  V30 END BOND
M  V30 END CTAB
M  END
>  <Dataset>  (990) 
ChEMBL_Kinases

>  <Ligand_Instance>  (990) 
nan

>  <PDB_ID>  (990) 
nan

>  <Standardized_SMILES>  (990) 
Cc1nn(-c2ccccc2Cl)c2c1c1c(c3cccn32)C(=O)NC1=O

>  <Name>  (990) 
nan

>  <Pocket>  (990) 
nan

>  <ATP_Site>  (990) 
nan

>  <Peripheral>  (990) 
nan

>  <Num_H_Atoms_ProtBoundConf>  (990) 
nan

>  <Num_Resolved_Atoms>  (990) 
nan

>  <Num_Not_Resolved_Atoms>  (990) 
nan

$$$$
CHEMBL311108
     RDKit          3D

  0  0  0  0  0  0  0  0  0  0999 V3000
M  V30 BEGIN CTAB
M  V30 COUNTS 25 27 0 0 0
M  V30 BEGIN ATOM
M  V30 1 N 0.045315 -2.618847 4.540468 0
M  V30 2 C 0.559821 -3.051070 3.287219 0
M  V30 3 N 1.058163 -4.268059 3.011901 0
M  V30 4 C 1.487932 -4.428775 1.729540 0
M  V30 5 N 1.454506 -3.518137 0.773384 0
M  V30 6 C 0.966139 -2.284291 0.994722 0
M  V30 7 C 0.880378 -1.265924 0.091137 0
M  V30 8 C 0.344512 -0.071855 0.521913 0
M  V30 9 C 0.094496 1.208627 -0.127274 0
M  V30 10 C -0.467881 2.207619 0.623899 0
M  V30 11 C -0.687853 3.417049 -0.044428 0
M  V30 12 C -0.340467 3.538711 -1.376623 0
M  V30 13 C 0.225405 2.498669 -2.091515 0
M  V30 14 C 0.457656 1.276379 -1.450140 0
M  V30 15 S -0.055044 -0.382666 2.255114 0
M  V30 16 C 0.521149 -2.081896 2.280195 0
M  V30 17 H 0.381482 -2.558024 5.532337 0
M  V30 18 H -0.927306 -2.241800 4.588349 0
M  V30 19 H 1.902096 -5.418168 1.474855 0
M  V30 20 H 1.186105 -1.277930 -0.941392 0
M  V30 21 H -0.732400 2.091825 1.665580 0
M  V30 22 H -1.130528 4.251718 0.490049 0
M  V30 23 H -0.519144 4.486074 -1.878288 0
M  V30 24 H 0.482135 2.637810 -3.133856 0
M  V30 25 H 0.898781 0.448325 -1.987184 0
M  V30 END ATOM
M  V30 BEGIN BOND
M  V30 1 1 1 2
M  V30 2 2 2 3
M  V30 3 1 3 4
M  V30 4 2 4 5
M  V30 5 1 5 6
M  V30 6 1 6 7
M  V30 7 2 7 8
M  V30 8 1 8 9
M  V30 9 2 9 10
M  V30 10 1 10 11
M  V30 11 2 11 12
M  V30 12 1 12 13
M  V30 13 2 13 14
M  V30 14 1 8 15
M  V30 15 1 15 16
M  V30 16 1 16 2
M  V30 17 2 16 6
M  V30 18 1 14 9
M  V30 19 1 1 17
M  V30 20 1 1 18
M  V30 21 1 4 19
M  V30 22 1 7 20
M  V30 23 1 10 21
M  V30 24 1 11 22
M  V30 25 1 12 23
M  V30 26 1 13 24
M  V30 27 1 14 25
M  V30 END BOND
M  V30 END CTAB
M  END
>  <Dataset>  (991) 
ChEMBL_Kinases

>  <Ligand_Instance>  (991) 
nan

>  <PDB_ID>  (991) 
nan

>  <Standardized_SMILES>  (991) 
Nc1ncnc2cc(-c3ccccc3)sc12

>  <Name>  (991) 
nan

>  <Pocket>  (991) 
nan

>  <ATP_Site>  (991) 
nan

>  <Peripheral>  (991) 
nan

>  <Num_H_Atoms_ProtBoundConf>  (991) 
nan

>  <Num_Resolved_Atoms>  (991) 
nan

>  <Num_Not_Resolved_Atoms>  (991) 
nan

$$$$
CHEMBL3112592
     RDKit          3D

  0  0  0  0  0  0  0  0  0  0999 V3000
M  V30 BEGIN CTAB
M  V30 COUNTS 45 48 0 0 0
M  V30 BEGIN ATOM
M  V30 1 O -0.959215 -1.115097 3.867138 0
M  V30 2 C -0.175050 -1.687669 3.101410 0
M  V30 3 C 1.296972 -1.745246 3.172720 0
M  V30 4 C 1.912611 -0.395156 2.980352 0
M  V30 5 N 1.731275 -0.037685 1.675123 0
M  V30 6 C 2.203431 1.136018 1.178779 0
M  V30 7 N 2.012249 1.544247 -0.173142 0
M  V30 8 C 0.740082 2.099346 -0.626625 0
M  V30 9 C 0.398938 1.669355 -2.016462 0
M  V30 10 O 1.473038 1.606872 -2.863606 0
M  V30 11 C 2.650176 2.135622 -2.397236 0
M  V30 12 C 3.089911 1.403142 -1.133339 0
M  V30 13 C 2.888436 1.987493 2.030531 0
M  V30 14 C 3.022315 1.547278 3.321405 0
M  V30 15 O 3.643362 2.276970 4.170381 0
M  V30 16 N 2.569229 0.398823 3.840738 0
M  V30 17 N -0.715251 -2.413412 1.964605 0
M  V30 18 C -0.024994 -3.153753 0.907397 0
M  V30 19 C -0.899268 -2.796354 -0.291126 0
M  V30 20 C -2.276592 -2.771904 0.272295 0
M  V30 21 C -3.481611 -2.938447 -0.377828 0
M  V30 22 C -4.596675 -2.867614 0.426446 0
M  V30 23 Cl -6.141782 -3.074284 -0.402973 0
M  V30 24 C -4.480981 -2.642647 1.797422 0
M  V30 25 C -3.243312 -2.480388 2.409003 0
M  V30 26 C -2.113474 -2.546644 1.627187 0
M  V30 27 H 1.746880 -2.525872 2.575037 0
M  V30 28 H 1.521375 -1.988868 4.260652 0
M  V30 29 H -0.034784 1.742845 0.075391 0
M  V30 30 H 0.839094 3.205470 -0.620869 0
M  V30 31 H -0.363574 2.390937 -2.414870 0
M  V30 32 H -0.108139 0.678996 -2.062472 0
M  V30 33 H 3.402945 1.997114 -3.203837 0
M  V30 34 H 2.505198 3.213932 -2.177860 0
M  V30 35 H 4.049857 1.809548 -0.777095 0
M  V30 36 H 3.204669 0.316012 -1.406270 0
M  V30 37 H 3.304116 2.934880 1.745105 0
M  V30 38 H 2.627712 -0.003073 4.792442 0
M  V30 39 H 0.998874 -2.751411 0.738028 0
M  V30 40 H 0.020836 -4.228100 1.075828 0
M  V30 41 H -0.571336 -1.796924 -0.597782 0
M  V30 42 H -0.776291 -3.489199 -1.121198 0
M  V30 43 H -3.481531 -3.106435 -1.446493 0
M  V30 44 H -5.413521 -2.601530 2.363478 0
M  V30 45 H -3.167367 -2.310192 3.462336 0
M  V30 END ATOM
M  V30 BEGIN BOND
M  V30 1 2 1 2
M  V30 2 1 2 3
M  V30 3 1 3 4
M  V30 4 2 4 5
M  V30 5 1 5 6
M  V30 6 1 6 7
M  V30 7 1 7 8
M  V30 8 1 8 9
M  V30 9 1 9 10
M  V30 10 1 10 11
M  V30 11 1 11 12
M  V30 12 2 6 13
M  V30 13 1 13 14
M  V30 14 2 14 15
M  V30 15 1 14 16
M  V30 16 1 2 17
M  V30 17 1 17 18
M  V30 18 1 18 19
M  V30 19 1 19 20
M  V30 20 2 20 21
M  V30 21 1 21 22
M  V30 22 1 22 23
M  V30 23 2 22 24
M  V30 24 1 24 25
M  V30 25 2 25 26
M  V30 26 1 16 4
M  V30 27 1 26 17
M  V30 28 1 12 7
M  V30 29 1 26 20
M  V30 30 1 3 27
M  V30 31 1 3 28
M  V30 32 1 8 29
M  V30 33 1 8 30
M  V30 34 1 9 31
M  V30 35 1 9 32
M  V30 36 1 11 33
M  V30 37 1 11 34
M  V30 38 1 12 35
M  V30 39 1 12 36
M  V30 40 1 13 37
M  V30 41 1 16 38
M  V30 42 1 18 39
M  V30 43 1 18 40
M  V30 44 1 19 41
M  V30 45 1 19 42
M  V30 46 1 21 43
M  V30 47 1 24 44
M  V30 48 1 25 45
M  V30 END BOND
M  V30 END CTAB
M  END
>  <Dataset>  (992) 
ChEMBL_Kinases

>  <Ligand_Instance>  (992) 
nan

>  <PDB_ID>  (992) 
nan

>  <Standardized_SMILES>  (992) 
O=C(Cc1nc(N2CCOCC2)cc(=O)[nH]1)N1CCc2cc(Cl)ccc21

>  <Name>  (992) 
nan

>  <Pocket>  (992) 
nan

>  <ATP_Site>  (992) 
nan

>  <Peripheral>  (992) 
nan

>  <Num_H_Atoms_ProtBoundConf>  (992) 
nan

>  <Num_Resolved_Atoms>  (992) 
nan

>  <Num_Not_Resolved_Atoms>  (992) 
nan

$$$$
CHEMBL3112595
     RDKit          3D

  0  0  0  0  0  0  0  0  0  0999 V3000
M  V30 BEGIN CTAB
M  V30 COUNTS 46 48 0 0 0
M  V30 BEGIN ATOM
M  V30 1 C 1.316819 -4.074849 1.186113 0
M  V30 2 C 0.212048 -3.356693 0.457509 0
M  V30 3 C -0.821553 -2.927649 1.462290 0
M  V30 4 C -0.468234 -4.444535 -0.394559 0
M  V30 5 N 0.621199 -2.352621 -0.430577 0
M  V30 6 C 1.380897 -1.257955 0.022949 0
M  V30 7 C 1.691671 -0.436682 -1.211723 0
M  V30 8 C 2.116523 -1.017868 -2.389117 0
M  V30 9 C 2.398276 -0.261171 -3.510856 0
M  V30 10 C 2.244224 1.106758 -3.429532 0
M  V30 11 Cl 2.611530 2.037573 -4.876371 0
M  V30 12 C 1.819902 1.766351 -2.277199 0
M  V30 13 C 1.561608 0.936217 -1.207800 0
M  V30 14 C 0.633411 -0.334737 0.945412 0
M  V30 15 C 1.214294 0.107287 2.140332 0
M  V30 16 C 0.578551 0.961136 3.015574 0
M  V30 17 C -0.690132 1.405516 2.706801 0
M  V30 18 C -1.371318 2.320846 3.641935 0
M  V30 19 C -0.832652 3.289580 4.479186 0
M  V30 20 N -1.879732 3.850008 5.128575 0
M  V30 21 N -2.975402 3.254567 4.706622 0
M  V30 22 C -2.760425 2.290285 3.781984 0
M  V30 23 C -1.306012 0.999063 1.541572 0
M  V30 24 C -0.632741 0.144961 0.696497 0
M  V30 25 H 0.873165 -5.033115 1.554295 0
M  V30 26 H 2.132396 -4.375748 0.495144 0
M  V30 27 H 1.660204 -3.547261 2.090796 0
M  V30 28 H -0.429368 -2.272175 2.258238 0
M  V30 29 H -1.704391 -2.520137 0.922592 0
M  V30 30 H -1.172204 -3.847087 2.001802 0
M  V30 31 H -1.376928 -4.831367 0.075898 0
M  V30 32 H -0.737757 -4.056784 -1.406304 0
M  V30 33 H 0.216469 -5.295047 -0.586968 0
M  V30 34 H -0.160914 -2.046400 -1.023505 0
M  V30 35 H 2.331687 -1.477684 0.497062 0
M  V30 36 H 2.232199 -2.094772 -2.433821 0
M  V30 37 H 2.730825 -0.723186 -4.430568 0
M  V30 38 H 1.707947 2.836524 -2.240781 0
M  V30 39 H 1.230286 1.416783 -0.296289 0
M  V30 40 H 2.217703 -0.267498 2.346351 0
M  V30 41 H 1.056165 1.286204 3.935145 0
M  V30 42 H 0.248269 3.475665 4.521032 0
M  V30 43 H -3.942561 3.500478 5.053073 0
M  V30 44 H -3.523770 1.692113 3.317511 0
M  V30 45 H -2.294725 1.338586 1.290574 0
M  V30 46 H -1.069154 -0.209952 -0.238993 0
M  V30 END ATOM
M  V30 BEGIN BOND
M  V30 1 1 1 2
M  V30 2 1 2 3
M  V30 3 1 2 4
M  V30 4 1 2 5
M  V30 5 1 5 6
M  V30 6 1 6 7
M  V30 7 2 7 8
M  V30 8 1 8 9
M  V30 9 2 9 10
M  V30 10 1 10 11
M  V30 11 1 10 12
M  V30 12 2 12 13
M  V30 13 1 6 14
M  V30 14 2 14 15
M  V30 15 1 15 16
M  V30 16 2 16 17
M  V30 17 1 17 18
M  V30 18 1 18 19
M  V30 19 2 19 20
M  V30 20 1 20 21
M  V30 21 1 21 22
M  V30 22 1 17 23
M  V30 23 2 23 24
M  V30 24 1 13 7
M  V30 25 1 24 14
M  V30 26 2 22 18
M  V30 27 1 1 25
M  V30 28 1 1 26
M  V30 29 1 1 27
M  V30 30 1 3 28
M  V30 31 1 3 29
M  V30 32 1 3 30
M  V30 33 1 4 31
M  V30 34 1 4 32
M  V30 35 1 4 33
M  V30 36 1 5 34
M  V30 37 1 6 35
M  V30 38 1 8 36
M  V30 39 1 9 37
M  V30 40 1 12 38
M  V30 41 1 13 39
M  V30 42 1 15 40
M  V30 43 1 16 41
M  V30 44 1 19 42
M  V30 45 1 21 43
M  V30 46 1 22 44
M  V30 47 1 23 45
M  V30 48 1 24 46
M  V30 END BOND
M  V30 END CTAB
M  END
>  <Dataset>  (993) 
ChEMBL_Kinases

>  <Ligand_Instance>  (993) 
nan

>  <PDB_ID>  (993) 
nan

>  <Standardized_SMILES>  (993) 
CC(C)(C)NC(c1ccc(Cl)cc1)c1ccc(-c2cn[nH]c2)cc1

>  <Name>  (993) 
nan

>  <Pocket>  (993) 
nan

>  <ATP_Site>  (993) 
nan

>  <Peripheral>  (993) 
nan

>  <Num_H_Atoms_ProtBoundConf>  (993) 
nan

>  <Num_Resolved_Atoms>  (993) 
nan

>  <Num_Not_Resolved_Atoms>  (993) 
nan

$$$$
CHEMBL3112690
     RDKit          3D

  0  0  0  0  0  0  0  0  0  0999 V3000
M  V30 BEGIN CTAB
M  V30 COUNTS 45 48 0 0 0
M  V30 BEGIN ATOM
M  V30 1 O -0.403201 -2.773935 0.380101 0
M  V30 2 C -0.090582 -2.492972 1.548862 0
M  V30 3 C 1.145082 -2.820569 2.316495 0
M  V30 4 C 2.262153 -1.919216 1.867597 0
M  V30 5 N 1.909489 -1.140133 0.803428 0
M  V30 6 C 2.791289 -0.232441 0.267837 0
M  V30 7 N 2.216003 0.499841 -0.834262 0
M  V30 8 C 0.754083 0.431688 -1.004973 0
M  V30 9 C 0.463599 -0.241748 -2.334352 0
M  V30 10 O 1.408823 0.076369 -3.287691 0
M  V30 11 C 1.940487 1.357045 -3.026216 0
M  V30 12 C 2.890544 1.311604 -1.822973 0
M  V30 13 C 4.051384 -0.085795 0.793036 0
M  V30 14 C 4.352312 -0.892712 1.858432 0
M  V30 15 O 5.499147 -0.788349 2.371909 0
M  V30 16 N 3.491108 -1.770807 2.369263 0
M  V30 17 N -1.013768 -1.724630 2.347751 0
M  V30 18 C -1.013559 -1.246342 3.741380 0
M  V30 19 C -1.434207 0.210802 3.466618 0
M  V30 20 C -2.568947 0.008245 2.483287 0
M  V30 21 C -3.702831 0.744392 2.184769 0
M  V30 22 C -4.564432 0.258517 1.220650 0
M  V30 23 C -4.281972 -0.942062 0.574465 0
M  V30 24 C -3.139130 -1.692121 0.869234 0
M  V30 25 C -2.270587 -1.191582 1.849877 0
M  V30 26 H 1.430338 -3.863187 2.073464 0
M  V30 27 H 0.977227 -2.785549 3.384607 0
M  V30 28 H 0.359939 -0.231769 -0.234676 0
M  V30 29 H 0.279849 1.429261 -0.914082 0
M  V30 30 H -0.552513 0.093725 -2.637346 0
M  V30 31 H 0.444345 -1.336096 -2.210150 0
M  V30 32 H 2.383659 1.791787 -3.919601 0
M  V30 33 H 1.074319 2.009479 -2.705074 0
M  V30 34 H 2.954737 2.342325 -1.444162 0
M  V30 35 H 3.871445 0.861653 -2.108814 0
M  V30 36 H 4.683872 0.646259 0.326794 0
M  V30 37 H 3.678710 -2.404332 3.173713 0
M  V30 38 H -1.825007 -1.722558 4.304396 0
M  V30 39 H -0.062996 -1.294586 4.237006 0
M  V30 40 H -0.601707 0.774811 3.037842 0
M  V30 41 H -1.808989 0.717472 4.358083 0
M  V30 42 H -3.795192 1.666654 2.768314 0
M  V30 43 H -5.431458 0.867081 1.029453 0
M  V30 44 H -4.994224 -1.263201 -0.167642 0
M  V30 45 H -2.929806 -2.615319 0.363499 0
M  V30 END ATOM
M  V30 BEGIN BOND
M  V30 1 2 1 2
M  V30 2 1 2 3
M  V30 3 1 3 4
M  V30 4 2 4 5
M  V30 5 1 5 6
M  V30 6 1 6 7
M  V30 7 1 7 8
M  V30 8 1 8 9
M  V30 9 1 9 10
M  V30 10 1 10 11
M  V30 11 1 11 12
M  V30 12 2 6 13
M  V30 13 1 13 14
M  V30 14 2 14 15
M  V30 15 1 14 16
M  V30 16 1 2 17
M  V30 17 1 17 18
M  V30 18 1 18 19
M  V30 19 1 19 20
M  V30 20 2 20 21
M  V30 21 1 21 22
M  V30 22 2 22 23
M  V30 23 1 23 24
M  V30 24 2 24 25
M  V30 25 1 16 4
M  V30 26 1 25 17
M  V30 27 1 12 7
M  V30 28 1 25 20
M  V30 29 1 3 26
M  V30 30 1 3 27
M  V30 31 1 8 28
M  V30 32 1 8 29
M  V30 33 1 9 30
M  V30 34 1 9 31
M  V30 35 1 11 32
M  V30 36 1 11 33
M  V30 37 1 12 34
M  V30 38 1 12 35
M  V30 39 1 13 36
M  V30 40 1 16 37
M  V30 41 1 18 38
M  V30 42 1 18 39
M  V30 43 1 19 40
M  V30 44 1 19 41
M  V30 45 1 21 42
M  V30 46 1 22 43
M  V30 47 1 23 44
M  V30 48 1 24 45
M  V30 END BOND
M  V30 END CTAB
M  END
>  <Dataset>  (994) 
ChEMBL_Kinases

>  <Ligand_Instance>  (994) 
nan

>  <PDB_ID>  (994) 
nan

>  <Standardized_SMILES>  (994) 
O=C(Cc1nc(N2CCOCC2)cc(=O)[nH]1)N1CCc2ccccc21

>  <Name>  (994) 
nan

>  <Pocket>  (994) 
nan

>  <ATP_Site>  (994) 
nan

>  <Peripheral>  (994) 
nan

>  <Num_H_Atoms_ProtBoundConf>  (994) 
nan

>  <Num_Resolved_Atoms>  (994) 
nan

>  <Num_Not_Resolved_Atoms>  (994) 
nan

$$$$
CHEMBL3112865
     RDKit          3D

  0  0  0  0  0  0  0  0  0  0999 V3000
M  V30 BEGIN CTAB
M  V30 COUNTS 51 54 0 0 0
M  V30 BEGIN ATOM
M  V30 1 C -0.063850 -3.974419 3.172886 0
M  V30 2 C -0.479759 -3.329932 1.864042 0
M  V30 3 C -1.821263 -2.651779 2.017277 0
M  V30 4 C 0.520690 -2.323568 1.391266 0
M  V30 5 N 0.772433 -2.702711 0.023507 0
M  V30 6 C 1.475500 -1.894899 -0.954100 0
M  V30 7 O 1.605843 -2.067135 -2.163408 0
M  V30 8 C 2.172566 -0.665893 -0.499398 0
M  V30 9 C 1.580565 0.592181 -0.968285 0
M  V30 10 N 0.921338 1.335698 -0.028130 0
M  V30 11 C 0.352512 2.513454 -0.360965 0
M  V30 12 N -0.284869 3.218119 0.725545 0
M  V30 13 C 0.565476 4.266344 1.309081 0
M  V30 14 C 0.747559 3.918184 2.761711 0
M  V30 15 O 0.016583 2.798941 3.154590 0
M  V30 16 C -1.331276 2.933668 2.856416 0
M  V30 17 C -1.592758 3.158508 1.400474 0
M  V30 18 C 0.394946 3.021795 -1.621690 0
M  V30 19 C 1.061367 2.269456 -2.573689 0
M  V30 20 O 1.152003 2.669545 -3.782521 0
M  V30 21 N 1.642622 1.073708 -2.245623 0
M  V30 22 C 0.239214 -3.960757 -0.348100 0
M  V30 23 C 0.262102 -4.840401 -1.406223 0
M  V30 24 C -0.428466 -6.056542 -1.382642 0
M  V30 25 C -1.154040 -6.364011 -0.240776 0
M  V30 26 C -1.206129 -5.507472 0.853615 0
M  V30 27 C -0.500266 -4.327922 0.754322 0
M  V30 28 H 0.392237 -4.957166 3.029251 0
M  V30 29 H -0.911893 -4.035538 3.874825 0
M  V30 30 H 0.710227 -3.308034 3.619839 0
M  V30 31 H -1.873515 -1.728597 1.408575 0
M  V30 32 H -2.653020 -3.293496 1.632506 0
M  V30 33 H -2.029397 -2.396114 3.079655 0
M  V30 34 H 0.007597 -1.326524 1.336423 0
M  V30 35 H 1.424173 -2.270920 2.031570 0
M  V30 36 H 3.247717 -0.747198 -0.791173 0
M  V30 37 H 2.164420 -0.674747 0.610097 0
M  V30 38 H 1.515013 4.362615 0.775358 0
M  V30 39 H -0.008407 5.226299 1.216650 0
M  V30 40 H 1.817261 3.708596 2.912044 0
M  V30 41 H 0.521907 4.818348 3.378172 0
M  V30 42 H -1.816271 2.005345 3.191742 0
M  V30 43 H -1.728971 3.764833 3.480622 0
M  V30 44 H -2.045268 4.178399 1.234504 0
M  V30 45 H -2.221954 2.389775 0.925811 0
M  V30 46 H -0.064419 3.970186 -1.873594 0
M  V30 47 H 2.145880 0.481430 -2.936176 0
M  V30 48 H 0.858952 -4.509607 -2.259746 0
M  V30 49 H -0.375404 -6.710118 -2.241679 0
M  V30 50 H -1.651427 -7.320498 -0.298490 0
M  V30 51 H -1.798379 -5.856134 1.678691 0
M  V30 END ATOM
M  V30 BEGIN BOND
M  V30 1 1 1 2
M  V30 2 1 2 3
M  V30 3 1 2 4
M  V30 4 1 4 5
M  V30 5 1 5 6
M  V30 6 2 6 7
M  V30 7 1 6 8
M  V30 8 1 8 9
M  V30 9 2 9 10
M  V30 10 1 10 11
M  V30 11 1 11 12
M  V30 12 1 12 13
M  V30 13 1 13 14
M  V30 14 1 14 15
M  V30 15 1 15 16
M  V30 16 1 16 17
M  V30 17 2 11 18
M  V30 18 1 18 19
M  V30 19 2 19 20
M  V30 20 1 19 21
M  V30 21 1 5 22
M  V30 22 2 22 23
M  V30 23 1 23 24
M  V30 24 2 24 25
M  V30 25 1 25 26
M  V30 26 2 26 27
M  V30 27 1 27 2
M  V30 28 1 21 9
M  V30 29 1 27 22
M  V30 30 1 17 12
M  V30 31 1 1 28
M  V30 32 1 1 29
M  V30 33 1 1 30
M  V30 34 1 3 31
M  V30 35 1 3 32
M  V30 36 1 3 33
M  V30 37 1 4 34
M  V30 38 1 4 35
M  V30 39 1 8 36
M  V30 40 1 8 37
M  V30 41 1 13 38
M  V30 42 1 13 39
M  V30 43 1 14 40
M  V30 44 1 14 41
M  V30 45 1 16 42
M  V30 46 1 16 43
M  V30 47 1 17 44
M  V30 48 1 17 45
M  V30 49 1 18 46
M  V30 50 1 21 47
M  V30 51 1 23 48
M  V30 52 1 24 49
M  V30 53 1 25 50
M  V30 54 1 26 51
M  V30 END BOND
M  V30 END CTAB
M  END
>  <Dataset>  (995) 
ChEMBL_Kinases

>  <Ligand_Instance>  (995) 
nan

>  <PDB_ID>  (995) 
nan

>  <Standardized_SMILES>  (995) 
CC1(C)CN(C(=O)Cc2nc(N3CCOCC3)cc(=O)[nH]2)c2ccccc21

>  <Name>  (995) 
nan

>  <Pocket>  (995) 
nan

>  <ATP_Site>  (995) 
nan

>  <Peripheral>  (995) 
nan

>  <Num_H_Atoms_ProtBoundConf>  (995) 
nan

>  <Num_Resolved_Atoms>  (995) 
nan

>  <Num_Not_Resolved_Atoms>  (995) 
nan

$$$$
CHEMBL3112848
     RDKit          3D

  0  0  0  0  0  0  0  0  0  0999 V3000
M  V30 BEGIN CTAB
M  V30 COUNTS 45 48 0 0 0
M  V30 BEGIN ATOM
M  V30 1 O -1.138887 -0.820015 2.052053 0
M  V30 2 C -0.391316 -1.769102 1.730400 0
M  V30 3 C 1.094450 -1.758602 1.590299 0
M  V30 4 C 1.658769 -0.419715 1.888397 0
M  V30 5 N 1.786938 0.447601 0.867678 0
M  V30 6 C 2.280931 1.691060 0.990638 0
M  V30 7 N 2.381229 2.533306 -0.124201 0
M  V30 8 C 2.899924 3.886481 -0.086238 0
M  V30 9 C 2.242629 4.657263 -1.209902 0
M  V30 10 O 2.608221 4.156728 -2.444078 0
M  V30 11 C 2.881761 2.798407 -2.420098 0
M  V30 12 C 1.953203 2.077448 -1.432766 0
M  V30 13 C 2.693461 2.135435 2.241276 0
M  V30 14 C 2.552810 1.227627 3.276416 0
M  V30 15 O 2.918045 1.588625 4.446346 0
M  V30 16 N 2.054500 -0.011795 3.123585 0
M  V30 17 N -1.040702 -3.011483 1.465886 0
M  V30 18 C -0.451352 -4.299928 1.070130 0
M  V30 19 C -1.531154 -4.903695 0.172189 0
M  V30 20 C -2.787722 -4.394240 0.778813 0
M  V30 21 C -4.094675 -4.829280 0.703521 0
M  V30 22 F -4.421973 -5.920787 -0.034486 0
M  V30 23 C -5.052185 -4.108758 1.409001 0
M  V30 24 C -4.734684 -2.998090 2.162858 0
M  V30 25 C -3.419366 -2.566445 2.234108 0
M  V30 26 C -2.456442 -3.282896 1.530599 0
M  V30 27 H 1.331926 -2.029852 0.556957 0
M  V30 28 H 1.479223 -2.562134 2.251566 0
M  V30 29 H 2.610552 4.364141 0.879521 0
M  V30 30 H 4.007423 3.928578 -0.133799 0
M  V30 31 H 2.474772 5.729257 -1.121613 0
M  V30 32 H 1.152611 4.531607 -1.105655 0
M  V30 33 H 2.785374 2.403005 -3.446132 0
M  V30 34 H 3.934748 2.682057 -2.048797 0
M  V30 35 H 2.132310 0.993348 -1.574488 0
M  V30 36 H 0.919269 2.402099 -1.581822 0
M  V30 37 H 3.096501 3.111881 2.415163 0
M  V30 38 H 1.952006 -0.690759 3.911574 0
M  V30 39 H 0.509542 -4.171058 0.549411 0
M  V30 40 H -0.322743 -4.963098 1.970902 0
M  V30 41 H -1.373764 -4.486031 -0.832842 0
M  V30 42 H -1.487944 -6.003353 0.234970 0
M  V30 43 H -6.070484 -4.505787 1.307839 0
M  V30 44 H -5.568504 -2.521490 2.666801 0
M  V30 45 H -3.220400 -1.690566 2.838165 0
M  V30 END ATOM
M  V30 BEGIN BOND
M  V30 1 2 1 2
M  V30 2 1 2 3
M  V30 3 1 3 4
M  V30 4 2 4 5
M  V30 5 1 5 6
M  V30 6 1 6 7
M  V30 7 1 7 8
M  V30 8 1 8 9
M  V30 9 1 9 10
M  V30 10 1 10 11
M  V30 11 1 11 12
M  V30 12 2 6 13
M  V30 13 1 13 14
M  V30 14 2 14 15
M  V30 15 1 14 16
M  V30 16 1 2 17
M  V30 17 1 17 18
M  V30 18 1 18 19
M  V30 19 1 19 20
M  V30 20 2 20 21
M  V30 21 1 21 22
M  V30 22 1 21 23
M  V30 23 2 23 24
M  V30 24 1 24 25
M  V30 25 2 25 26
M  V30 26 1 16 4
M  V30 27 1 26 17
M  V30 28 1 12 7
M  V30 29 1 26 20
M  V30 30 1 3 27
M  V30 31 1 3 28
M  V30 32 1 8 29
M  V30 33 1 8 30
M  V30 34 1 9 31
M  V30 35 1 9 32
M  V30 36 1 11 33
M  V30 37 1 11 34
M  V30 38 1 12 35
M  V30 39 1 12 36
M  V30 40 1 13 37
M  V30 41 1 16 38
M  V30 42 1 18 39
M  V30 43 1 18 40
M  V30 44 1 19 41
M  V30 45 1 19 42
M  V30 46 1 23 43
M  V30 47 1 24 44
M  V30 48 1 25 45
M  V30 END BOND
M  V30 END CTAB
M  END
>  <Dataset>  (996) 
ChEMBL_Kinases

>  <Ligand_Instance>  (996) 
nan

>  <PDB_ID>  (996) 
nan

>  <Standardized_SMILES>  (996) 
O=C(Cc1nc(N2CCOCC2)cc(=O)[nH]1)N1CCc2c(F)cccc21

>  <Name>  (996) 
nan

>  <Pocket>  (996) 
nan

>  <ATP_Site>  (996) 
nan

>  <Peripheral>  (996) 
nan

>  <Num_H_Atoms_ProtBoundConf>  (996) 
nan

>  <Num_Resolved_Atoms>  (996) 
nan

>  <Num_Not_Resolved_Atoms>  (996) 
nan

$$$$
CHEMBL3112849
     RDKit          3D

  0  0  0  0  0  0  0  0  0  0999 V3000
M  V30 BEGIN CTAB
M  V30 COUNTS 45 48 0 0 0
M  V30 BEGIN ATOM
M  V30 1 O -1.017918 -1.020680 2.053183 0
M  V30 2 C -0.304198 -1.943065 1.581017 0
M  V30 3 C 1.169922 -1.868752 1.372597 0
M  V30 4 C 1.725181 -0.568552 1.786886 0
M  V30 5 N 1.788224 0.415359 0.871089 0
M  V30 6 C 2.270627 1.637944 1.123987 0
M  V30 7 N 2.309976 2.632022 0.114879 0
M  V30 8 C 2.817540 3.973732 0.318120 0
M  V30 9 C 2.167551 4.957204 -0.610545 0
M  V30 10 O 2.056629 4.530923 -1.910256 0
M  V30 11 C 2.556432 3.269721 -2.159884 0
M  V30 12 C 1.821196 2.320942 -1.210430 0
M  V30 13 C 2.737928 1.930375 2.395810 0
M  V30 14 C 2.657596 0.908847 3.295406 0
M  V30 15 O 3.068150 1.119349 4.466235 0
M  V30 16 N 2.175142 -0.322604 3.052536 0
M  V30 17 N -0.952769 -3.154512 1.216081 0
M  V30 18 C -0.405326 -4.371017 0.656745 0
M  V30 19 C -1.521487 -4.788891 -0.278393 0
M  V30 20 C -2.760287 -4.407804 0.444807 0
M  V30 21 C -4.079969 -4.808332 0.401077 0
M  V30 22 Cl -4.569361 -6.061558 -0.730297 0
M  V30 23 C -4.989617 -4.195623 1.268155 0
M  V30 24 C -4.618626 -3.210412 2.161336 0
M  V30 25 C -3.286783 -2.807374 2.204274 0
M  V30 26 C -2.365936 -3.409727 1.344592 0
M  V30 27 H 1.350215 -2.033095 0.292160 0
M  V30 28 H 1.624727 -2.739903 1.909278 0
M  V30 29 H 2.601284 4.332327 1.359909 0
M  V30 30 H 3.920112 4.030921 0.231014 0
M  V30 31 H 1.151015 5.230486 -0.227649 0
M  V30 32 H 2.777821 5.901011 -0.583270 0
M  V30 33 H 2.372029 3.036623 -3.219954 0
M  V30 34 H 3.649267 3.287864 -1.900633 0
M  V30 35 H 2.086346 1.294635 -1.520465 0
M  V30 36 H 0.745583 2.539740 -1.265124 0
M  V30 37 H 3.136552 2.873694 2.681850 0
M  V30 38 H 2.128075 -1.081394 3.764121 0
M  V30 39 H 0.563069 -4.260798 0.171615 0
M  V30 40 H -0.314327 -5.124928 1.476258 0
M  V30 41 H -1.458255 -4.208896 -1.214101 0
M  V30 42 H -1.542450 -5.885167 -0.410363 0
M  V30 43 H -6.034711 -4.500342 1.246105 0
M  V30 44 H -5.383531 -2.783428 2.801385 0
M  V30 45 H -2.993805 -2.039867 2.899004 0
M  V30 END ATOM
M  V30 BEGIN BOND
M  V30 1 2 1 2
M  V30 2 1 2 3
M  V30 3 1 3 4
M  V30 4 2 4 5
M  V30 5 1 5 6
M  V30 6 1 6 7
M  V30 7 1 7 8
M  V30 8 1 8 9
M  V30 9 1 9 10
M  V30 10 1 10 11
M  V30 11 1 11 12
M  V30 12 2 6 13
M  V30 13 1 13 14
M  V30 14 2 14 15
M  V30 15 1 14 16
M  V30 16 1 2 17
M  V30 17 1 17 18
M  V30 18 1 18 19
M  V30 19 1 19 20
M  V30 20 2 20 21
M  V30 21 1 21 22
M  V30 22 1 21 23
M  V30 23 2 23 24
M  V30 24 1 24 25
M  V30 25 2 25 26
M  V30 26 1 16 4
M  V30 27 1 26 17
M  V30 28 1 12 7
M  V30 29 1 26 20
M  V30 30 1 3 27
M  V30 31 1 3 28
M  V30 32 1 8 29
M  V30 33 1 8 30
M  V30 34 1 9 31
M  V30 35 1 9 32
M  V30 36 1 11 33
M  V30 37 1 11 34
M  V30 38 1 12 35
M  V30 39 1 12 36
M  V30 40 1 13 37
M  V30 41 1 16 38
M  V30 42 1 18 39
M  V30 43 1 18 40
M  V30 44 1 19 41
M  V30 45 1 19 42
M  V30 46 1 23 43
M  V30 47 1 24 44
M  V30 48 1 25 45
M  V30 END BOND
M  V30 END CTAB
M  END
>  <Dataset>  (997) 
ChEMBL_Kinases

>  <Ligand_Instance>  (997) 
nan

>  <PDB_ID>  (997) 
nan

>  <Standardized_SMILES>  (997) 
O=C(Cc1nc(N2CCOCC2)cc(=O)[nH]1)N1CCc2c(Cl)cccc21

>  <Name>  (997) 
nan

>  <Pocket>  (997) 
nan

>  <ATP_Site>  (997) 
nan

>  <Peripheral>  (997) 
nan

>  <Num_H_Atoms_ProtBoundConf>  (997) 
nan

>  <Num_Resolved_Atoms>  (997) 
nan

>  <Num_Not_Resolved_Atoms>  (997) 
nan

$$$$
CHEMBL3112850
     RDKit          3D

  0  0  0  0  0  0  0  0  0  0999 V3000
M  V30 BEGIN CTAB
M  V30 COUNTS 45 48 0 0 0
M  V30 BEGIN ATOM
M  V30 1 O -0.664141 -1.756946 4.005044 0
M  V30 2 C -0.043576 -2.024507 2.950799 0
M  V30 3 C 1.439267 -1.905830 2.822465 0
M  V30 4 C 1.845915 -0.469624 2.803980 0
M  V30 5 N 1.913422 0.013500 1.550000 0
M  V30 6 C 2.245157 1.301927 1.251365 0
M  V30 7 N 2.274761 1.594080 -0.164879 0
M  V30 8 C 1.785605 2.703283 -0.964869 0
M  V30 9 C 1.014676 2.182554 -2.166473 0
M  V30 10 O 1.751668 1.239612 -2.887912 0
M  V30 11 C 3.054404 1.093232 -2.378347 0
M  V30 12 C 2.950982 0.582506 -0.965206 0
M  V30 13 C 2.525745 2.153015 2.301430 0
M  V30 14 C 2.442203 1.611803 3.555589 0
M  V30 15 O 2.699877 2.383336 4.520834 0
M  V30 16 N 2.115421 0.343924 3.832516 0
M  V30 17 N -0.773826 -2.467241 1.786087 0
M  V30 18 C -0.346230 -2.825003 0.451551 0
M  V30 19 C -1.404077 -2.079752 -0.360882 0
M  V30 20 C -2.645345 -2.363124 0.447461 0
M  V30 21 C -3.970653 -2.402000 0.053425 0
M  V30 22 Br -4.424183 -2.016383 -1.775689 0
M  V30 23 C -4.912692 -2.714022 1.006913 0
M  V30 24 C -4.515055 -2.973509 2.303174 0
M  V30 25 C -3.175242 -2.932769 2.698851 0
M  V30 26 C -2.201949 -2.619628 1.755716 0
M  V30 27 H 1.755965 -2.439412 1.917314 0
M  V30 28 H 1.878783 -2.441216 3.687254 0
M  V30 29 H 1.080577 3.301076 -0.348888 0
M  V30 30 H 2.585727 3.379169 -1.299025 0
M  V30 31 H 0.107261 1.681191 -1.765557 0
M  V30 32 H 0.741178 3.018574 -2.817412 0
M  V30 33 H 3.570032 0.362159 -3.044320 0
M  V30 34 H 3.567865 2.059060 -2.474232 0
M  V30 35 H 3.985338 0.409958 -0.581015 0
M  V30 36 H 2.316676 -0.311774 -0.974785 0
M  V30 37 H 2.777669 3.142336 2.019484 0
M  V30 38 H 2.046816 -0.092285 4.768602 0
M  V30 39 H 0.669693 -2.507247 0.192238 0
M  V30 40 H -0.447312 -3.923688 0.339424 0
M  V30 41 H -1.153951 -1.019572 -0.404677 0
M  V30 42 H -1.579237 -2.562808 -1.348625 0
M  V30 43 H -5.927047 -2.730293 0.671335 0
M  V30 44 H -5.282104 -3.217828 3.035220 0
M  V30 45 H -2.847226 -3.132839 3.714869 0
M  V30 END ATOM
M  V30 BEGIN BOND
M  V30 1 2 1 2
M  V30 2 1 2 3
M  V30 3 1 3 4
M  V30 4 2 4 5
M  V30 5 1 5 6
M  V30 6 1 6 7
M  V30 7 1 7 8
M  V30 8 1 8 9
M  V30 9 1 9 10
M  V30 10 1 10 11
M  V30 11 1 11 12
M  V30 12 2 6 13
M  V30 13 1 13 14
M  V30 14 2 14 15
M  V30 15 1 14 16
M  V30 16 1 2 17
M  V30 17 1 17 18
M  V30 18 1 18 19
M  V30 19 1 19 20
M  V30 20 2 20 21
M  V30 21 1 21 22
M  V30 22 1 21 23
M  V30 23 2 23 24
M  V30 24 1 24 25
M  V30 25 2 25 26
M  V30 26 1 16 4
M  V30 27 1 26 17
M  V30 28 1 12 7
M  V30 29 1 26 20
M  V30 30 1 3 27
M  V30 31 1 3 28
M  V30 32 1 8 29
M  V30 33 1 8 30
M  V30 34 1 9 31
M  V30 35 1 9 32
M  V30 36 1 11 33
M  V30 37 1 11 34
M  V30 38 1 12 35
M  V30 39 1 12 36
M  V30 40 1 13 37
M  V30 41 1 16 38
M  V30 42 1 18 39
M  V30 43 1 18 40
M  V30 44 1 19 41
M  V30 45 1 19 42
M  V30 46 1 23 43
M  V30 47 1 24 44
M  V30 48 1 25 45
M  V30 END BOND
M  V30 END CTAB
M  END
>  <Dataset>  (998) 
ChEMBL_Kinases

>  <Ligand_Instance>  (998) 
nan

>  <PDB_ID>  (998) 
nan

>  <Standardized_SMILES>  (998) 
O=C(Cc1nc(N2CCOCC2)cc(=O)[nH]1)N1CCc2c(Br)cccc21

>  <Name>  (998) 
nan

>  <Pocket>  (998) 
nan

>  <ATP_Site>  (998) 
nan

>  <Peripheral>  (998) 
nan

>  <Num_H_Atoms_ProtBoundConf>  (998) 
nan

>  <Num_Resolved_Atoms>  (998) 
nan

>  <Num_Not_Resolved_Atoms>  (998) 
nan

$$$$
CHEMBL3112851
     RDKit          3D

  0  0  0  0  0  0  0  0  0  0999 V3000
M  V30 BEGIN CTAB
M  V30 COUNTS 48 51 0 0 0
M  V30 BEGIN ATOM
M  V30 1 C 3.566600 -2.457771 2.822781 0
M  V30 2 C 3.093252 -2.072554 1.460765 0
M  V30 3 C 2.855216 -2.951767 0.425921 0
M  V30 4 C 2.413276 -2.537374 -0.808724 0
M  V30 5 C 2.200762 -1.168014 -1.002256 0
M  V30 6 C 2.427946 -0.238211 0.022179 0
M  V30 7 C 2.883783 -0.721464 1.266209 0
M  V30 8 C 3.040155 0.525922 2.110472 0
M  V30 9 C 3.311512 1.569872 1.031002 0
M  V30 10 N 2.252770 1.182546 0.088190 0
M  V30 11 C 1.276136 1.937966 -0.576926 0
M  V30 12 O 1.390304 3.180734 -0.277359 0
M  V30 13 C 0.170253 1.698135 -1.503410 0
M  V30 14 C -1.156895 1.810668 -0.768567 0
M  V30 15 N -1.345924 0.614539 -0.164870 0
M  V30 16 C -2.387927 0.278235 0.599620 0
M  V30 17 N -2.518258 -0.996210 1.211050 0
M  V30 18 C -1.375559 -1.892558 1.356630 0
M  V30 19 C -1.908094 -3.313701 1.297845 0
M  V30 20 O -3.003128 -3.444158 0.493917 0
M  V30 21 C -4.101469 -2.693765 0.789994 0
M  V30 22 C -3.749158 -1.550845 1.721498 0
M  V30 23 C -3.303807 1.294131 0.735700 0
M  V30 24 C -3.142850 2.525788 0.135830 0
M  V30 25 O -3.940141 3.495283 0.219905 0
M  V30 26 N -2.069644 2.783788 -0.617609 0
M  V30 27 H 3.261422 -3.482692 3.087505 0
M  V30 28 H 4.655393 -2.341514 2.878166 0
M  V30 29 H 3.110643 -1.805472 3.603205 0
M  V30 30 H 3.036477 -4.016068 0.645931 0
M  V30 31 H 2.251356 -3.286753 -1.569205 0
M  V30 32 H 1.861282 -0.817348 -1.961719 0
M  V30 33 H 2.074865 0.823375 2.559412 0
M  V30 34 H 3.873922 0.413782 2.817236 0
M  V30 35 H 3.207744 2.598755 1.362103 0
M  V30 36 H 4.281889 1.297675 0.563750 0
M  V30 37 H 0.198879 0.790812 -2.104976 0
M  V30 38 H 0.190187 2.533585 -2.274279 0
M  V30 39 H -0.896377 -1.759536 2.352471 0
M  V30 40 H -0.631856 -1.782151 0.534002 0
M  V30 41 H -2.036573 -3.725353 2.339767 0
M  V30 42 H -1.084593 -3.938620 0.868259 0
M  V30 43 H -4.958997 -3.288042 1.176615 0
M  V30 44 H -4.424714 -2.212622 -0.180333 0
M  V30 45 H -4.562090 -0.810898 1.805225 0
M  V30 46 H -3.598458 -1.970164 2.728067 0
M  V30 47 H -4.197049 1.136517 1.342966 0
M  V30 48 H -1.748440 3.616303 -1.149231 0
M  V30 END ATOM
M  V30 BEGIN BOND
M  V30 1 1 1 2
M  V30 2 2 2 3
M  V30 3 1 3 4
M  V30 4 2 4 5
M  V30 5 1 5 6
M  V30 6 2 6 7
M  V30 7 1 7 8
M  V30 8 1 8 9
M  V30 9 1 9 10
M  V30 10 1 10 11
M  V30 11 2 11 12
M  V30 12 1 11 13
M  V30 13 1 13 14
M  V30 14 2 14 15
M  V30 15 1 15 16
M  V30 16 1 16 17
M  V30 17 1 17 18
M  V30 18 1 18 19
M  V30 19 1 19 20
M  V30 20 1 20 21
M  V30 21 1 21 22
M  V30 22 2 16 23
M  V30 23 1 23 24
M  V30 24 2 24 25
M  V30 25 1 24 26
M  V30 26 1 7 2
M  V30 27 1 26 14
M  V30 28 1 10 6
M  V30 29 1 22 17
M  V30 30 1 1 27
M  V30 31 1 1 28
M  V30 32 1 1 29
M  V30 33 1 3 30
M  V30 34 1 4 31
M  V30 35 1 5 32
M  V30 36 1 8 33
M  V30 37 1 8 34
M  V30 38 1 9 35
M  V30 39 1 9 36
M  V30 40 1 13 37
M  V30 41 1 13 38
M  V30 42 1 18 39
M  V30 43 1 18 40
M  V30 44 1 19 41
M  V30 45 1 19 42
M  V30 46 1 21 43
M  V30 47 1 21 44
M  V30 48 1 22 45
M  V30 49 1 22 46
M  V30 50 1 23 47
M  V30 51 1 26 48
M  V30 END BOND
M  V30 END CTAB
M  END
>  <Dataset>  (999) 
ChEMBL_Kinases

>  <Ligand_Instance>  (999) 
nan

>  <PDB_ID>  (999) 
nan

>  <Standardized_SMILES>  (999) 
Cc1cccc2c1CCN2C(=O)Cc1nc(N2CCOCC2)cc(=O)[nH]1

>  <Name>  (999) 
nan

>  <Pocket>  (999) 
nan

>  <ATP_Site>  (999) 
nan

>  <Peripheral>  (999) 
nan

>  <Num_H_Atoms_ProtBoundConf>  (999) 
nan

>  <Num_Resolved_Atoms>  (999) 
nan

>  <Num_Not_Resolved_Atoms>  (999) 
nan

$$$$
