CHEMBL3580952
     RDKit          3D

  0  0  0  0  0  0  0  0  0  0999 V3000
M  V30 BEGIN CTAB
M  V30 COUNTS 48 51 0 0 0
M  V30 BEGIN ATOM
M  V30 1 C -0.424656 -3.923114 3.272564 0
M  V30 2 C -1.632470 -4.736051 2.857876 0
M  V30 3 C -1.338951 -5.540034 1.620358 0
M  V30 4 C -0.979111 -4.736919 0.449599 0
M  V30 5 C -0.859524 -3.379930 0.228350 0
M  V30 6 C -0.488191 -3.286967 -1.092499 0
M  V30 7 N -0.235037 -2.105175 -1.827356 0
M  V30 8 C -0.352074 -0.756025 -1.426427 0
M  V30 9 N 0.517850 -0.031473 -0.705544 0
M  V30 10 C 0.212383 1.259239 -0.451707 0
M  V30 11 N 1.117457 2.031394 0.321382 0
M  V30 12 C 2.193535 1.321834 0.983776 0
M  V30 13 C 1.987908 1.587796 2.471837 0
M  V30 14 C 2.162209 3.049142 2.716268 0
M  V30 15 N 3.408848 3.189757 3.481732 0
M  V30 16 C 2.228036 3.806609 1.426383 0
M  V30 17 C 1.062030 3.461395 0.505897 0
M  V30 18 N -0.899651 1.881647 -0.864423 0
M  V30 19 C -1.845556 1.271310 -1.589463 0
M  V30 20 C -3.016963 1.738108 -2.087802 0
M  V30 21 C -3.870214 0.946200 -2.821747 0
M  V30 22 S -2.942108 -0.736999 -2.857972 0
M  V30 23 C -1.477819 -0.114946 -1.840255 0
M  V30 24 N -0.396305 -4.508654 -1.613455 0
M  V30 25 N -0.690492 -5.417010 -0.696824 0
M  V30 26 H -0.758393 -2.891990 3.525385 0
M  V30 27 H 0.329849 -3.917393 2.450728 0
M  V30 28 H 0.009775 -4.354239 4.199700 0
M  V30 29 H -1.856995 -5.456500 3.669941 0
M  V30 30 H -2.529150 -4.088632 2.763920 0
M  V30 31 H -2.138172 -6.287793 1.432059 0
M  V30 32 H -0.422985 -6.151473 1.881516 0
M  V30 33 H -1.031596 -2.630146 0.963914 0
M  V30 34 H 0.090100 -2.104660 -2.816462 0
M  V30 35 H 3.184508 1.595890 0.617071 0
M  V30 36 H 2.114138 0.210409 0.833518 0
M  V30 37 H 0.968416 1.236206 2.722990 0
M  V30 38 H 2.714748 0.948309 3.017440 0
M  V30 39 H 1.295148 3.407757 3.332922 0
M  V30 40 H 3.241263 2.860825 4.461639 0
M  V30 41 H 4.064634 2.487252 3.058317 0
M  V30 42 H 2.189027 4.906309 1.687262 0
M  V30 43 H 3.172565 3.594848 0.895949 0
M  V30 44 H 1.279399 4.003311 -0.463063 0
M  V30 45 H 0.134773 3.832644 0.967644 0
M  V30 46 H -3.348815 2.749406 -1.940843 0
M  V30 47 H -4.735119 1.030259 -3.275973 0
M  V30 48 H -0.664225 -6.418942 -0.951400 0
M  V30 END ATOM
M  V30 BEGIN BOND
M  V30 1 1 1 2
M  V30 2 1 2 3
M  V30 3 1 3 4
M  V30 4 2 4 5
M  V30 5 1 5 6
M  V30 6 1 6 7
M  V30 7 1 7 8
M  V30 8 2 8 9
M  V30 9 1 9 10
M  V30 10 1 10 11
M  V30 11 1 11 12
M  V30 12 1 12 13
M  V30 13 1 13 14
M  V30 14 1 14 15
M  V30 15 1 14 16
M  V30 16 1 16 17
M  V30 17 2 10 18
M  V30 18 1 18 19
M  V30 19 1 19 20
M  V30 20 2 20 21
M  V30 21 1 21 22
M  V30 22 1 22 23
M  V30 23 2 6 24
M  V30 24 1 24 25
M  V30 25 1 25 4
M  V30 26 1 23 8
M  V30 27 1 17 11
M  V30 28 2 23 19
M  V30 29 1 1 26
M  V30 30 1 1 27
M  V30 31 1 1 28
M  V30 32 1 2 29
M  V30 33 1 2 30
M  V30 34 1 3 31
M  V30 35 1 3 32
M  V30 36 1 5 33
M  V30 37 1 7 34
M  V30 38 1 12 35
M  V30 39 1 12 36
M  V30 40 1 13 37
M  V30 41 1 13 38
M  V30 42 1 14 39
M  V30 43 1 15 40
M  V30 44 1 15 41
M  V30 45 1 16 42
M  V30 46 1 16 43
M  V30 47 1 17 44
M  V30 48 1 17 45
M  V30 49 1 20 46
M  V30 50 1 21 47
M  V30 51 1 25 48
M  V30 END BOND
M  V30 END CTAB
M  END
>  <Dataset>  (1) 
ChEMBL_Kinases

>  <Ligand_Instance>  (1) 
nan

>  <PDB_ID>  (1) 
nan

>  <Standardized_SMILES>  (1) 
CCCc1cc(Nc2nc(N3CCC(N)CC3)nc3ccsc23)n[nH]1

>  <Name>  (1) 
nan

>  <Pocket>  (1) 
nan

>  <ATP_Site>  (1) 
nan

>  <Peripheral>  (1) 
nan

>  <Num_H_Atoms_ProtBoundConf>  (1) 
nan

>  <Num_Resolved_Atoms>  (1) 
nan

>  <Num_Not_Resolved_Atoms>  (1) 
nan

$$$$
CHEMBL3580953
     RDKit          3D

  0  0  0  0  0  0  0  0  0  0999 V3000
M  V30 BEGIN CTAB
M  V30 COUNTS 48 51 0 0 0
M  V30 BEGIN ATOM
M  V30 1 C 0.093682 -5.502566 3.013829 0
M  V30 2 C -1.036383 -4.720973 2.378824 0
M  V30 3 C -2.306299 -5.525781 2.437810 0
M  V30 4 C -0.699191 -4.355250 0.974158 0
M  V30 5 C -0.611804 -3.031229 0.528886 0
M  V30 6 C -0.274275 -3.179237 -0.790044 0
M  V30 7 N -0.057489 -2.108690 -1.699802 0
M  V30 8 C -0.204160 -0.734063 -1.400083 0
M  V30 9 N 0.613003 0.106337 -0.751667 0
M  V30 10 C 0.268202 1.396325 -0.600978 0
M  V30 11 N 1.153870 2.244569 0.102323 0
M  V30 12 C 2.275283 1.643911 0.786191 0
M  V30 13 C 2.006219 1.809665 2.265953 0
M  V30 14 C 1.859340 3.280057 2.552696 0
M  V30 15 N 2.867874 3.628209 3.546843 0
M  V30 16 C 2.042749 4.101554 1.299007 0
M  V30 17 C 1.066386 3.682218 0.214390 0
M  V30 18 N -0.871376 1.922385 -1.065737 0
M  V30 19 C -1.780166 1.195759 -1.732830 0
M  V30 20 C -2.953328 1.616623 -2.245735 0
M  V30 21 C -3.805750 0.740164 -2.923477 0
M  V30 22 S -2.831886 -0.901268 -2.833137 0
M  V30 23 C -1.373403 -0.177781 -1.873020 0
M  V30 24 N -0.166649 -4.472568 -1.119175 0
M  V30 25 N -0.426748 -5.207852 -0.037028 0
M  V30 26 H 0.144737 -5.232443 4.081700 0
M  V30 27 H 1.079651 -5.229774 2.548713 0
M  V30 28 H -0.062042 -6.602850 2.977780 0
M  V30 29 H -1.161059 -3.779098 2.966166 0
M  V30 30 H -3.136088 -4.969674 2.922725 0
M  V30 31 H -2.644898 -5.792645 1.402523 0
M  V30 32 H -2.147253 -6.471148 2.991539 0
M  V30 33 H -0.768009 -2.100471 1.077148 0
M  V30 34 H 0.234692 -2.258703 -2.693080 0
M  V30 35 H 3.238350 2.127856 0.466227 0
M  V30 36 H 2.364225 0.551955 0.543208 0
M  V30 37 H 1.045596 1.283350 2.468888 0
M  V30 38 H 2.854965 1.343256 2.814394 0
M  V30 39 H 0.852923 3.463621 3.011226 0
M  V30 40 H 2.428334 3.591155 4.489995 0
M  V30 41 H 3.639099 2.924382 3.554423 0
M  V30 42 H 1.823657 5.168868 1.589974 0
M  V30 43 H 3.084530 4.083335 0.974018 0
M  V30 44 H 1.416433 4.176151 -0.722066 0
M  V30 45 H 0.054666 4.013474 0.506943 0
M  V30 46 H -3.349834 2.611310 -2.198689 0
M  V30 47 H -4.662340 0.726838 -3.379797 0
M  V30 48 H -0.434012 -6.246474 0.072574 0
M  V30 END ATOM
M  V30 BEGIN BOND
M  V30 1 1 1 2
M  V30 2 1 2 3
M  V30 3 1 2 4
M  V30 4 2 4 5
M  V30 5 1 5 6
M  V30 6 1 6 7
M  V30 7 1 7 8
M  V30 8 2 8 9
M  V30 9 1 9 10
M  V30 10 1 10 11
M  V30 11 1 11 12
M  V30 12 1 12 13
M  V30 13 1 13 14
M  V30 14 1 14 15
M  V30 15 1 14 16
M  V30 16 1 16 17
M  V30 17 2 10 18
M  V30 18 1 18 19
M  V30 19 1 19 20
M  V30 20 2 20 21
M  V30 21 1 21 22
M  V30 22 1 22 23
M  V30 23 2 6 24
M  V30 24 1 24 25
M  V30 25 1 25 4
M  V30 26 1 23 8
M  V30 27 1 17 11
M  V30 28 2 23 19
M  V30 29 1 1 26
M  V30 30 1 1 27
M  V30 31 1 1 28
M  V30 32 1 2 29
M  V30 33 1 3 30
M  V30 34 1 3 31
M  V30 35 1 3 32
M  V30 36 1 5 33
M  V30 37 1 7 34
M  V30 38 1 12 35
M  V30 39 1 12 36
M  V30 40 1 13 37
M  V30 41 1 13 38
M  V30 42 1 14 39
M  V30 43 1 15 40
M  V30 44 1 15 41
M  V30 45 1 16 42
M  V30 46 1 16 43
M  V30 47 1 17 44
M  V30 48 1 17 45
M  V30 49 1 20 46
M  V30 50 1 21 47
M  V30 51 1 25 48
M  V30 END BOND
M  V30 END CTAB
M  END
>  <Dataset>  (2) 
ChEMBL_Kinases

>  <Ligand_Instance>  (2) 
nan

>  <PDB_ID>  (2) 
nan

>  <Standardized_SMILES>  (2) 
CC(C)c1cc(Nc2nc(N3CCC(N)CC3)nc3ccsc23)n[nH]1

>  <Name>  (2) 
nan

>  <Pocket>  (2) 
nan

>  <ATP_Site>  (2) 
nan

>  <Peripheral>  (2) 
nan

>  <Num_H_Atoms_ProtBoundConf>  (2) 
nan

>  <Num_Resolved_Atoms>  (2) 
nan

>  <Num_Not_Resolved_Atoms>  (2) 
nan

$$$$
CHEMBL3581130
     RDKit          3D

  0  0  0  0  0  0  0  0  0  0999 V3000
M  V30 BEGIN CTAB
M  V30 COUNTS 38 40 0 0 0
M  V30 BEGIN ATOM
M  V30 1 C 0.651335 -5.644038 0.871876 0
M  V30 2 O 1.900809 -5.402173 0.290585 0
M  V30 3 C 2.266085 -4.340565 -0.487162 0
M  V30 4 C 3.563011 -4.238541 -0.999119 0
M  V30 5 C 3.895098 -3.154140 -1.779347 0
M  V30 6 C 2.979879 -2.148355 -2.079170 0
M  V30 7 C 1.697847 -2.264076 -1.563972 0
M  V30 8 C 0.702509 -1.201561 -1.870834 0
M  V30 9 C 0.750873 -0.118880 -0.825620 0
M  V30 10 O 1.587656 -0.274537 0.102347 0
M  V30 11 N -0.155602 0.965224 -0.999338 0
M  V30 12 C -0.160580 2.039476 -0.029970 0
M  V30 13 C 0.617541 3.210864 -0.085006 0
M  V30 14 S 0.023985 4.053149 1.511916 0
M  V30 15 C -1.099408 2.669972 1.867266 0
M  V30 16 C -1.949102 2.755465 3.149772 0
M  V30 17 C -1.842926 3.850098 3.979587 0
M  V30 18 C -2.672625 3.788261 5.101755 0
M  V30 19 N -3.495684 2.754480 5.343889 0
M  V30 20 C -3.547370 1.713197 4.484525 0
M  V30 21 C -2.765701 1.661085 3.328456 0
M  V30 22 N -0.984690 1.903337 1.017708 0
M  V30 23 C 1.355208 -3.347275 -0.780825 0
M  V30 24 H 0.251782 -4.695294 1.253363 0
M  V30 25 H 0.828323 -6.287514 1.777274 0
M  V30 26 H -0.061047 -6.200268 0.229958 0
M  V30 27 H 4.248045 -5.041213 -0.744126 0
M  V30 28 H 4.914794 -3.137213 -2.143049 0
M  V30 29 H 3.304660 -1.325200 -2.696624 0
M  V30 30 H 0.963783 -0.725649 -2.835158 0
M  V30 31 H -0.318836 -1.607128 -2.003367 0
M  V30 32 H -0.805849 0.981656 -1.815371 0
M  V30 33 H 1.312224 3.333079 -0.961461 0
M  V30 34 H -1.175304 4.660300 3.757794 0
M  V30 35 H -2.630343 4.630587 5.796246 0
M  V30 36 H -4.223089 0.888456 4.704784 0
M  V30 37 H -2.792317 0.839478 2.630279 0
M  V30 38 H 0.339741 -3.365679 -0.417680 0
M  V30 END ATOM
M  V30 BEGIN BOND
M  V30 1 1 1 2
M  V30 2 1 2 3
M  V30 3 2 3 4
M  V30 4 1 4 5
M  V30 5 2 5 6
M  V30 6 1 6 7
M  V30 7 1 7 8
M  V30 8 1 8 9
M  V30 9 2 9 10
M  V30 10 1 9 11
M  V30 11 1 11 12
M  V30 12 2 12 13
M  V30 13 1 13 14
M  V30 14 1 14 15
M  V30 15 1 15 16
M  V30 16 2 16 17
M  V30 17 1 17 18
M  V30 18 2 18 19
M  V30 19 1 19 20
M  V30 20 2 20 21
M  V30 21 2 15 22
M  V30 22 2 7 23
M  V30 23 1 23 3
M  V30 24 1 22 12
M  V30 25 1 21 16
M  V30 26 1 1 24
M  V30 27 1 1 25
M  V30 28 1 1 26
M  V30 29 1 4 27
M  V30 30 1 5 28
M  V30 31 1 6 29
M  V30 32 1 8 30
M  V30 33 1 8 31
M  V30 34 1 11 32
M  V30 35 1 13 33
M  V30 36 1 17 34
M  V30 37 1 18 35
M  V30 38 1 20 36
M  V30 39 1 21 37
M  V30 40 1 23 38
M  V30 END BOND
M  V30 END CTAB
M  END
>  <Dataset>  (3) 
ChEMBL_Kinases

>  <Ligand_Instance>  (3) 
nan

>  <PDB_ID>  (3) 
nan

>  <Standardized_SMILES>  (3) 
COc1cccc(CC(=O)Nc2csc(-c3ccncc3)n2)c1

>  <Name>  (3) 
nan

>  <Pocket>  (3) 
nan

>  <ATP_Site>  (3) 
nan

>  <Peripheral>  (3) 
nan

>  <Num_H_Atoms_ProtBoundConf>  (3) 
nan

>  <Num_Resolved_Atoms>  (3) 
nan

>  <Num_Not_Resolved_Atoms>  (3) 
nan

$$$$
CHEMBL3580955
     RDKit          3D

  0  0  0  0  0  0  0  0  0  0999 V3000
M  V30 BEGIN CTAB
M  V30 COUNTS 49 53 0 0 0
M  V30 BEGIN ATOM
M  V30 1 N -2.346689 -4.790256 2.727769 0
M  V30 2 C -1.368989 -5.575588 1.985872 0
M  V30 3 C -1.799307 -5.865630 0.588142 0
M  V30 4 C -1.507980 -4.754361 -0.380603 0
M  V30 5 N -0.858503 -3.613788 0.208688 0
M  V30 6 C -1.037950 -2.277251 -0.310075 0
M  V30 7 N -0.139941 -1.706654 -1.128978 0
M  V30 8 C -0.373680 -0.460421 -1.557833 0
M  V30 9 N 0.472995 0.295576 -2.410428 0
M  V30 10 C 0.871162 1.429242 -1.604751 0
M  V30 11 C 1.653553 1.458228 -0.475314 0
M  V30 12 C 1.789669 2.769822 -0.017108 0
M  V30 13 C 2.535975 3.206343 1.160135 0
M  V30 14 C 2.563958 4.557835 1.417420 0
M  V30 15 C 3.249589 5.000123 2.551323 0
M  V30 16 C 3.857179 4.048509 3.345112 0
M  V30 17 C 3.828697 2.675509 3.083793 0
M  V30 18 C 3.138131 2.247587 1.942265 0
M  V30 19 N 1.076165 3.491669 -0.899418 0
M  V30 20 N 0.528044 2.731746 -1.838892 0
M  V30 21 C -1.567041 0.125740 -1.088239 0
M  V30 22 S -2.220435 1.821305 -1.446604 0
M  V30 23 C -3.786678 1.592144 -0.361189 0
M  V30 24 C -3.586402 0.299044 0.097985 0
M  V30 25 C -2.514241 -0.458665 -0.232000 0
M  V30 26 N -2.168163 -1.700856 0.124954 0
M  V30 27 C 0.004971 -3.660642 1.348933 0
M  V30 28 C 0.021544 -4.986295 2.063033 0
M  V30 29 H -1.948070 -4.355424 3.574026 0
M  V30 30 H -2.877119 -4.168425 2.096764 0
M  V30 31 H -1.309912 -6.547566 2.536576 0
M  V30 32 H -2.885062 -6.120810 0.612893 0
M  V30 33 H -1.246682 -6.790428 0.267549 0
M  V30 34 H -2.463362 -4.422228 -0.835063 0
M  V30 35 H -0.864806 -5.139619 -1.213717 0
M  V30 36 H 0.779664 0.128320 -3.399233 0
M  V30 37 H 2.074224 0.562334 -0.048699 0
M  V30 38 H 2.093035 5.329241 0.808655 0
M  V30 39 H 3.316581 6.058424 2.823649 0
M  V30 40 H 4.382765 4.379553 4.218896 0
M  V30 41 H 4.302346 1.931955 3.709330 0
M  V30 42 H 3.071974 1.196247 1.671251 0
M  V30 43 H 0.959416 4.533946 -0.859264 0
M  V30 44 H -4.465303 2.289691 -0.250524 0
M  V30 45 H -4.374954 -0.074325 0.763431 0
M  V30 46 H -0.324852 -2.904227 2.110228 0
M  V30 47 H 1.049930 -3.390067 1.104925 0
M  V30 48 H 0.706528 -5.659517 1.539786 0
M  V30 49 H 0.300925 -4.844545 3.120150 0
M  V30 END ATOM
M  V30 BEGIN BOND
M  V30 1 1 1 2
M  V30 2 1 2 3
M  V30 3 1 3 4
M  V30 4 1 4 5
M  V30 5 1 5 6
M  V30 6 2 6 7
M  V30 7 1 7 8
M  V30 8 1 8 9
M  V30 9 1 9 10
M  V30 10 1 10 11
M  V30 11 2 11 12
M  V30 12 1 12 13
M  V30 13 2 13 14
M  V30 14 1 14 15
M  V30 15 2 15 16
M  V30 16 1 16 17
M  V30 17 2 17 18
M  V30 18 1 12 19
M  V30 19 1 19 20
M  V30 20 2 8 21
M  V30 21 1 21 22
M  V30 22 1 22 23
M  V30 23 2 23 24
M  V30 24 1 24 25
M  V30 25 2 25 26
M  V30 26 1 5 27
M  V30 27 1 27 28
M  V30 28 1 28 2
M  V30 29 1 26 6
M  V30 30 2 20 10
M  V30 31 1 25 21
M  V30 32 1 18 13
M  V30 33 1 1 29
M  V30 34 1 1 30
M  V30 35 1 2 31
M  V30 36 1 3 32
M  V30 37 1 3 33
M  V30 38 1 4 34
M  V30 39 1 4 35
M  V30 40 1 9 36
M  V30 41 1 11 37
M  V30 42 1 14 38
M  V30 43 1 15 39
M  V30 44 1 16 40
M  V30 45 1 17 41
M  V30 46 1 18 42
M  V30 47 1 19 43
M  V30 48 1 23 44
M  V30 49 1 24 45
M  V30 50 1 27 46
M  V30 51 1 27 47
M  V30 52 1 28 48
M  V30 53 1 28 49
M  V30 END BOND
M  V30 END CTAB
M  END
>  <Dataset>  (4) 
ChEMBL_Kinases

>  <Ligand_Instance>  (4) 
nan

>  <PDB_ID>  (4) 
nan

>  <Standardized_SMILES>  (4) 
NC1CCN(c2nc(Nc3cc(-c4ccccc4)[nH]n3)c3sccc3n2)CC1

>  <Name>  (4) 
nan

>  <Pocket>  (4) 
nan

>  <ATP_Site>  (4) 
nan

>  <Peripheral>  (4) 
nan

>  <Num_H_Atoms_ProtBoundConf>  (4) 
nan

>  <Num_Resolved_Atoms>  (4) 
nan

>  <Num_Not_Resolved_Atoms>  (4) 
nan

$$$$
CHEMBL3580977
     RDKit          3D

  0  0  0  0  0  0  0  0  0  0999 V3000
M  V30 BEGIN CTAB
M  V30 COUNTS 48 52 0 0 0
M  V30 BEGIN ATOM
M  V30 1 C -0.303234 -2.812516 3.642760 0
M  V30 2 C 0.176549 -2.282790 2.329816 0 CFG=1
M  V30 3 N 0.748869 -3.297771 1.455940 0
M  V30 4 C 1.271132 -2.922087 0.182996 0
M  V30 5 N 1.701506 -3.889980 -0.679845 0
M  V30 6 C 2.192867 -3.580686 -1.888437 0
M  V30 7 C 2.252506 -2.250351 -2.238031 0
M  V30 8 C 1.829473 -1.227661 -1.398719 0
M  V30 9 N 1.881193 0.128712 -1.810969 0
M  V30 10 C 1.665579 1.243614 -0.959825 0
M  V30 11 C 1.545647 1.298733 0.406491 0
M  V30 12 C 1.321382 2.611810 0.825348 0
M  V30 13 C 1.160605 3.142995 2.227524 0
M  V30 14 C 2.346932 3.093115 3.127981 0
M  V30 15 C 1.213067 2.147672 3.336611 0
M  V30 16 N 1.315015 3.299304 -0.325563 0
M  V30 17 N 1.514230 2.516816 -1.364144 0
M  V30 18 N 1.357524 -1.652767 -0.218533 0
M  V30 19 C -0.931097 -1.576716 1.596366 0
M  V30 20 C -1.268386 -0.245120 1.512951 0
M  V30 21 C -2.330262 0.155439 0.756789 0
M  V30 22 C -3.116438 -0.724566 0.044928 0
M  V30 23 N -4.184377 -0.493096 -0.737031 0
M  V30 24 C -4.603443 -1.678376 -1.208835 0
M  V30 25 C -3.750753 -2.659607 -0.687273 0
M  V30 26 C -2.798286 -2.070435 0.112768 0
M  V30 27 C -1.719985 -2.478981 0.880032 0
M  V30 28 H 0.565212 -3.187938 4.193960 0
M  V30 29 H -0.714269 -1.960898 4.206740 0
M  V30 30 H -1.129616 -3.541263 3.536792 0
M  V30 31 H 0.970437 -1.535073 2.518136 0
M  V30 32 H 0.783997 -4.295763 1.745107 0
M  V30 33 H 2.526802 -4.365307 -2.553726 0
M  V30 34 H 2.643999 -1.972886 -3.206789 0
M  V30 35 H 2.097724 0.303294 -2.826363 0
M  V30 36 H 1.612951 0.449292 1.076213 0
M  V30 37 H 0.523687 4.036556 2.324079 0
M  V30 38 H 2.409270 3.895063 3.899820 0
M  V30 39 H 3.315097 2.721035 2.778492 0
M  V30 40 H 0.544928 2.224834 4.209471 0
M  V30 41 H 1.466459 1.070245 3.076938 0
M  V30 42 H 1.176204 4.320582 -0.440618 0
M  V30 43 H -0.595675 0.349306 2.105736 0
M  V30 44 H -2.468518 1.237564 0.790490 0
M  V30 45 H -4.635458 0.438250 -0.960676 0
M  V30 46 H -5.438076 -1.884667 -1.872601 0
M  V30 47 H -3.816949 -3.716858 -0.875106 0
M  V30 48 H -1.581993 -3.547286 0.846536 0
M  V30 END ATOM
M  V30 BEGIN BOND
M  V30 1 1 1 2
M  V30 2 1 2 3
M  V30 3 1 3 4
M  V30 4 2 4 5
M  V30 5 1 5 6
M  V30 6 2 6 7
M  V30 7 1 7 8
M  V30 8 1 8 9
M  V30 9 1 9 10
M  V30 10 1 10 11
M  V30 11 2 11 12
M  V30 12 1 12 13
M  V30 13 1 13 14
M  V30 14 1 14 15
M  V30 15 1 12 16
M  V30 16 1 16 17
M  V30 17 2 8 18
M  V30 18 1 2 19
M  V30 19 2 19 20
M  V30 20 1 20 21
M  V30 21 2 21 22
M  V30 22 1 22 23
M  V30 23 1 23 24
M  V30 24 2 24 25
M  V30 25 1 25 26
M  V30 26 2 26 27
M  V30 27 1 18 4
M  V30 28 1 27 19
M  V30 29 2 17 10
M  V30 30 1 26 22
M  V30 31 1 15 13
M  V30 32 1 1 28
M  V30 33 1 1 29
M  V30 34 1 1 30
M  V30 35 1 2 31 CFG=1
M  V30 36 1 3 32
M  V30 37 1 6 33
M  V30 38 1 7 34
M  V30 39 1 9 35
M  V30 40 1 11 36
M  V30 41 1 13 37
M  V30 42 1 14 38
M  V30 43 1 14 39
M  V30 44 1 15 40
M  V30 45 1 15 41
M  V30 46 1 16 42
M  V30 47 1 20 43
M  V30 48 1 21 44
M  V30 49 1 23 45
M  V30 50 1 24 46
M  V30 51 1 25 47
M  V30 52 1 27 48
M  V30 END BOND
M  V30 END CTAB
M  END
>  <Dataset>  (5) 
ChEMBL_Kinases

>  <Ligand_Instance>  (5) 
nan

>  <PDB_ID>  (5) 
nan

>  <Standardized_SMILES>  (5) 
C[C@@H](Nc1nccc(Nc2cc(C3CC3)[nH]n2)n1)c1ccc2[nH]ccc2c1

>  <Name>  (5) 
nan

>  <Pocket>  (5) 
nan

>  <ATP_Site>  (5) 
nan

>  <Peripheral>  (5) 
nan

>  <Num_H_Atoms_ProtBoundConf>  (5) 
nan

>  <Num_Resolved_Atoms>  (5) 
nan

>  <Num_Not_Resolved_Atoms>  (5) 
nan

$$$$
CHEMBL3581115
     RDKit          3D

  0  0  0  0  0  0  0  0  0  0999 V3000
M  V30 BEGIN CTAB
M  V30 COUNTS 31 33 0 0 0
M  V30 BEGIN ATOM
M  V30 1 O 0.199283 -1.589856 2.221666 0
M  V30 2 C -0.813347 -0.814057 2.342670 0
M  V30 3 N -0.494579 0.465279 1.874067 0
M  V30 4 C 0.935174 0.546633 1.370712 0
M  V30 5 N 1.205756 0.304086 0.180378 0
M  V30 6 C 2.441677 0.368038 -0.281641 0
M  V30 7 C 2.719017 0.074562 -1.692112 0
M  V30 8 C 3.992002 0.129096 -2.216200 0
M  V30 9 C 4.283768 -0.139165 -3.528115 0
M  V30 10 N 3.310235 -0.477043 -4.384533 0
M  V30 11 C 2.044927 -0.548704 -3.937713 0
M  V30 12 C 1.762550 -0.278442 -2.622871 0
M  V30 13 C 3.455181 0.718508 0.604783 0
M  V30 14 S 2.417707 0.944962 2.181960 0
M  V30 15 C -2.083272 -1.268003 2.897610 0
M  V30 16 C -2.113651 -2.614149 3.288225 0
M  V30 17 C -3.245162 -3.176606 3.827332 0
M  V30 18 C -4.400305 -2.468967 4.015461 0
M  V30 19 C -4.381753 -1.146275 3.635448 0
M  V30 20 C -3.250530 -0.577755 3.094724 0
M  V30 21 F -3.227240 0.702096 2.725204 0
M  V30 22 H -1.202729 1.199490 1.904523 0
M  V30 23 H 4.828065 0.391194 -1.599845 0
M  V30 24 H 5.296138 -0.085935 -3.903028 0
M  V30 25 H 1.251708 -0.822543 -4.629319 0
M  V30 26 H 0.718942 -0.342670 -2.276078 0
M  V30 27 H 4.518850 0.809696 0.360628 0
M  V30 28 H -1.237589 -3.249462 3.173424 0
M  V30 29 H -3.220963 -4.218979 4.113767 0
M  V30 30 H -5.318276 -2.856870 4.433502 0
M  V30 31 H -5.236950 -0.502473 3.740837 0
M  V30 END ATOM
M  V30 BEGIN BOND
M  V30 1 2 1 2
M  V30 2 1 2 3
M  V30 3 1 3 4
M  V30 4 2 4 5
M  V30 5 1 5 6
M  V30 6 1 6 7
M  V30 7 2 7 8
M  V30 8 1 8 9
M  V30 9 2 9 10
M  V30 10 1 10 11
M  V30 11 2 11 12
M  V30 12 2 6 13
M  V30 13 1 13 14
M  V30 14 1 2 15
M  V30 15 2 15 16
M  V30 16 1 16 17
M  V30 17 2 17 18
M  V30 18 1 18 19
M  V30 19 2 19 20
M  V30 20 1 20 21
M  V30 21 1 14 4
M  V30 22 1 20 15
M  V30 23 1 12 7
M  V30 24 1 3 22
M  V30 25 1 8 23
M  V30 26 1 9 24
M  V30 27 1 11 25
M  V30 28 1 12 26
M  V30 29 1 13 27
M  V30 30 1 16 28
M  V30 31 1 17 29
M  V30 32 1 18 30
M  V30 33 1 19 31
M  V30 END BOND
M  V30 END CTAB
M  END
>  <Dataset>  (6) 
ChEMBL_Kinases

>  <Ligand_Instance>  (6) 
nan

>  <PDB_ID>  (6) 
nan

>  <Standardized_SMILES>  (6) 
O=C(Nc1nc(-c2ccncc2)cs1)c1ccccc1F

>  <Name>  (6) 
nan

>  <Pocket>  (6) 
nan

>  <ATP_Site>  (6) 
nan

>  <Peripheral>  (6) 
nan

>  <Num_H_Atoms_ProtBoundConf>  (6) 
nan

>  <Num_Resolved_Atoms>  (6) 
nan

>  <Num_Not_Resolved_Atoms>  (6) 
nan

$$$$
CHEMBL3581122
     RDKit          3D

  0  0  0  0  0  0  0  0  0  0999 V3000
M  V30 BEGIN CTAB
M  V30 COUNTS 35 37 0 0 0
M  V30 BEGIN ATOM
M  V30 1 O 0.940176 -1.279947 1.045368 0
M  V30 2 C 0.052716 -1.466616 1.918959 0
M  V30 3 C 0.118914 -2.862992 2.424553 0
M  V30 4 C 1.188299 -3.641489 1.782566 0
M  V30 5 C 0.940797 -4.585914 0.801105 0
M  V30 6 C 1.981415 -5.298484 0.222450 0
M  V30 7 C 3.310631 -5.089600 0.607350 0
M  V30 8 C 3.535620 -4.136155 1.594823 0
M  V30 9 C 2.491614 -3.422511 2.174207 0
M  V30 10 O 2.747683 -2.468592 3.166884 0
M  V30 11 N -0.931161 -0.584208 2.447400 0
M  V30 12 C -0.791602 0.725997 1.795252 0
M  V30 13 N -1.297246 1.225533 0.760167 0
M  V30 14 C -1.008030 2.448570 0.375528 0
M  V30 15 C -1.595195 3.020517 -0.825227 0
M  V30 16 C -1.316087 4.294174 -1.257859 0
M  V30 17 C -1.869861 4.840108 -2.396010 0
M  V30 18 N -2.726650 4.118532 -3.138890 0
M  V30 19 C -3.045651 2.864975 -2.775609 0
M  V30 20 C -2.477522 2.342405 -1.632695 0
M  V30 21 C -0.064006 3.193166 1.222557 0
M  V30 22 S 0.261365 1.865827 2.539909 0
M  V30 23 H -0.852274 -3.359249 2.230282 0
M  V30 24 H 0.259601 -2.882087 3.540377 0
M  V30 25 H -0.090101 -4.770063 0.479642 0
M  V30 26 H 1.840196 -6.030680 -0.532501 0
M  V30 27 H 4.126595 -5.632553 0.170196 0
M  V30 28 H 4.577568 -3.971652 1.897132 0
M  V30 29 H 3.646619 -2.093415 3.377816 0
M  V30 30 H -1.587307 -0.900164 3.163453 0
M  V30 31 H -0.643120 4.938307 -0.724646 0
M  V30 32 H -1.633106 5.842872 -2.712031 0
M  V30 33 H -3.726282 2.232993 -3.328629 0
M  V30 34 H -2.731052 1.316275 -1.324370 0
M  V30 35 H 0.260605 4.334668 0.939780 0
M  V30 END ATOM
M  V30 BEGIN BOND
M  V30 1 2 1 2
M  V30 2 1 2 3
M  V30 3 1 3 4
M  V30 4 2 4 5
M  V30 5 1 5 6
M  V30 6 2 6 7
M  V30 7 1 7 8
M  V30 8 2 8 9
M  V30 9 1 9 10
M  V30 10 1 2 11
M  V30 11 1 11 12
M  V30 12 2 12 13
M  V30 13 1 13 14
M  V30 14 1 14 15
M  V30 15 2 15 16
M  V30 16 1 16 17
M  V30 17 2 17 18
M  V30 18 1 18 19
M  V30 19 2 19 20
M  V30 20 2 14 21
M  V30 21 1 21 22
M  V30 22 1 9 4
M  V30 23 1 22 12
M  V30 24 1 20 15
M  V30 25 1 3 23
M  V30 26 1 3 24
M  V30 27 1 5 25
M  V30 28 1 6 26
M  V30 29 1 7 27
M  V30 30 1 8 28
M  V30 31 1 10 29
M  V30 32 1 11 30
M  V30 33 1 16 31
M  V30 34 1 17 32
M  V30 35 1 19 33
M  V30 36 1 20 34
M  V30 37 1 21 35
M  V30 END BOND
M  V30 END CTAB
M  END
>  <Dataset>  (7) 
ChEMBL_Kinases

>  <Ligand_Instance>  (7) 
nan

>  <PDB_ID>  (7) 
nan

>  <Standardized_SMILES>  (7) 
O=C(Cc1ccccc1O)Nc1nc(-c2ccncc2)cs1

>  <Name>  (7) 
nan

>  <Pocket>  (7) 
nan

>  <ATP_Site>  (7) 
nan

>  <Peripheral>  (7) 
nan

>  <Num_H_Atoms_ProtBoundConf>  (7) 
nan

>  <Num_Resolved_Atoms>  (7) 
nan

>  <Num_Not_Resolved_Atoms>  (7) 
nan

$$$$
CHEMBL3581124
     RDKit          3D

  0  0  0  0  0  0  0  0  0  0999 V3000
M  V30 BEGIN CTAB
M  V30 COUNTS 35 37 0 0 0
M  V30 BEGIN ATOM
M  V30 1 O 1.064411 -0.524347 1.295925 0
M  V30 2 C 0.508014 -1.369736 2.067574 0
M  V30 3 C 1.007916 -2.751849 2.326310 0
M  V30 4 C 2.263744 -3.019126 1.551668 0
M  V30 5 C 2.149223 -3.555132 0.269300 0
M  V30 6 C 3.201244 -3.860740 -0.576899 0
M  V30 7 C 4.449089 -3.596110 -0.066453 0
M  V30 8 O 5.543729 -3.887955 -0.883814 0
M  V30 9 C 4.634114 -3.063894 1.199502 0
M  V30 10 C 3.545746 -2.778289 2.001149 0
M  V30 11 N -0.665017 -0.960685 2.720298 0
M  V30 12 C -0.966358 0.465994 2.300495 0
M  V30 13 N -1.603692 0.808728 1.406337 0
M  V30 14 C -1.911915 2.006041 0.976335 0
M  V30 15 C -2.727902 2.369901 -0.168666 0
M  V30 16 C -3.298761 1.409494 -0.972576 0
M  V30 17 C -4.084150 1.675714 -2.074843 0
M  V30 18 N -4.297928 2.965976 -2.371995 0
M  V30 19 C -3.773219 3.956405 -1.632821 0
M  V30 20 C -2.990287 3.669605 -0.534053 0
M  V30 21 C -1.320190 3.028308 1.809658 0
M  V30 22 S -0.397872 1.991785 3.102367 0
M  V30 23 H 0.246971 -3.498664 1.985651 0
M  V30 24 H 1.144212 -2.936942 3.417669 0
M  V30 25 H 1.137972 -3.754772 -0.108602 0
M  V30 26 H 2.992198 -4.270196 -1.543988 0
M  V30 27 H 5.577327 -3.585332 -1.858445 0
M  V30 28 H 5.641437 -2.862287 1.582545 0
M  V30 29 H 3.636455 -2.358864 3.004497 0
M  V30 30 H -1.228544 -1.523826 3.371553 0
M  V30 31 H -3.126417 0.354400 -0.733053 0
M  V30 32 H -4.497357 0.862955 -2.657022 0
M  V30 33 H -3.959344 4.985637 -1.891750 0
M  V30 34 H -2.583453 4.478775 0.039158 0
M  V30 35 H -1.417231 4.257572 1.676279 0
M  V30 END ATOM
M  V30 BEGIN BOND
M  V30 1 2 1 2
M  V30 2 1 2 3
M  V30 3 1 3 4
M  V30 4 2 4 5
M  V30 5 1 5 6
M  V30 6 2 6 7
M  V30 7 1 7 8
M  V30 8 1 7 9
M  V30 9 2 9 10
M  V30 10 1 2 11
M  V30 11 1 11 12
M  V30 12 2 12 13
M  V30 13 1 13 14
M  V30 14 1 14 15
M  V30 15 2 15 16
M  V30 16 1 16 17
M  V30 17 2 17 18
M  V30 18 1 18 19
M  V30 19 2 19 20
M  V30 20 2 14 21
M  V30 21 1 21 22
M  V30 22 1 10 4
M  V30 23 1 22 12
M  V30 24 1 20 15
M  V30 25 1 3 23
M  V30 26 1 3 24
M  V30 27 1 5 25
M  V30 28 1 6 26
M  V30 29 1 8 27
M  V30 30 1 9 28
M  V30 31 1 10 29
M  V30 32 1 11 30
M  V30 33 1 16 31
M  V30 34 1 17 32
M  V30 35 1 19 33
M  V30 36 1 20 34
M  V30 37 1 21 35
M  V30 END BOND
M  V30 END CTAB
M  END
>  <Dataset>  (8) 
ChEMBL_Kinases

>  <Ligand_Instance>  (8) 
nan

>  <PDB_ID>  (8) 
nan

>  <Standardized_SMILES>  (8) 
O=C(Cc1ccc(O)cc1)Nc1nc(-c2ccncc2)cs1

>  <Name>  (8) 
nan

>  <Pocket>  (8) 
nan

>  <ATP_Site>  (8) 
nan

>  <Peripheral>  (8) 
nan

>  <Num_H_Atoms_ProtBoundConf>  (8) 
nan

>  <Num_Resolved_Atoms>  (8) 
nan

>  <Num_Not_Resolved_Atoms>  (8) 
nan

$$$$
CHEMBL3581125
     RDKit          3D

  0  0  0  0  0  0  0  0  0  0999 V3000
M  V30 BEGIN CTAB
M  V30 COUNTS 37 40 0 0 0
M  V30 BEGIN ATOM
M  V30 1 O 0.754257 -2.039129 1.110270 0
M  V30 2 C -0.182336 -2.209800 1.946666 0
M  V30 3 C -0.513254 -3.585717 1.484652 0
M  V30 4 C 0.455865 -3.848865 0.366113 0
M  V30 5 C 1.698431 -4.406345 0.486264 0
M  V30 6 C 2.483647 -4.591110 -0.620959 0
M  V30 7 C 2.075622 -4.231851 -1.904839 0
M  V30 8 C 0.824553 -3.673929 -2.002006 0
M  V30 9 C 0.014752 -3.479050 -0.890683 0
M  V30 10 O 0.640492 -3.402896 -3.350784 0
M  V30 11 C 1.914503 -3.356530 -4.000049 0
M  V30 12 O 2.627915 -4.290687 -3.185916 0
M  V30 13 N -0.806606 -1.503143 2.976538 0
M  V30 14 C -0.175625 -0.135840 3.134118 0
M  V30 15 N -0.559449 0.825152 2.546739 0
M  V30 16 C -0.073240 2.041349 2.623574 0
M  V30 17 C -0.570276 3.194946 1.887844 0
M  V30 18 C -1.632227 3.100929 1.017475 0
M  V30 19 C -2.128560 4.192010 0.299468 0
M  V30 20 N -1.550026 5.374429 0.463463 0
M  V30 21 C -0.505008 5.547916 1.297753 0
M  V30 22 C -0.045743 4.442735 1.988346 0
M  V30 23 C 1.035551 2.165346 3.525239 0
M  V30 24 S 1.200503 0.390064 4.151179 0
M  V30 25 H -0.289996 -4.353069 2.244805 0
M  V30 26 H -1.548144 -3.700584 1.146862 0
M  V30 27 H 2.004209 -4.680537 1.483433 0
M  V30 28 H 3.468687 -5.032425 -0.530110 0
M  V30 29 H -0.968335 -3.025028 -1.077289 0
M  V30 30 H 1.870070 -3.790821 -5.003109 0
M  V30 31 H 2.403831 -2.380239 -3.935111 0
M  V30 32 H -1.569918 -1.966348 3.471581 0
M  V30 33 H -2.124951 2.129817 0.867958 0
M  V30 34 H -2.968932 4.012354 -0.360438 0
M  V30 35 H -0.067152 6.510026 1.403435 0
M  V30 36 H 0.792305 4.640999 2.641181 0
M  V30 37 H 1.612231 3.159447 3.739308 0
M  V30 END ATOM
M  V30 BEGIN BOND
M  V30 1 2 1 2
M  V30 2 1 2 3
M  V30 3 1 3 4
M  V30 4 2 4 5
M  V30 5 1 5 6
M  V30 6 2 6 7
M  V30 7 1 7 8
M  V30 8 2 8 9
M  V30 9 1 8 10
M  V30 10 1 10 11
M  V30 11 1 11 12
M  V30 12 1 2 13
M  V30 13 1 13 14
M  V30 14 2 14 15
M  V30 15 1 15 16
M  V30 16 1 16 17
M  V30 17 2 17 18
M  V30 18 1 18 19
M  V30 19 2 19 20
M  V30 20 1 20 21
M  V30 21 2 21 22
M  V30 22 2 16 23
M  V30 23 1 23 24
M  V30 24 1 9 4
M  V30 25 1 24 14
M  V30 26 1 12 7
M  V30 27 1 22 17
M  V30 28 1 3 25
M  V30 29 1 3 26
M  V30 30 1 5 27
M  V30 31 1 6 28
M  V30 32 1 9 29
M  V30 33 1 11 30
M  V30 34 1 11 31
M  V30 35 1 13 32
M  V30 36 1 18 33
M  V30 37 1 19 34
M  V30 38 1 21 35
M  V30 39 1 22 36
M  V30 40 1 23 37
M  V30 END BOND
M  V30 END CTAB
M  END
>  <Dataset>  (9) 
ChEMBL_Kinases

>  <Ligand_Instance>  (9) 
nan

>  <PDB_ID>  (9) 
nan

>  <Standardized_SMILES>  (9) 
O=C(Cc1ccc2c(c1)OCO2)Nc1nc(-c2ccncc2)cs1

>  <Name>  (9) 
nan

>  <Pocket>  (9) 
nan

>  <ATP_Site>  (9) 
nan

>  <Peripheral>  (9) 
nan

>  <Num_H_Atoms_ProtBoundConf>  (9) 
nan

>  <Num_Resolved_Atoms>  (9) 
nan

>  <Num_Not_Resolved_Atoms>  (9) 
nan

$$$$
CHEMBL3581127
     RDKit          3D

  0  0  0  0  0  0  0  0  0  0999 V3000
M  V30 BEGIN CTAB
M  V30 COUNTS 36 38 0 0 0
M  V30 BEGIN ATOM
M  V30 1 N 1.293787 -4.601061 3.171095 0
M  V30 2 C 1.592466 -4.051178 1.899069 0
M  V30 3 C 1.119158 -4.685218 0.766982 0
M  V30 4 C 1.445236 -4.091790 -0.442139 0
M  V30 5 C 2.198487 -2.945766 -0.409040 0
M  V30 6 C 2.674534 -2.305276 0.736856 0
M  V30 7 C 3.444072 -1.079613 0.409468 0
M  V30 8 C 2.577463 0.128816 0.410409 0
M  V30 9 O 2.140723 0.716335 1.426189 0
M  V30 10 N 2.226564 0.635711 -0.892423 0
M  V30 11 C 1.334938 1.864055 -0.727696 0
M  V30 12 N 0.258412 1.703380 -0.485140 0
M  V30 13 C -0.849561 2.330439 -0.280720 0
M  V30 14 C -2.225975 1.997610 0.060238 0
M  V30 15 C -2.502060 0.642877 0.231623 0
M  V30 16 C -3.761537 0.177145 0.562872 0
M  V30 17 N -4.762090 1.099004 0.724711 0
M  V30 18 C -4.460492 2.414411 0.551523 0
M  V30 19 C -3.222549 2.898904 0.222900 0
M  V30 20 C -0.503936 3.723389 -0.427432 0
M  V30 21 S 1.346966 3.683758 -0.823996 0
M  V30 22 C 2.348843 -2.898315 1.945880 0
M  V30 23 H 1.125351 -5.178551 4.007949 0
M  V30 24 H 0.974224 -4.173223 4.092260 0
M  V30 25 H 0.537815 -5.584439 0.839624 0
M  V30 26 H 1.081493 -4.573047 -1.328433 0
M  V30 27 H 2.392185 -2.583127 -1.419260 0
M  V30 28 H 4.037646 -1.232257 -0.483972 0
M  V30 29 H 4.159250 -0.957559 1.287716 0
M  V30 30 H 2.496140 0.285214 -1.832452 0
M  V30 31 H -1.685164 -0.093159 0.099637 0
M  V30 32 H -3.959376 -0.894366 0.702278 0
M  V30 33 H -5.236287 3.190296 0.670573 0
M  V30 34 H -2.986524 3.938042 0.088250 0
M  V30 35 H -1.178386 4.731041 -0.335700 0
M  V30 36 H 2.741848 -2.359355 2.775281 0
M  V30 END ATOM
M  V30 BEGIN BOND
M  V30 1 1 1 2
M  V30 2 2 2 3
M  V30 3 1 3 4
M  V30 4 2 4 5
M  V30 5 1 5 6
M  V30 6 1 6 7
M  V30 7 1 7 8
M  V30 8 2 8 9
M  V30 9 1 8 10
M  V30 10 1 10 11
M  V30 11 2 11 12
M  V30 12 1 12 13
M  V30 13 1 13 14
M  V30 14 2 14 15
M  V30 15 1 15 16
M  V30 16 2 16 17
M  V30 17 1 17 18
M  V30 18 2 18 19
M  V30 19 2 13 20
M  V30 20 1 20 21
M  V30 21 2 6 22
M  V30 22 1 22 2
M  V30 23 1 21 11
M  V30 24 1 19 14
M  V30 25 1 1 23
M  V30 26 1 1 24
M  V30 27 1 3 25
M  V30 28 1 4 26
M  V30 29 1 5 27
M  V30 30 1 7 28
M  V30 31 1 7 29
M  V30 32 1 10 30
M  V30 33 1 15 31
M  V30 34 1 16 32
M  V30 35 1 18 33
M  V30 36 1 19 34
M  V30 37 1 20 35
M  V30 38 1 22 36
M  V30 END BOND
M  V30 END CTAB
M  END
>  <Dataset>  (10) 
ChEMBL_Kinases

>  <Ligand_Instance>  (10) 
nan

>  <PDB_ID>  (10) 
nan

>  <Standardized_SMILES>  (10) 
Nc1cccc(CC(=O)Nc2nc(-c3ccncc3)cs2)c1

>  <Name>  (10) 
nan

>  <Pocket>  (10) 
nan

>  <ATP_Site>  (10) 
nan

>  <Peripheral>  (10) 
nan

>  <Num_H_Atoms_ProtBoundConf>  (10) 
nan

>  <Num_Resolved_Atoms>  (10) 
nan

>  <Num_Not_Resolved_Atoms>  (10) 
nan

$$$$
CHEMBL3581128
     RDKit          3D

  0  0  0  0  0  0  0  0  0  0999 V3000
M  V30 BEGIN CTAB
M  V30 COUNTS 42 44 0 0 0
M  V30 BEGIN ATOM
M  V30 1 C 1.234718 -5.067102 -0.647043 0
M  V30 2 S 1.985875 -5.144289 -2.277226 0
M  V30 3 O 0.991847 -5.472980 -3.312875 0
M  V30 4 O 3.022936 -6.232326 -2.217585 0
M  V30 5 N 2.809924 -3.669108 -2.510081 0
M  V30 6 C 2.086748 -2.442631 -2.507249 0
M  V30 7 C 0.891023 -2.369723 -3.223871 0
M  V30 8 C 0.189887 -1.176965 -3.219779 0
M  V30 9 C 0.690732 -0.089629 -2.507170 0
M  V30 10 C 1.887701 -0.186295 -1.798540 0
M  V30 11 C 2.447661 0.961197 -1.026979 0
M  V30 12 C 1.881086 0.857500 0.360773 0
M  V30 13 O 1.233450 -0.192628 0.036528 0
M  V30 14 N 2.112804 1.707289 1.449011 0
M  V30 15 C 1.368545 1.262629 2.639397 0
M  V30 16 N 0.255902 1.597547 2.943512 0
M  V30 17 C -0.368747 1.154744 4.045321 0
M  V30 18 C -1.730448 1.599964 4.365360 0
M  V30 19 C -2.402370 1.167433 5.485935 0
M  V30 20 C -3.678194 1.549587 5.837426 0
M  V30 21 N -4.330969 2.404350 5.044260 0
M  V30 22 C -3.747519 2.875206 3.930604 0
M  V30 23 C -2.471077 2.476886 3.602531 0
M  V30 24 C 0.319156 0.263289 4.867426 0
M  V30 25 S 1.923042 0.123623 3.922609 0
M  V30 26 C 2.606490 -1.388554 -1.795161 0
M  V30 27 H 1.059452 -6.104033 -0.301246 0
M  V30 28 H 1.931187 -4.542157 0.043493 0
M  V30 29 H 0.298019 -4.506136 -0.660854 0
M  V30 30 H 3.851266 -3.586616 -2.661922 0
M  V30 31 H 0.490535 -3.198922 -3.778838 0
M  V30 32 H -0.740565 -1.061156 -3.755621 0
M  V30 33 H 0.199153 0.873557 -2.457473 0
M  V30 34 H 2.081179 1.919241 -1.458145 0
M  V30 35 H 3.559077 0.939936 -1.024350 0
M  V30 36 H 2.747121 2.486927 1.256161 0
M  V30 37 H -1.931226 0.470341 6.176727 0
M  V30 38 H -4.153945 1.174306 6.732731 0
M  V30 39 H -4.230435 3.579391 3.237792 0
M  V30 40 H -2.002879 2.870400 2.685735 0
M  V30 41 H -0.043086 -0.171010 5.768377 0
M  V30 42 H 3.539835 -1.505630 -1.257987 0
M  V30 END ATOM
M  V30 BEGIN BOND
M  V30 1 1 1 2
M  V30 2 2 2 3
M  V30 3 2 2 4
M  V30 4 1 2 5
M  V30 5 1 5 6
M  V30 6 2 6 7
M  V30 7 1 7 8
M  V30 8 2 8 9
M  V30 9 1 9 10
M  V30 10 1 10 11
M  V30 11 1 11 12
M  V30 12 2 12 13
M  V30 13 1 12 14
M  V30 14 1 14 15
M  V30 15 2 15 16
M  V30 16 1 16 17
M  V30 17 1 17 18
M  V30 18 2 18 19
M  V30 19 1 19 20
M  V30 20 2 20 21
M  V30 21 1 21 22
M  V30 22 2 22 23
M  V30 23 2 17 24
M  V30 24 1 24 25
M  V30 25 2 10 26
M  V30 26 1 26 6
M  V30 27 1 25 15
M  V30 28 1 23 18
M  V30 29 1 1 27
M  V30 30 1 1 28
M  V30 31 1 1 29
M  V30 32 1 5 30
M  V30 33 1 7 31
M  V30 34 1 8 32
M  V30 35 1 9 33
M  V30 36 1 11 34
M  V30 37 1 11 35
M  V30 38 1 14 36
M  V30 39 1 19 37
M  V30 40 1 20 38
M  V30 41 1 22 39
M  V30 42 1 23 40
M  V30 43 1 24 41
M  V30 44 1 26 42
M  V30 END BOND
M  V30 END CTAB
M  END
>  <Dataset>  (11) 
ChEMBL_Kinases

>  <Ligand_Instance>  (11) 
nan

>  <PDB_ID>  (11) 
nan

>  <Standardized_SMILES>  (11) 
CS(=O)(=O)Nc1cccc(CC(=O)Nc2nc(-c3ccncc3)cs2)c1

>  <Name>  (11) 
nan

>  <Pocket>  (11) 
nan

>  <ATP_Site>  (11) 
nan

>  <Peripheral>  (11) 
nan

>  <Num_H_Atoms_ProtBoundConf>  (11) 
nan

>  <Num_Resolved_Atoms>  (11) 
nan

>  <Num_Not_Resolved_Atoms>  (11) 
nan

$$$$
CHEMBL3580954
     RDKit          3D

  0  0  0  0  0  0  0  0  0  0999 V3000
M  V30 BEGIN CTAB
M  V30 COUNTS 49 53 0 0 0
M  V30 BEGIN ATOM
M  V30 1 N -0.220358 -4.100753 1.881698 0
M  V30 2 C -0.908831 -4.893627 0.864606 0
M  V30 3 C -0.412817 -4.522423 -0.498067 0
M  V30 4 C -1.203912 -3.448350 -1.156311 0
M  V30 5 N -2.034765 -2.662640 -0.243072 0
M  V30 6 C -2.013650 -1.241528 -0.457484 0
M  V30 7 N -0.858583 -0.761744 -1.009523 0
M  V30 8 C -0.861225 0.590396 -1.237396 0
M  V30 9 N 0.333623 1.110918 -1.795911 0
M  V30 10 C 1.080475 1.525550 -0.633919 0
M  V30 11 C 1.828659 0.737658 0.248281 0
M  V30 12 C 2.404160 1.537937 1.242242 0
M  V30 13 C 3.211089 0.858544 2.274801 0
M  V30 14 C 3.139199 1.562848 3.597733 0
M  V30 15 C 4.428638 2.257214 3.265131 0
M  V30 16 C 4.660379 1.246848 2.180229 0
M  V30 17 N 1.999645 2.770301 0.943369 0
M  V30 18 N 1.235971 2.783691 -0.133367 0
M  V30 19 C -1.952027 1.383903 -0.928713 0
M  V30 20 S -2.209459 3.082169 -1.120767 0
M  V30 21 C -3.988833 3.008094 -0.387314 0
M  V30 22 C -4.117275 1.668610 -0.101139 0
M  V30 23 C -3.067088 0.838419 -0.381926 0
M  V30 24 N -3.100724 -0.507237 -0.138618 0
M  V30 25 C -2.804372 -3.275961 0.803336 0
M  V30 26 C -2.399589 -4.711420 0.991279 0
M  V30 27 H 0.752588 -4.472423 1.999959 0
M  V30 28 H -0.765891 -4.128791 2.756710 0
M  V30 29 H -0.681323 -5.957734 1.051230 0
M  V30 30 H 0.667413 -4.216707 -0.430396 0
M  V30 31 H -0.462002 -5.414726 -1.169956 0
M  V30 32 H -0.530527 -2.783217 -1.753374 0
M  V30 33 H -1.946672 -3.890815 -1.883942 0
M  V30 34 H 0.751391 1.246885 -2.762692 0
M  V30 35 H 1.867286 -0.328611 0.059737 0
M  V30 36 H 3.046690 -0.251282 2.311528 0
M  V30 37 H 3.301043 0.902512 4.502303 0
M  V30 38 H 2.261238 2.241055 3.722889 0
M  V30 39 H 4.237498 3.275802 2.853699 0
M  V30 40 H 5.190818 2.249293 4.081988 0
M  V30 41 H 5.002226 1.652627 1.204802 0
M  V30 42 H 5.315496 0.439017 2.590768 0
M  V30 43 H 2.291755 3.559266 1.534499 0
M  V30 44 H -4.607985 3.859944 -0.285907 0
M  V30 45 H -5.088187 1.424958 0.333541 0
M  V30 46 H -2.698106 -2.716245 1.778580 0
M  V30 47 H -3.880714 -3.231640 0.498521 0
M  V30 48 H -2.705447 -5.091808 1.991164 0
M  V30 49 H -2.894021 -5.312226 0.190772 0
M  V30 END ATOM
M  V30 BEGIN BOND
M  V30 1 1 1 2
M  V30 2 1 2 3
M  V30 3 1 3 4
M  V30 4 1 4 5
M  V30 5 1 5 6
M  V30 6 2 6 7
M  V30 7 1 7 8
M  V30 8 1 8 9
M  V30 9 1 9 10
M  V30 10 1 10 11
M  V30 11 2 11 12
M  V30 12 1 12 13
M  V30 13 1 13 14
M  V30 14 1 14 15
M  V30 15 1 15 16
M  V30 16 1 12 17
M  V30 17 1 17 18
M  V30 18 2 8 19
M  V30 19 1 19 20
M  V30 20 1 20 21
M  V30 21 2 21 22
M  V30 22 1 22 23
M  V30 23 2 23 24
M  V30 24 1 5 25
M  V30 25 1 25 26
M  V30 26 1 26 2
M  V30 27 1 24 6
M  V30 28 2 18 10
M  V30 29 1 23 19
M  V30 30 1 16 13
M  V30 31 1 1 27
M  V30 32 1 1 28
M  V30 33 1 2 29
M  V30 34 1 3 30
M  V30 35 1 3 31
M  V30 36 1 4 32
M  V30 37 1 4 33
M  V30 38 1 9 34
M  V30 39 1 11 35
M  V30 40 1 13 36
M  V30 41 1 14 37
M  V30 42 1 14 38
M  V30 43 1 15 39
M  V30 44 1 15 40
M  V30 45 1 16 41
M  V30 46 1 16 42
M  V30 47 1 17 43
M  V30 48 1 21 44
M  V30 49 1 22 45
M  V30 50 1 25 46
M  V30 51 1 25 47
M  V30 52 1 26 48
M  V30 53 1 26 49
M  V30 END BOND
M  V30 END CTAB
M  END
>  <Dataset>  (12) 
ChEMBL_Kinases

>  <Ligand_Instance>  (12) 
nan

>  <PDB_ID>  (12) 
nan

>  <Standardized_SMILES>  (12) 
NC1CCN(c2nc(Nc3cc(C4CCC4)[nH]n3)c3sccc3n2)CC1

>  <Name>  (12) 
nan

>  <Pocket>  (12) 
nan

>  <ATP_Site>  (12) 
nan

>  <Peripheral>  (12) 
nan

>  <Num_H_Atoms_ProtBoundConf>  (12) 
nan

>  <Num_Resolved_Atoms>  (12) 
nan

>  <Num_Not_Resolved_Atoms>  (12) 
nan

$$$$
CHEMBL3582224
     RDKit          3D

  0  0  0  0  0  0  0  0  0  0999 V3000
M  V30 BEGIN CTAB
M  V30 COUNTS 54 59 0 0 0
M  V30 BEGIN ATOM
M  V30 1 C 5.563293 -6.036575 -2.018298 0
M  V30 2 N 4.582777 -5.579122 -1.614902 0
M  V30 3 C 4.344945 -4.349006 -1.210051 0
M  V30 4 C 5.492390 -3.473288 -1.295168 0
M  V30 5 C 5.486230 -2.041876 -0.900736 0
M  V30 6 C 4.335793 -1.498345 -0.426254 0
M  V30 7 C 4.461843 -0.166854 -0.096225 0
M  V30 8 C 5.610104 0.574373 -0.217319 0
M  V30 9 C 6.737791 -0.075334 -0.714597 0
M  V30 10 N 6.654374 -1.397491 -1.054029 0
M  V30 11 N 5.310296 1.807192 0.206018 0
M  V30 12 C 4.034772 1.917804 0.597059 0
M  V30 13 N 3.228209 2.866116 1.085551 0
M  V30 14 C 1.934314 2.672293 1.398116 0
M  V30 15 C 1.313831 1.449322 1.237618 0
M  V30 16 C -0.083258 1.159047 1.552335 0
M  V30 17 C -1.130963 2.051013 1.455771 0
M  V30 18 C -2.429458 1.692898 1.775740 0
M  V30 19 C -2.683454 0.385531 2.210027 0
M  V30 20 C -4.098581 0.099005 2.539645 0
M  V30 21 N -4.795550 -0.337925 1.396098 0
M  V30 22 C -6.156199 -0.644779 1.551145 0
M  V30 23 C -6.817545 -1.479603 0.520367 0
M  V30 24 C -5.807302 -2.495070 -0.020542 0
M  V30 25 C -4.758300 -1.639147 -0.714361 0
M  V30 26 C -4.092186 -0.712254 0.248499 0
M  V30 27 C -1.619223 -0.486594 2.297853 0
M  V30 28 C -0.322566 -0.141709 1.982094 0
M  V30 29 C 2.142479 0.464153 0.732827 0
M  V30 30 C 3.476345 0.686715 0.416806 0
M  V30 31 S 6.791061 -4.558351 -1.961071 0
M  V30 32 H 5.776727 -7.085286 -2.366113 0
M  V30 33 H 3.372254 -4.066603 -0.856556 0
M  V30 34 H 3.444699 -2.099260 -0.339147 0
M  V30 35 H 7.656146 0.482007 -0.821168 0
M  V30 36 H 5.993513 2.586530 0.227178 0
M  V30 37 H 1.315269 3.487323 1.796976 0
M  V30 38 H -0.883699 3.059277 1.112671 0
M  V30 39 H -3.207780 2.449873 1.675541 0
M  V30 40 H -4.596713 1.024772 2.952696 0
M  V30 41 H -4.169891 -0.689493 3.341507 0
M  V30 42 H -6.762638 0.289423 1.743785 0
M  V30 43 H -6.262677 -1.204401 2.528947 0
M  V30 44 H -7.636526 -2.092207 0.968680 0
M  V30 45 H -7.170279 -0.884574 -0.345623 0
M  V30 46 H -6.293174 -3.106671 -0.807358 0
M  V30 47 H -5.380484 -3.105414 0.783286 0
M  V30 48 H -5.296540 -1.039944 -1.478562 0
M  V30 49 H -4.046779 -2.288130 -1.270732 0
M  V30 50 H -3.708310 0.208245 -0.283332 0
M  V30 51 H -3.135261 -1.232746 0.552701 0
M  V30 52 H -1.896723 -1.466405 2.637656 0
M  V30 53 H 0.384646 -0.938570 2.105656 0
M  V30 54 H 1.688915 -0.523339 0.589994 0
M  V30 END ATOM
M  V30 BEGIN BOND
M  V30 1 2 1 2
M  V30 2 1 2 3
M  V30 3 2 3 4
M  V30 4 1 4 5
M  V30 5 2 5 6
M  V30 6 1 6 7
M  V30 7 2 7 8
M  V30 8 1 8 9
M  V30 9 2 9 10
M  V30 10 1 8 11
M  V30 11 1 11 12
M  V30 12 2 12 13
M  V30 13 1 13 14
M  V30 14 2 14 15
M  V30 15 1 15 16
M  V30 16 2 16 17
M  V30 17 1 17 18
M  V30 18 2 18 19
M  V30 19 1 19 20
M  V30 20 1 20 21
M  V30 21 1 21 22
M  V30 22 1 22 23
M  V30 23 1 23 24
M  V30 24 1 24 25
M  V30 25 1 25 26
M  V30 26 1 19 27
M  V30 27 2 27 28
M  V30 28 1 15 29
M  V30 29 2 29 30
M  V30 30 1 4 31
M  V30 31 1 31 1
M  V30 32 1 10 5
M  V30 33 1 30 12
M  V30 34 1 30 7
M  V30 35 1 28 16
M  V30 36 1 26 21
M  V30 37 1 1 32
M  V30 38 1 3 33
M  V30 39 1 6 34
M  V30 40 1 9 35
M  V30 41 1 11 36
M  V30 42 1 14 37
M  V30 43 1 17 38
M  V30 44 1 18 39
M  V30 45 1 20 40
M  V30 46 1 20 41
M  V30 47 1 22 42
M  V30 48 1 22 43
M  V30 49 1 23 44
M  V30 50 1 23 45
M  V30 51 1 24 46
M  V30 52 1 24 47
M  V30 53 1 25 48
M  V30 54 1 25 49
M  V30 55 1 26 50
M  V30 56 1 26 51
M  V30 57 1 27 52
M  V30 58 1 28 53
M  V30 59 1 29 54
M  V30 END BOND
M  V30 END CTAB
M  END
>  <Dataset>  (13) 
ChEMBL_Kinases

>  <Ligand_Instance>  (13) 
nan

>  <PDB_ID>  (13) 
nan

>  <Standardized_SMILES>  (13) 
c1ncc(-c2cc3c(cn2)[nH]c2ncc(-c4ccc(CN5CCCCC5)cc4)cc23)s1

>  <Name>  (13) 
nan

>  <Pocket>  (13) 
nan

>  <ATP_Site>  (13) 
nan

>  <Peripheral>  (13) 
nan

>  <Num_H_Atoms_ProtBoundConf>  (13) 
nan

>  <Num_Resolved_Atoms>  (13) 
nan

>  <Num_Not_Resolved_Atoms>  (13) 
nan

$$$$
CHEMBL3582223
     RDKit          3D

  0  0  0  0  0  0  0  0  0  0999 V3000
M  V30 BEGIN CTAB
M  V30 COUNTS 54 59 0 0 0
M  V30 BEGIN ATOM
M  V30 1 C 8.181830 -2.532008 -1.327129 0
M  V30 2 N 7.280857 -3.136043 -0.532023 0
M  V30 3 C 6.221598 -2.294201 -0.552177 0
M  V30 4 C 6.498702 -1.188132 -1.363007 0
M  V30 5 C 5.594710 -0.067165 -1.627821 0
M  V30 6 C 4.339630 0.054334 -1.114272 0
M  V30 7 C 3.539990 1.150125 -1.411069 0
M  V30 8 C 4.056447 2.118293 -2.246276 0
M  V30 9 C 5.330561 1.979946 -2.758495 0
M  V30 10 N 6.084455 0.905030 -2.453025 0
M  V30 11 N 3.095730 3.056112 -2.370415 0
M  V30 12 C 2.008114 2.712294 -1.649922 0
M  V30 13 N 0.801739 3.319716 -1.456475 0
M  V30 14 C -0.127501 2.727017 -0.657811 0
M  V30 15 C 0.124650 1.507133 -0.028804 0
M  V30 16 C -0.924855 0.934868 0.813340 0
M  V30 17 C -0.587118 0.156609 1.919411 0
M  V30 18 C -1.558030 -0.394953 2.729014 0
M  V30 19 C -2.902443 -0.205337 2.486156 0
M  V30 20 C -4.044368 -0.740176 3.272721 0
M  V30 21 N -4.503251 -1.993033 2.827361 0
M  V30 22 C -4.965229 -2.086755 1.473130 0
M  V30 23 C -5.803458 -3.295607 1.179387 0
M  V30 24 C -5.118125 -4.535867 1.647156 0
M  V30 25 C -3.772348 -4.230287 2.194289 0
M  V30 26 C -3.802289 -3.161324 3.268195 0
M  V30 27 C -3.247771 0.575444 1.376909 0
M  V30 28 C -2.269993 1.124564 0.570729 0
M  V30 29 C 1.346038 0.861540 -0.205892 0
M  V30 30 C 2.254657 1.503805 -1.025227 0
M  V30 31 O 7.733962 -1.395588 -1.815946 0
M  V30 32 H 9.175444 -2.881068 -1.579325 0
M  V30 33 H 5.294751 -2.478813 -0.002903 0
M  V30 34 H 4.008520 -0.743187 -0.470576 0
M  V30 35 H 5.643485 2.788660 -3.400769 0
M  V30 36 H 3.169231 3.922470 -2.935744 0
M  V30 37 H -1.066220 3.262945 -0.546018 0
M  V30 38 H 0.447975 -0.024079 2.155899 0
M  V30 39 H -1.314734 -0.992722 3.582716 0
M  V30 40 H -3.719370 -0.854204 4.338966 0
M  V30 41 H -4.864332 0.027876 3.323704 0
M  V30 42 H -4.077033 -2.116114 0.808786 0
M  V30 43 H -5.555084 -1.145809 1.265850 0
M  V30 44 H -6.805228 -3.150004 1.647718 0
M  V30 45 H -5.903564 -3.362655 0.071440 0
M  V30 46 H -5.047750 -5.287452 0.825143 0
M  V30 47 H -5.717529 -4.984455 2.494498 0
M  V30 48 H -3.135840 -3.840833 1.371875 0
M  V30 49 H -3.246727 -5.133819 2.561737 0
M  V30 50 H -4.321953 -3.586231 4.144720 0
M  V30 51 H -2.789186 -2.865939 3.584557 0
M  V30 52 H -4.233293 0.835036 1.027845 0
M  V30 53 H -2.457856 1.739610 -0.305089 0
M  V30 54 H 1.540361 -0.083022 0.281652 0
M  V30 END ATOM
M  V30 BEGIN BOND
M  V30 1 2 1 2
M  V30 2 1 2 3
M  V30 3 2 3 4
M  V30 4 1 4 5
M  V30 5 2 5 6
M  V30 6 1 6 7
M  V30 7 2 7 8
M  V30 8 1 8 9
M  V30 9 2 9 10
M  V30 10 1 8 11
M  V30 11 1 11 12
M  V30 12 2 12 13
M  V30 13 1 13 14
M  V30 14 2 14 15
M  V30 15 1 15 16
M  V30 16 2 16 17
M  V30 17 1 17 18
M  V30 18 2 18 19
M  V30 19 1 19 20
M  V30 20 1 20 21
M  V30 21 1 21 22
M  V30 22 1 22 23
M  V30 23 1 23 24
M  V30 24 1 24 25
M  V30 25 1 25 26
M  V30 26 1 19 27
M  V30 27 2 27 28
M  V30 28 1 15 29
M  V30 29 2 29 30
M  V30 30 1 4 31
M  V30 31 1 31 1
M  V30 32 1 10 5
M  V30 33 1 30 12
M  V30 34 1 30 7
M  V30 35 1 28 16
M  V30 36 1 26 21
M  V30 37 1 1 32
M  V30 38 1 3 33
M  V30 39 1 6 34
M  V30 40 1 9 35
M  V30 41 1 11 36
M  V30 42 1 14 37
M  V30 43 1 17 38
M  V30 44 1 18 39
M  V30 45 1 20 40
M  V30 46 1 20 41
M  V30 47 1 22 42
M  V30 48 1 22 43
M  V30 49 1 23 44
M  V30 50 1 23 45
M  V30 51 1 24 46
M  V30 52 1 24 47
M  V30 53 1 25 48
M  V30 54 1 25 49
M  V30 55 1 26 50
M  V30 56 1 26 51
M  V30 57 1 27 52
M  V30 58 1 28 53
M  V30 59 1 29 54
M  V30 END BOND
M  V30 END CTAB
M  END
>  <Dataset>  (14) 
ChEMBL_Kinases

>  <Ligand_Instance>  (14) 
nan

>  <PDB_ID>  (14) 
nan

>  <Standardized_SMILES>  (14) 
c1ncc(-c2cc3c(cn2)[nH]c2ncc(-c4ccc(CN5CCCCC5)cc4)cc23)o1

>  <Name>  (14) 
nan

>  <Pocket>  (14) 
nan

>  <ATP_Site>  (14) 
nan

>  <Peripheral>  (14) 
nan

>  <Num_H_Atoms_ProtBoundConf>  (14) 
nan

>  <Num_Resolved_Atoms>  (14) 
nan

>  <Num_Not_Resolved_Atoms>  (14) 
nan

$$$$
CHEMBL3582222
     RDKit          3D

  0  0  0  0  0  0  0  0  0  0999 V3000
M  V30 BEGIN CTAB
M  V30 COUNTS 49 53 0 0 0
M  V30 BEGIN ATOM
M  V30 1 O 3.598256 -7.288526 -0.938276 0
M  V30 2 C 3.763136 -6.155176 -1.740129 0
M  V30 3 C 2.948820 -5.075062 -1.441386 0
M  V30 4 C 3.087323 -3.935934 -2.217577 0
M  V30 5 C 3.997931 -3.862012 -3.254552 0
M  V30 6 C 4.784980 -4.988272 -3.498134 0
M  V30 7 N 4.658033 -6.105954 -2.746335 0
M  V30 8 N 3.896663 -2.640138 -3.813981 0
M  V30 9 C 2.949739 -1.942425 -3.160505 0
M  V30 10 N 2.478640 -0.691697 -3.331173 0
M  V30 11 C 1.507929 -0.177890 -2.550887 0
M  V30 12 C 0.954650 -0.929315 -1.533146 0
M  V30 13 C -0.100771 -0.355181 -0.693851 0
M  V30 14 C -0.061183 1.006824 -0.462082 0
M  V30 15 C -1.050421 1.558017 0.327071 0
M  V30 16 C -2.070894 0.806857 0.889987 0
M  V30 17 C -3.134076 1.442321 1.747254 0
M  V30 18 N -2.700573 1.427887 3.096553 0
M  V30 19 C -1.499170 2.120231 3.370867 0
M  V30 20 C -1.089369 2.104308 4.817848 0
M  V30 21 C -2.171309 2.540647 5.744796 0
M  V30 22 C -3.557669 2.324690 5.236278 0
M  V30 23 C -3.676866 1.342594 4.110285 0
M  V30 24 C -2.091088 -0.556091 0.644599 0
M  V30 25 C -1.109644 -1.135350 -0.144487 0
M  V30 26 C 1.427988 -2.222597 -1.341490 0
M  V30 27 C 2.423176 -2.727828 -2.153402 0
M  V30 28 H 3.471272 -7.225325 0.059147 0
M  V30 29 H 2.233272 -5.136446 -0.624428 0
M  V30 30 H 5.502910 -4.940522 -4.309818 0
M  V30 31 H 4.481640 -2.316006 -4.632001 0
M  V30 32 H 1.195133 0.830327 -2.761662 0
M  V30 33 H 0.704504 1.638936 -0.871354 0
M  V30 34 H -1.086342 2.623513 0.554472 0
M  V30 35 H -4.099149 0.907871 1.637212 0
M  V30 36 H -3.322864 2.489344 1.423801 0
M  V30 37 H -1.590250 3.149354 2.987947 0
M  V30 38 H -0.677396 1.654261 2.780062 0
M  V30 39 H -0.698860 1.085873 5.107211 0
M  V30 40 H -0.220702 2.785851 4.932685 0
M  V30 41 H -2.001878 3.600216 6.027218 0
M  V30 42 H -2.058295 1.935788 6.692375 0
M  V30 43 H -4.221804 2.051617 6.076216 0
M  V30 44 H -3.931751 3.333639 4.893730 0
M  V30 45 H -3.655601 0.299974 4.533844 0
M  V30 46 H -4.681844 1.465365 3.651348 0
M  V30 47 H -2.871328 -1.198912 1.062045 0
M  V30 48 H -1.068081 -2.190320 -0.373825 0
M  V30 49 H 1.026084 -2.836774 -0.564770 0
M  V30 END ATOM
M  V30 BEGIN BOND
M  V30 1 1 1 2
M  V30 2 2 2 3
M  V30 3 1 3 4
M  V30 4 2 4 5
M  V30 5 1 5 6
M  V30 6 2 6 7
M  V30 7 1 5 8
M  V30 8 1 8 9
M  V30 9 2 9 10
M  V30 10 1 10 11
M  V30 11 2 11 12
M  V30 12 1 12 13
M  V30 13 2 13 14
M  V30 14 1 14 15
M  V30 15 2 15 16
M  V30 16 1 16 17
M  V30 17 1 17 18
M  V30 18 1 18 19
M  V30 19 1 19 20
M  V30 20 1 20 21
M  V30 21 1 21 22
M  V30 22 1 22 23
M  V30 23 1 16 24
M  V30 24 2 24 25
M  V30 25 1 12 26
M  V30 26 2 26 27
M  V30 27 1 7 2
M  V30 28 1 27 9
M  V30 29 1 27 4
M  V30 30 1 25 13
M  V30 31 1 23 18
M  V30 32 1 1 28
M  V30 33 1 3 29
M  V30 34 1 6 30
M  V30 35 1 8 31
M  V30 36 1 11 32
M  V30 37 1 14 33
M  V30 38 1 15 34
M  V30 39 1 17 35
M  V30 40 1 17 36
M  V30 41 1 19 37
M  V30 42 1 19 38
M  V30 43 1 20 39
M  V30 44 1 20 40
M  V30 45 1 21 41
M  V30 46 1 21 42
M  V30 47 1 22 43
M  V30 48 1 22 44
M  V30 49 1 23 45
M  V30 50 1 23 46
M  V30 51 1 24 47
M  V30 52 1 25 48
M  V30 53 1 26 49
M  V30 END BOND
M  V30 END CTAB
M  END
>  <Dataset>  (15) 
ChEMBL_Kinases

>  <Ligand_Instance>  (15) 
nan

>  <PDB_ID>  (15) 
nan

>  <Standardized_SMILES>  (15) 
Oc1cc2c(cn1)[nH]c1ncc(-c3ccc(CN4CCCCC4)cc3)cc12

>  <Name>  (15) 
nan

>  <Pocket>  (15) 
nan

>  <ATP_Site>  (15) 
nan

>  <Peripheral>  (15) 
nan

>  <Num_H_Atoms_ProtBoundConf>  (15) 
nan

>  <Num_Resolved_Atoms>  (15) 
nan

>  <Num_Not_Resolved_Atoms>  (15) 
nan

$$$$
CHEMBL3582221
     RDKit          3D

  0  0  0  0  0  0  0  0  0  0999 V3000
M  V30 BEGIN CTAB
M  V30 COUNTS 52 56 0 0 0
M  V30 BEGIN ATOM
M  V30 1 O 6.675195 -5.072772 1.999195 0
M  V30 2 C 6.520490 -4.704010 0.661685 0
M  V30 3 C 6.441512 -3.224073 0.516284 0
M  V30 4 C 5.188293 -2.654648 0.582389 0
M  V30 5 C 5.103195 -1.275428 0.448583 0
M  V30 6 C 6.221404 -0.482785 0.255418 0
M  V30 7 C 7.435418 -1.159570 0.204247 0
M  V30 8 N 7.558956 -2.494636 0.329663 0
M  V30 9 N 5.844116 0.803934 0.160705 0
M  V30 10 C 4.489673 0.879396 0.288191 0
M  V30 11 N 3.634620 1.922601 0.266776 0
M  V30 12 C 2.307008 1.762316 0.416359 0
M  V30 13 C 1.768388 0.504714 0.599582 0
M  V30 14 C 0.358466 0.165191 0.777743 0
M  V30 15 C -0.550783 1.019367 1.413458 0
M  V30 16 C -1.885155 0.666843 1.564850 0
M  V30 17 C -2.334907 -0.555685 1.078649 0
M  V30 18 C -3.738367 -1.014233 1.192397 0
M  V30 19 N -4.574815 -0.653162 0.081113 0
M  V30 20 C -4.684337 0.750131 -0.149961 0
M  V30 21 C -5.694039 1.470229 0.678399 0
M  V30 22 C -7.066274 0.867503 0.574940 0
M  V30 23 C -6.958197 -0.403604 -0.249992 0
M  V30 24 C -5.867763 -1.251708 0.330249 0
M  V30 25 C -1.451470 -1.421992 0.443302 0
M  V30 26 C -0.128647 -1.038257 0.309999 0
M  V30 27 C 2.656522 -0.570394 0.620941 0
M  V30 28 C 4.020422 -0.404054 0.467053 0
M  V30 29 H 5.836900 -5.039626 2.499071 0
M  V30 30 H 5.596876 -5.209633 0.278291 0
M  V30 31 H 7.350625 -5.058774 0.031830 0
M  V30 32 H 4.296306 -3.247878 0.732640 0
M  V30 33 H 8.361882 -0.583476 0.052476 0
M  V30 34 H 6.526397 1.603230 0.010388 0
M  V30 35 H 1.561626 2.541774 0.410864 0
M  V30 36 H -0.178648 1.967050 1.784647 0
M  V30 37 H -2.579433 1.327479 2.056597 0
M  V30 38 H -4.181002 -0.519013 2.087042 0
M  V30 39 H -3.842825 -2.091620 1.355621 0
M  V30 40 H -4.963585 0.899237 -1.235142 0
M  V30 41 H -3.720396 1.291967 -0.041681 0
M  V30 42 H -5.414535 1.594811 1.725476 0
M  V30 43 H -5.774816 2.507739 0.239891 0
M  V30 44 H -7.447689 0.586440 1.585782 0
M  V30 45 H -7.811574 1.533179 0.127618 0
M  V30 46 H -7.949177 -0.919861 -0.206095 0
M  V30 47 H -6.696587 -0.148849 -1.287769 0
M  V30 48 H -5.933321 -2.260155 -0.143678 0
M  V30 49 H -6.028948 -1.402187 1.436374 0
M  V30 50 H -1.775713 -2.385059 0.053076 0
M  V30 51 H 0.522470 -1.739962 -0.189480 0
M  V30 52 H 2.320586 -1.574570 0.757635 0
M  V30 END ATOM
M  V30 BEGIN BOND
M  V30 1 1 1 2
M  V30 2 1 2 3
M  V30 3 2 3 4
M  V30 4 1 4 5
M  V30 5 2 5 6
M  V30 6 1 6 7
M  V30 7 2 7 8
M  V30 8 1 6 9
M  V30 9 1 9 10
M  V30 10 2 10 11
M  V30 11 1 11 12
M  V30 12 2 12 13
M  V30 13 1 13 14
M  V30 14 2 14 15
M  V30 15 1 15 16
M  V30 16 2 16 17
M  V30 17 1 17 18
M  V30 18 1 18 19
M  V30 19 1 19 20
M  V30 20 1 20 21
M  V30 21 1 21 22
M  V30 22 1 22 23
M  V30 23 1 23 24
M  V30 24 1 17 25
M  V30 25 2 25 26
M  V30 26 1 13 27
M  V30 27 2 27 28
M  V30 28 1 8 3
M  V30 29 1 28 10
M  V30 30 1 28 5
M  V30 31 1 26 14
M  V30 32 1 24 19
M  V30 33 1 1 29
M  V30 34 1 2 30
M  V30 35 1 2 31
M  V30 36 1 4 32
M  V30 37 1 7 33
M  V30 38 1 9 34
M  V30 39 1 12 35
M  V30 40 1 15 36
M  V30 41 1 16 37
M  V30 42 1 18 38
M  V30 43 1 18 39
M  V30 44 1 20 40
M  V30 45 1 20 41
M  V30 46 1 21 42
M  V30 47 1 21 43
M  V30 48 1 22 44
M  V30 49 1 22 45
M  V30 50 1 23 46
M  V30 51 1 23 47
M  V30 52 1 24 48
M  V30 53 1 24 49
M  V30 54 1 25 50
M  V30 55 1 26 51
M  V30 56 1 27 52
M  V30 END BOND
M  V30 END CTAB
M  END
>  <Dataset>  (16) 
ChEMBL_Kinases

>  <Ligand_Instance>  (16) 
nan

>  <PDB_ID>  (16) 
nan

>  <Standardized_SMILES>  (16) 
OCc1cc2c(cn1)[nH]c1ncc(-c3ccc(CN4CCCCC4)cc3)cc12

>  <Name>  (16) 
nan

>  <Pocket>  (16) 
nan

>  <ATP_Site>  (16) 
nan

>  <Peripheral>  (16) 
nan

>  <Num_H_Atoms_ProtBoundConf>  (16) 
nan

>  <Num_Resolved_Atoms>  (16) 
nan

>  <Num_Not_Resolved_Atoms>  (16) 
nan

$$$$
CHEMBL3582220
     RDKit          3D

  0  0  0  0  0  0  0  0  0  0999 V3000
M  V30 BEGIN CTAB
M  V30 COUNTS 52 56 0 0 0
M  V30 BEGIN ATOM
M  V30 1 C 5.934571 -6.720582 -0.128387 0
M  V30 2 O 5.067395 -5.604549 -0.094066 0
M  V30 3 C 5.439605 -4.334344 0.323327 0
M  V30 4 C 4.384560 -3.434778 0.251899 0
M  V30 5 C 4.618313 -2.111981 0.643804 0
M  V30 6 C 5.880110 -1.753833 1.083506 0
M  V30 7 C 6.879977 -2.709859 1.125598 0
M  V30 8 N 6.651055 -3.983095 0.747290 0
M  V30 9 N 5.817428 -0.435009 1.391878 0
M  V30 10 C 4.576530 0.047577 1.165731 0
M  V30 11 N 4.000815 1.256290 1.304246 0
M  V30 12 C 2.701863 1.454064 0.991741 0
M  V30 13 C 1.900485 0.417315 0.512528 0
M  V30 14 C 0.489216 0.612034 0.168279 0
M  V30 15 C -0.236788 1.549755 0.886784 0
M  V30 16 C -1.570865 1.735817 0.563747 0
M  V30 17 C -2.180775 1.009964 -0.450924 0
M  V30 18 C -3.603664 1.306018 -0.690949 0
M  V30 19 N -4.523314 0.512762 0.061560 0
M  V30 20 C -5.872867 0.914586 -0.274662 0
M  V30 21 C -6.699062 1.213051 0.955315 0
M  V30 22 C -6.662923 0.022886 1.908633 0
M  V30 23 C -5.224115 -0.164981 2.311080 0
M  V30 24 C -4.275312 0.681123 1.477083 0
M  V30 25 C -1.450897 0.081395 -1.158141 0
M  V30 26 C -0.120254 -0.108289 -0.840299 0
M  V30 27 C 2.469162 -0.837998 0.360508 0
M  V30 28 C 3.799625 -0.992338 0.692551 0
M  V30 29 H 6.828098 -6.595823 0.505574 0
M  V30 30 H 6.332180 -6.873822 -1.166738 0
M  V30 31 H 5.400064 -7.660491 0.129280 0
M  V30 32 H 3.373680 -3.667987 -0.087109 0
M  V30 33 H 7.838963 -2.355923 1.480185 0
M  V30 34 H 6.609006 0.139535 1.754156 0
M  V30 35 H 2.260119 2.441990 1.113046 0
M  V30 36 H 0.260424 2.116967 1.687719 0
M  V30 37 H -2.087636 2.488159 1.165933 0
M  V30 38 H -3.764536 1.162405 -1.788646 0
M  V30 39 H -3.847549 2.385385 -0.519760 0
M  V30 40 H -6.407935 0.123423 -0.848960 0
M  V30 41 H -5.857059 1.862325 -0.885906 0
M  V30 42 H -6.387400 2.105733 1.503544 0
M  V30 43 H -7.757506 1.351173 0.594867 0
M  V30 44 H -7.314815 0.250972 2.776674 0
M  V30 45 H -7.033640 -0.900718 1.378254 0
M  V30 46 H -5.127486 0.232765 3.348226 0
M  V30 47 H -4.924198 -1.235643 2.330519 0
M  V30 48 H -3.252272 0.398774 1.765798 0
M  V30 49 H -4.407765 1.726975 1.801913 0
M  V30 50 H -1.946736 -0.474868 -1.946934 0
M  V30 51 H 0.469087 -0.839827 -1.391878 0
M  V30 52 H 1.919383 -1.701021 -0.005728 0
M  V30 END ATOM
M  V30 BEGIN BOND
M  V30 1 1 1 2
M  V30 2 1 2 3
M  V30 3 2 3 4
M  V30 4 1 4 5
M  V30 5 2 5 6
M  V30 6 1 6 7
M  V30 7 2 7 8
M  V30 8 1 6 9
M  V30 9 1 9 10
M  V30 10 2 10 11
M  V30 11 1 11 12
M  V30 12 2 12 13
M  V30 13 1 13 14
M  V30 14 2 14 15
M  V30 15 1 15 16
M  V30 16 2 16 17
M  V30 17 1 17 18
M  V30 18 1 18 19
M  V30 19 1 19 20
M  V30 20 1 20 21
M  V30 21 1 21 22
M  V30 22 1 22 23
M  V30 23 1 23 24
M  V30 24 1 17 25
M  V30 25 2 25 26
M  V30 26 1 13 27
M  V30 27 2 27 28
M  V30 28 1 8 3
M  V30 29 1 28 10
M  V30 30 1 28 5
M  V30 31 1 26 14
M  V30 32 1 24 19
M  V30 33 1 1 29
M  V30 34 1 1 30
M  V30 35 1 1 31
M  V30 36 1 4 32
M  V30 37 1 7 33
M  V30 38 1 9 34
M  V30 39 1 12 35
M  V30 40 1 15 36
M  V30 41 1 16 37
M  V30 42 1 18 38
M  V30 43 1 18 39
M  V30 44 1 20 40
M  V30 45 1 20 41
M  V30 46 1 21 42
M  V30 47 1 21 43
M  V30 48 1 22 44
M  V30 49 1 22 45
M  V30 50 1 23 46
M  V30 51 1 23 47
M  V30 52 1 24 48
M  V30 53 1 24 49
M  V30 54 1 25 50
M  V30 55 1 26 51
M  V30 56 1 27 52
M  V30 END BOND
M  V30 END CTAB
M  END
>  <Dataset>  (17) 
ChEMBL_Kinases

>  <Ligand_Instance>  (17) 
nan

>  <PDB_ID>  (17) 
nan

>  <Standardized_SMILES>  (17) 
COc1cc2c(cn1)[nH]c1ncc(-c3ccc(CN4CCCCC4)cc3)cc12

>  <Name>  (17) 
nan

>  <Pocket>  (17) 
nan

>  <ATP_Site>  (17) 
nan

>  <Peripheral>  (17) 
nan

>  <Num_H_Atoms_ProtBoundConf>  (17) 
nan

>  <Num_Resolved_Atoms>  (17) 
nan

>  <Num_Not_Resolved_Atoms>  (17) 
nan

$$$$
CHEMBL3582219
     RDKit          3D

  0  0  0  0  0  0  0  0  0  0999 V3000
M  V30 BEGIN CTAB
M  V30 COUNTS 58 62 0 0 0
M  V30 BEGIN ATOM
M  V30 1 C 5.244978 -3.787676 4.027282 0
M  V30 2 C 6.290810 -3.567960 2.952536 0
M  V30 3 N 6.488282 -2.129738 2.723867 0
M  V30 4 C 5.227140 -1.582516 2.308935 0
M  V30 5 O 4.324304 -2.487206 2.261918 0
M  V30 6 C 4.992235 -0.179122 1.980945 0
M  V30 7 C 3.707755 0.136655 1.611500 0
M  V30 8 C 3.357272 1.428798 1.278299 0
M  V30 9 C 4.271537 2.461701 1.298775 0
M  V30 10 C 5.539771 2.080722 1.676882 0
M  V30 11 N 5.907083 0.829112 2.006406 0
M  V30 12 N 3.644043 3.577520 0.932885 0
M  V30 13 C 2.343449 3.344626 0.665380 0
M  V30 14 N 1.279167 4.056376 0.272685 0
M  V30 15 C 0.057435 3.528222 0.081466 0
M  V30 16 C -0.183426 2.184670 0.282999 0
M  V30 17 C -1.458703 1.495308 0.108997 0
M  V30 18 C -2.442259 1.809801 -0.803922 0
M  V30 19 C -3.619478 1.095028 -0.886925 0
M  V30 20 C -3.852627 0.011064 -0.031161 0
M  V30 21 C -5.093915 -0.801561 -0.067305 0
M  V30 22 N -4.993382 -1.927625 -0.950973 0
M  V30 23 C -3.933165 -2.839881 -0.580342 0
M  V30 24 C -3.896984 -3.991110 -1.529498 0
M  V30 25 C -5.089784 -4.082877 -2.445956 0
M  V30 26 C -5.461312 -2.783200 -3.099013 0
M  V30 27 C -4.831011 -1.611043 -2.335243 0
M  V30 28 C -2.879306 -0.326031 0.896221 0
M  V30 29 C -1.713197 0.408165 0.954103 0
M  V30 30 C 0.909204 1.446217 0.687505 0
M  V30 31 C 2.159963 1.996070 0.881424 0
M  V30 32 H 5.653288 -4.408178 4.867686 0
M  V30 33 H 4.363908 -4.359046 3.663425 0
M  V30 34 H 4.905707 -2.855726 4.503178 0
M  V30 35 H 5.956219 -4.071667 2.025492 0
M  V30 36 H 7.241924 -3.951397 3.334517 0
M  V30 37 H 7.296421 -1.458771 2.793023 0
M  V30 38 H 2.909740 -0.617632 1.565023 0
M  V30 39 H 6.315543 2.837623 1.717643 0
M  V30 40 H 4.105237 4.509642 0.864052 0
M  V30 41 H -0.799509 4.121937 -0.238890 0
M  V30 42 H -2.234838 2.655863 -1.455639 0
M  V30 43 H -4.376743 1.356398 -1.608021 0
M  V30 44 H -5.919430 -0.160240 -0.401736 0
M  V30 45 H -5.276344 -1.189810 0.942230 0
M  V30 46 H -4.082554 -3.212836 0.440430 0
M  V30 47 H -2.951305 -2.327686 -0.620068 0
M  V30 48 H -3.848364 -4.972834 -0.997222 0
M  V30 49 H -2.987664 -3.952621 -2.194788 0
M  V30 50 H -4.802187 -4.787744 -3.276047 0
M  V30 51 H -5.961960 -4.601970 -1.955254 0
M  V30 52 H -6.568100 -2.648249 -2.942145 0
M  V30 53 H -5.178860 -2.743191 -4.172674 0
M  V30 54 H -3.742339 -1.599792 -2.625469 0
M  V30 55 H -5.309026 -0.662090 -2.650109 0
M  V30 56 H -3.064588 -1.164861 1.555193 0
M  V30 57 H -1.009830 0.059762 1.721882 0
M  V30 58 H 0.814381 0.374759 0.870883 0
M  V30 END ATOM
M  V30 BEGIN BOND
M  V30 1 1 1 2
M  V30 2 1 2 3
M  V30 3 1 3 4
M  V30 4 2 4 5
M  V30 5 1 4 6
M  V30 6 2 6 7
M  V30 7 1 7 8
M  V30 8 2 8 9
M  V30 9 1 9 10
M  V30 10 2 10 11
M  V30 11 1 9 12
M  V30 12 1 12 13
M  V30 13 2 13 14
M  V30 14 1 14 15
M  V30 15 2 15 16
M  V30 16 1 16 17
M  V30 17 2 17 18
M  V30 18 1 18 19
M  V30 19 2 19 20
M  V30 20 1 20 21
M  V30 21 1 21 22
M  V30 22 1 22 23
M  V30 23 1 23 24
M  V30 24 1 24 25
M  V30 25 1 25 26
M  V30 26 1 26 27
M  V30 27 1 20 28
M  V30 28 2 28 29
M  V30 29 1 16 30
M  V30 30 2 30 31
M  V30 31 1 11 6
M  V30 32 1 31 13
M  V30 33 1 31 8
M  V30 34 1 29 17
M  V30 35 1 27 22
M  V30 36 1 1 32
M  V30 37 1 1 33
M  V30 38 1 1 34
M  V30 39 1 2 35
M  V30 40 1 2 36
M  V30 41 1 3 37
M  V30 42 1 7 38
M  V30 43 1 10 39
M  V30 44 1 12 40
M  V30 45 1 15 41
M  V30 46 1 18 42
M  V30 47 1 19 43
M  V30 48 1 21 44
M  V30 49 1 21 45
M  V30 50 1 23 46
M  V30 51 1 23 47
M  V30 52 1 24 48
M  V30 53 1 24 49
M  V30 54 1 25 50
M  V30 55 1 25 51
M  V30 56 1 26 52
M  V30 57 1 26 53
M  V30 58 1 27 54
M  V30 59 1 27 55
M  V30 60 1 28 56
M  V30 61 1 29 57
M  V30 62 1 30 58
M  V30 END BOND
M  V30 END CTAB
M  END
>  <Dataset>  (18) 
ChEMBL_Kinases

>  <Ligand_Instance>  (18) 
nan

>  <PDB_ID>  (18) 
nan

>  <Standardized_SMILES>  (18) 
CCNC(=O)c1cc2c(cn1)[nH]c1ncc(-c3ccc(CN4CCCCC4)cc3)cc12

>  <Name>  (18) 
nan

>  <Pocket>  (18) 
nan

>  <ATP_Site>  (18) 
nan

>  <Peripheral>  (18) 
nan

>  <Num_H_Atoms_ProtBoundConf>  (18) 
nan

>  <Num_Resolved_Atoms>  (18) 
nan

>  <Num_Not_Resolved_Atoms>  (18) 
nan

$$$$
CHEMBL3582218
     RDKit          3D

  0  0  0  0  0  0  0  0  0  0999 V3000
M  V30 BEGIN CTAB
M  V30 COUNTS 52 56 0 0 0
M  V30 BEGIN ATOM
M  V30 1 N -7.089225 -2.278246 3.253983 0
M  V30 2 C -6.012747 -1.963314 2.390263 0
M  V30 3 O -5.597539 -2.828324 1.581466 0
M  V30 4 C -5.488372 -0.596813 2.554487 0
M  V30 5 C -4.451104 -0.200707 1.768802 0
M  V30 6 C -3.826074 1.030807 1.773493 0
M  V30 7 C -4.344419 1.941892 2.700286 0
M  V30 8 C -5.395975 1.538031 3.495745 0
M  V30 9 N -5.959653 0.317905 3.438889 0
M  V30 10 N -3.609672 3.051316 2.544001 0
M  V30 11 C -2.670581 2.879679 1.577830 0
M  V30 12 N -1.704147 3.655309 1.043813 0
M  V30 13 C -0.892399 3.208095 0.065516 0
M  V30 14 C -1.010939 1.929196 -0.439757 0
M  V30 15 C -0.168678 1.374923 -1.495637 0
M  V30 16 C -0.676044 0.434335 -2.369053 0
M  V30 17 C 0.167767 -0.054038 -3.344972 0
M  V30 18 C 1.485688 0.309405 -3.536741 0
M  V30 19 C 2.364472 -0.221894 -4.575462 0
M  V30 20 N 3.138081 -1.362448 -4.250345 0
M  V30 21 C 2.489908 -2.543909 -3.873058 0
M  V30 22 C 3.071218 -3.239084 -2.670097 0
M  V30 23 C 4.542545 -3.390570 -2.857871 0
M  V30 24 C 5.267070 -2.159798 -3.302801 0
M  V30 25 C 4.369033 -1.016596 -3.662059 0
M  V30 26 C 1.926757 1.257760 -2.623466 0
M  V30 27 C 1.140933 1.791608 -1.621052 0
M  V30 28 C -1.987728 1.085395 0.071189 0
M  V30 29 C -2.784551 1.602186 1.069190 0
M  V30 30 H -8.122916 -2.338155 3.016719 0
M  V30 31 H -7.746754 -2.523519 4.015296 0
M  V30 32 H -4.080607 -0.934737 1.067232 0
M  V30 33 H -5.806548 2.232813 4.216343 0
M  V30 34 H -3.742651 3.930944 3.092429 0
M  V30 35 H -0.102353 3.831670 -0.376158 0
M  V30 36 H -1.698587 0.100921 -2.280404 0
M  V30 37 H -0.281169 -0.782847 -4.003653 0
M  V30 38 H 3.030089 0.635490 -4.888183 0
M  V30 39 H 1.737033 -0.431595 -5.492448 0
M  V30 40 H 2.603359 -3.285749 -4.717648 0
M  V30 41 H 1.395544 -2.444035 -3.747019 0
M  V30 42 H 2.840301 -2.725973 -1.721076 0
M  V30 43 H 2.619786 -4.250696 -2.626267 0
M  V30 44 H 4.718258 -4.200041 -3.600107 0
M  V30 45 H 4.956504 -3.800096 -1.889291 0
M  V30 46 H 5.887461 -1.826583 -2.439195 0
M  V30 47 H 5.987900 -2.367186 -4.120744 0
M  V30 48 H 4.217621 -0.353144 -2.787014 0
M  V30 49 H 4.926887 -0.392354 -4.420044 0
M  V30 50 H 2.922610 1.648323 -2.635714 0
M  V30 51 H 1.496926 2.528139 -0.917928 0
M  V30 52 H -2.174631 0.063999 -0.245816 0
M  V30 END ATOM
M  V30 BEGIN BOND
M  V30 1 1 1 2
M  V30 2 2 2 3
M  V30 3 1 2 4
M  V30 4 2 4 5
M  V30 5 1 5 6
M  V30 6 2 6 7
M  V30 7 1 7 8
M  V30 8 2 8 9
M  V30 9 1 7 10
M  V30 10 1 10 11
M  V30 11 2 11 12
M  V30 12 1 12 13
M  V30 13 2 13 14
M  V30 14 1 14 15
M  V30 15 2 15 16
M  V30 16 1 16 17
M  V30 17 2 17 18
M  V30 18 1 18 19
M  V30 19 1 19 20
M  V30 20 1 20 21
M  V30 21 1 21 22
M  V30 22 1 22 23
M  V30 23 1 23 24
M  V30 24 1 24 25
M  V30 25 1 18 26
M  V30 26 2 26 27
M  V30 27 1 14 28
M  V30 28 2 28 29
M  V30 29 1 9 4
M  V30 30 1 29 11
M  V30 31 1 29 6
M  V30 32 1 27 15
M  V30 33 1 25 20
M  V30 34 1 1 30
M  V30 35 1 1 31
M  V30 36 1 5 32
M  V30 37 1 8 33
M  V30 38 1 10 34
M  V30 39 1 13 35
M  V30 40 1 16 36
M  V30 41 1 17 37
M  V30 42 1 19 38
M  V30 43 1 19 39
M  V30 44 1 21 40
M  V30 45 1 21 41
M  V30 46 1 22 42
M  V30 47 1 22 43
M  V30 48 1 23 44
M  V30 49 1 23 45
M  V30 50 1 24 46
M  V30 51 1 24 47
M  V30 52 1 25 48
M  V30 53 1 25 49
M  V30 54 1 26 50
M  V30 55 1 27 51
M  V30 56 1 28 52
M  V30 END BOND
M  V30 END CTAB
M  END
>  <Dataset>  (19) 
ChEMBL_Kinases

>  <Ligand_Instance>  (19) 
nan

>  <PDB_ID>  (19) 
nan

>  <Standardized_SMILES>  (19) 
NC(=O)c1cc2c(cn1)[nH]c1ncc(-c3ccc(CN4CCCCC4)cc3)cc12

>  <Name>  (19) 
nan

>  <Pocket>  (19) 
nan

>  <ATP_Site>  (19) 
nan

>  <Peripheral>  (19) 
nan

>  <Num_H_Atoms_ProtBoundConf>  (19) 
nan

>  <Num_Resolved_Atoms>  (19) 
nan

>  <Num_Not_Resolved_Atoms>  (19) 
nan

$$$$
CHEMBL3582217
     RDKit          3D

  0  0  0  0  0  0  0  0  0  0999 V3000
M  V30 BEGIN CTAB
M  V30 COUNTS 48 52 0 0 0
M  V30 BEGIN ATOM
M  V30 1 C 1.153916 -7.719018 -0.337378 0
M  V30 2 C 0.789324 -6.384089 -0.242054 0
M  V30 3 C 1.179496 -5.609062 -1.321213 0
M  V30 4 C 1.872171 -6.075775 -2.420013 0
M  V30 5 C 2.184998 -7.427934 -2.410340 0
M  V30 6 N 1.837132 -8.258648 -1.386178 0
M  V30 7 N 2.092998 -5.067220 -3.283008 0
M  V30 8 C 1.553173 -3.951453 -2.759868 0
M  V30 9 N 1.470075 -2.653185 -3.178311 0
M  V30 10 C 0.858965 -1.697227 -2.449307 0
M  V30 11 C 0.276479 -1.978477 -1.226231 0
M  V30 12 C -0.366996 -0.890797 -0.490286 0
M  V30 13 C 0.191235 0.363953 -0.659265 0
M  V30 14 C -0.365741 1.440063 0.006732 0
M  V30 15 C -1.476911 1.273066 0.840953 0
M  V30 16 C -1.948325 2.515704 1.475017 0
M  V30 17 N -1.342766 2.785053 2.732023 0
M  V30 18 C 0.087807 2.923757 2.687343 0
M  V30 19 C 0.662950 3.046794 4.077143 0
M  V30 20 C 0.174413 4.310578 4.687674 0
M  V30 21 C -1.062536 4.831810 4.064412 0
M  V30 22 C -1.998710 3.810437 3.485766 0
M  V30 23 C -2.010956 0.009218 0.988950 0
M  V30 24 C -1.463179 -1.073562 0.328880 0
M  V30 25 C 0.329371 -3.278453 -0.750619 0
M  V30 26 C 0.963726 -4.238496 -1.521552 0
M  V30 27 H 0.884680 -8.396882 0.469628 0
M  V30 28 H 0.255848 -6.014416 0.599972 0
M  V30 29 H 2.735303 -7.874329 -3.249568 0
M  V30 30 H 2.595878 -5.149724 -4.194757 0
M  V30 31 H 0.873888 -0.711541 -2.915771 0
M  V30 32 H 1.055796 0.518932 -1.302784 0
M  V30 33 H 0.110336 2.413932 -0.158295 0
M  V30 34 H -1.861402 3.380511 0.795925 0
M  V30 35 H -3.044339 2.374422 1.652043 0
M  V30 36 H 0.430295 3.765777 2.056828 0
M  V30 37 H 0.529721 2.001040 2.257804 0
M  V30 38 H 0.321446 2.188551 4.691659 0
M  V30 39 H 1.776605 3.052599 3.973367 0
M  V30 40 H 0.990112 5.084923 4.619283 0
M  V30 41 H 0.072174 4.135183 5.795027 0
M  V30 42 H -0.813736 5.607878 3.283621 0
M  V30 43 H -1.628855 5.410832 4.829996 0
M  V30 44 H -2.628875 3.341622 4.267582 0
M  V30 45 H -2.688386 4.346952 2.798899 0
M  V30 46 H -2.865874 -0.068847 1.640960 0
M  V30 47 H -1.881103 -2.060464 0.445263 0
M  V30 48 H -0.117593 -3.521202 0.198772 0
M  V30 END ATOM
M  V30 BEGIN BOND
M  V30 1 2 1 2
M  V30 2 1 2 3
M  V30 3 2 3 4
M  V30 4 1 4 5
M  V30 5 2 5 6
M  V30 6 1 4 7
M  V30 7 1 7 8
M  V30 8 2 8 9
M  V30 9 1 9 10
M  V30 10 2 10 11
M  V30 11 1 11 12
M  V30 12 2 12 13
M  V30 13 1 13 14
M  V30 14 2 14 15
M  V30 15 1 15 16
M  V30 16 1 16 17
M  V30 17 1 17 18
M  V30 18 1 18 19
M  V30 19 1 19 20
M  V30 20 1 20 21
M  V30 21 1 21 22
M  V30 22 1 15 23
M  V30 23 2 23 24
M  V30 24 1 11 25
M  V30 25 2 25 26
M  V30 26 1 6 1
M  V30 27 1 26 8
M  V30 28 1 26 3
M  V30 29 1 24 12
M  V30 30 1 22 17
M  V30 31 1 1 27
M  V30 32 1 2 28
M  V30 33 1 5 29
M  V30 34 1 7 30
M  V30 35 1 10 31
M  V30 36 1 13 32
M  V30 37 1 14 33
M  V30 38 1 16 34
M  V30 39 1 16 35
M  V30 40 1 18 36
M  V30 41 1 18 37
M  V30 42 1 19 38
M  V30 43 1 19 39
M  V30 44 1 20 40
M  V30 45 1 20 41
M  V30 46 1 21 42
M  V30 47 1 21 43
M  V30 48 1 22 44
M  V30 49 1 22 45
M  V30 50 1 23 46
M  V30 51 1 24 47
M  V30 52 1 25 48
M  V30 END BOND
M  V30 END CTAB
M  END
>  <Dataset>  (20) 
ChEMBL_Kinases

>  <Ligand_Instance>  (20) 
nan

>  <PDB_ID>  (20) 
nan

>  <Standardized_SMILES>  (20) 
c1cc2c(cn1)[nH]c1ncc(-c3ccc(CN4CCCCC4)cc3)cc12

>  <Name>  (20) 
nan

>  <Pocket>  (20) 
nan

>  <ATP_Site>  (20) 
nan

>  <Peripheral>  (20) 
nan

>  <Num_H_Atoms_ProtBoundConf>  (20) 
nan

>  <Num_Resolved_Atoms>  (20) 
nan

>  <Num_Not_Resolved_Atoms>  (20) 
nan

$$$$
CHEMBL3582216
     RDKit          3D

  0  0  0  0  0  0  0  0  0  0999 V3000
M  V30 BEGIN CTAB
M  V30 COUNTS 43 47 0 0 0
M  V30 BEGIN ATOM
M  V30 1 C -0.320557 -4.813507 4.608884 0
M  V30 2 C -0.126824 -4.008769 3.352288 0
M  V30 3 N 0.706798 -4.694765 2.399717 0
M  V30 4 C 2.067692 -4.795858 2.867503 0
M  V30 5 C 3.066234 -4.304006 1.844875 0
M  V30 6 C 2.656533 -2.911452 1.399920 0
M  V30 7 S 3.294566 -1.215809 1.193268 0
M  V30 8 C 1.743681 -0.559556 0.585374 0
M  V30 9 C 1.587050 0.836034 0.215609 0
M  V30 10 C 2.645845 1.712116 0.323817 0
M  V30 11 N 2.488238 3.003757 -0.021744 0
M  V30 12 C 1.293956 3.479490 -0.483224 0
M  V30 13 N 0.828589 4.685865 -0.899746 0
M  V30 14 C -0.466602 4.576374 -1.254984 0
M  V30 15 C -1.387963 5.482699 -1.736212 0
M  V30 16 N -2.663791 5.091238 -2.020831 0
M  V30 17 C -3.016583 3.787127 -1.822192 0
M  V30 18 C -4.358930 3.306351 -2.106337 0
M  V30 19 N -5.431247 2.923380 -2.312924 0
M  V30 20 C -2.129812 2.860388 -1.346319 0
M  V30 21 C -0.836281 3.261784 -1.058843 0
M  V30 22 C 0.264184 2.567263 -0.574423 0
M  V30 23 C 0.345393 1.226919 -0.239949 0
M  V30 24 C 0.884342 -1.585647 0.571404 0
M  V30 25 C 1.313185 -2.815848 0.983202 0
M  V30 26 C 0.601729 -4.124517 1.080640 0
M  V30 27 H -0.893631 -5.751745 4.393290 0
M  V30 28 H 0.601647 -5.082164 5.122119 0
M  V30 29 H -0.937487 -4.217009 5.321664 0
M  V30 30 H 0.216081 -2.991159 3.615663 0
M  V30 31 H -1.141448 -3.866863 2.905832 0
M  V30 32 H 2.350335 -5.806101 3.158094 0
M  V30 33 H 2.161617 -4.137299 3.752446 0
M  V30 34 H 3.123998 -4.941997 0.958896 0
M  V30 35 H 4.036361 -4.223753 2.338192 0
M  V30 36 H 3.613513 1.378726 0.685210 0
M  V30 37 H 1.443468 5.550420 -0.919684 0
M  V30 38 H -1.090362 6.518235 -1.888826 0
M  V30 39 H -2.423636 1.826025 -1.193028 0
M  V30 40 H -0.494739 0.552774 -0.330407 0
M  V30 41 H -0.125594 -1.405459 0.232578 0
M  V30 42 H -0.486821 -3.978617 0.900317 0
M  V30 43 H 0.972240 -4.774445 0.287660 0
M  V30 END ATOM
M  V30 BEGIN BOND
M  V30 1 1 1 2
M  V30 2 1 2 3
M  V30 3 1 3 4
M  V30 4 1 4 5
M  V30 5 1 5 6
M  V30 6 1 6 7
M  V30 7 1 7 8
M  V30 8 1 8 9
M  V30 9 2 9 10
M  V30 10 1 10 11
M  V30 11 2 11 12
M  V30 12 1 12 13
M  V30 13 1 13 14
M  V30 14 2 14 15
M  V30 15 1 15 16
M  V30 16 2 16 17
M  V30 17 1 17 18
M  V30 18 3 18 19
M  V30 19 1 17 20
M  V30 20 2 20 21
M  V30 21 1 21 22
M  V30 22 2 22 23
M  V30 23 2 8 24
M  V30 24 1 24 25
M  V30 25 1 25 26
M  V30 26 1 26 3
M  V30 27 2 25 6
M  V30 28 1 23 9
M  V30 29 1 22 12
M  V30 30 1 21 14
M  V30 31 1 1 27
M  V30 32 1 1 28
M  V30 33 1 1 29
M  V30 34 1 2 30
M  V30 35 1 2 31
M  V30 36 1 4 32
M  V30 37 1 4 33
M  V30 38 1 5 34
M  V30 39 1 5 35
M  V30 40 1 10 36
M  V30 41 1 13 37
M  V30 42 1 15 38
M  V30 43 1 20 39
M  V30 44 1 23 40
M  V30 45 1 24 41
M  V30 46 1 26 42
M  V30 47 1 26 43
M  V30 END BOND
M  V30 END CTAB
M  END
>  <Dataset>  (21) 
ChEMBL_Kinases

>  <Ligand_Instance>  (21) 
nan

>  <PDB_ID>  (21) 
nan

>  <Standardized_SMILES>  (21) 
CCN1CCc2sc(-c3cnc4[nH]c5cnc(C#N)cc5c4c3)cc2C1

>  <Name>  (21) 
nan

>  <Pocket>  (21) 
nan

>  <ATP_Site>  (21) 
nan

>  <Peripheral>  (21) 
nan

>  <Num_H_Atoms_ProtBoundConf>  (21) 
nan

>  <Num_Resolved_Atoms>  (21) 
nan

>  <Num_Not_Resolved_Atoms>  (21) 
nan

$$$$
CHEMBL3582215
     RDKit          3D

  0  0  0  0  0  0  0  0  0  0999 V3000
M  V30 BEGIN CTAB
M  V30 COUNTS 46 50 0 0 0
M  V30 BEGIN ATOM
M  V30 1 C -0.433688 -5.962237 2.409655 0
M  V30 2 C -0.959141 -5.233080 1.194397 0
M  V30 3 N -0.056064 -5.211446 0.084432 0
M  V30 4 C -0.644335 -4.502029 -1.005816 0
M  V30 5 C -0.694906 -3.019003 -0.878244 0
M  V30 6 C 0.491580 -2.590769 -0.090870 0
M  V30 7 C 0.567685 -1.197506 -0.016512 0
M  V30 8 C 1.617530 -0.591901 0.683732 0
M  V30 9 C 1.749376 0.863632 0.796226 0
M  V30 10 C 2.951775 1.540531 0.893962 0
M  V30 11 N 2.918399 2.886918 0.992094 0
M  V30 12 C 1.768298 3.584764 0.997991 0
M  V30 13 N 1.582933 4.917145 1.088920 0
M  V30 14 C 0.246056 5.156052 1.053572 0
M  V30 15 C -0.552119 6.293074 1.105995 0
M  V30 16 N -1.890383 6.183091 1.044979 0
M  V30 17 C -2.524570 4.982610 0.931201 0
M  V30 18 C -3.970830 4.908949 0.868556 0
M  V30 19 N -5.110262 4.865791 0.831078 0
M  V30 20 C -1.783180 3.806874 0.873677 0
M  V30 21 C -0.402292 3.939259 0.938064 0
M  V30 22 C 0.552897 2.916049 0.900440 0
M  V30 23 C 0.539080 1.539184 0.798122 0
M  V30 24 C 2.579577 -1.374447 1.302112 0
M  V30 25 C 2.484771 -2.768368 1.215471 0
M  V30 26 C 1.455896 -3.361038 0.529215 0
M  V30 27 C 1.290444 -4.834714 0.395194 0
M  V30 28 H -0.001904 -6.909134 2.066919 0
M  V30 29 H -1.317209 -6.147400 3.077421 0
M  V30 30 H 0.243097 -5.328979 3.012721 0
M  V30 31 H -1.318472 -4.207683 1.449844 0
M  V30 32 H -1.861154 -5.823689 0.863383 0
M  V30 33 H -0.168316 -4.778756 -1.986053 0
M  V30 34 H -1.698382 -4.858034 -1.106356 0
M  V30 35 H -1.645140 -2.715024 -0.402384 0
M  V30 36 H -0.560505 -2.554146 -1.885881 0
M  V30 37 H -0.122940 -0.489950 -0.457843 0
M  V30 38 H 3.862213 0.953917 0.886520 0
M  V30 39 H 2.289798 5.673823 1.172713 0
M  V30 40 H -0.081675 7.266954 1.196691 0
M  V30 41 H -2.246754 2.826496 0.782941 0
M  V30 42 H -0.448706 1.142353 0.729544 0
M  V30 43 H 3.408306 -0.946663 1.853989 0
M  V30 44 H 3.211359 -3.445545 1.681011 0
M  V30 45 H 1.991887 -5.188983 -0.365967 0
M  V30 46 H 1.578266 -5.253412 1.381040 0
M  V30 END ATOM
M  V30 BEGIN BOND
M  V30 1 1 1 2
M  V30 2 1 2 3
M  V30 3 1 3 4
M  V30 4 1 4 5
M  V30 5 1 5 6
M  V30 6 2 6 7
M  V30 7 1 7 8
M  V30 8 1 8 9
M  V30 9 2 9 10
M  V30 10 1 10 11
M  V30 11 2 11 12
M  V30 12 1 12 13
M  V30 13 1 13 14
M  V30 14 2 14 15
M  V30 15 1 15 16
M  V30 16 2 16 17
M  V30 17 1 17 18
M  V30 18 3 18 19
M  V30 19 1 17 20
M  V30 20 2 20 21
M  V30 21 1 21 22
M  V30 22 2 22 23
M  V30 23 2 8 24
M  V30 24 1 24 25
M  V30 25 2 25 26
M  V30 26 1 26 27
M  V30 27 1 27 3
M  V30 28 1 26 6
M  V30 29 1 23 9
M  V30 30 1 22 12
M  V30 31 1 21 14
M  V30 32 1 1 28
M  V30 33 1 1 29
M  V30 34 1 1 30
M  V30 35 1 2 31
M  V30 36 1 2 32
M  V30 37 1 4 33
M  V30 38 1 4 34
M  V30 39 1 5 35
M  V30 40 1 5 36
M  V30 41 1 7 37
M  V30 42 1 10 38
M  V30 43 1 13 39
M  V30 44 1 15 40
M  V30 45 1 20 41
M  V30 46 1 23 42
M  V30 47 1 24 43
M  V30 48 1 25 44
M  V30 49 1 27 45
M  V30 50 1 27 46
M  V30 END BOND
M  V30 END CTAB
M  END
>  <Dataset>  (22) 
ChEMBL_Kinases

>  <Ligand_Instance>  (22) 
nan

>  <PDB_ID>  (22) 
nan

>  <Standardized_SMILES>  (22) 
CCN1CCc2cc(-c3cnc4[nH]c5cnc(C#N)cc5c4c3)ccc2C1

>  <Name>  (22) 
nan

>  <Pocket>  (22) 
nan

>  <ATP_Site>  (22) 
nan

>  <Peripheral>  (22) 
nan

>  <Num_H_Atoms_ProtBoundConf>  (22) 
nan

>  <Num_Resolved_Atoms>  (22) 
nan

>  <Num_Not_Resolved_Atoms>  (22) 
nan

$$$$
CHEMBL3582214
     RDKit          3D

  0  0  0  0  0  0  0  0  0  0999 V3000
M  V30 BEGIN CTAB
M  V30 COUNTS 45 49 0 0 0
M  V30 BEGIN ATOM
M  V30 1 N 3.579929 -6.819008 0.880461 0
M  V30 2 C 2.810594 -6.406472 0.127352 0
M  V30 3 C 1.828222 -5.907740 -0.820570 0
M  V30 4 C 1.467259 -4.565066 -0.737971 0
M  V30 5 C 0.532414 -4.174632 -1.671338 0
M  V30 6 C -0.033746 -5.001397 -2.631758 0
M  V30 7 C 0.391324 -6.327967 -2.634415 0
M  V30 8 N 1.303912 -6.738380 -1.734153 0
M  V30 9 N -0.901927 -4.288511 -3.368386 0
M  V30 10 C -0.908582 -3.026031 -2.906852 0
M  V30 11 N -1.620784 -1.965329 -3.334258 0
M  V30 12 C -1.547447 -0.737952 -2.793473 0
M  V30 13 C -0.672812 -0.641035 -1.748421 0
M  V30 14 C -0.440117 0.632434 -1.006594 0
M  V30 15 N 0.147254 1.075075 -0.164392 0
M  V30 16 C 0.235836 2.254685 0.376358 0
M  V30 17 C 1.100928 2.627953 1.511143 0
M  V30 18 N 0.481620 2.459510 2.789368 0
M  V30 19 C 0.065443 1.136914 3.107652 0
M  V30 20 C -0.014367 0.988258 4.617727 0
M  V30 21 C -0.516999 2.245232 5.284044 0
M  V30 22 C 0.264866 3.473205 4.942159 0
M  V30 23 C 1.226877 3.127409 3.825384 0
M  V30 24 C -0.584280 3.133634 -0.242988 0
M  V30 25 S -1.440511 2.128625 -1.604541 0
M  V30 26 C 0.086123 -1.647497 -1.246948 0
M  V30 27 C -0.019720 -2.910704 -1.838554 0
M  V30 28 H 1.868282 -3.866683 -0.015767 0
M  V30 29 H -0.045312 -6.981810 -3.381131 0
M  V30 30 H -1.432110 -4.736727 -4.146604 0
M  V30 31 H -2.106937 0.105867 -3.125311 0
M  V30 32 H 1.386122 3.720353 1.452892 0
M  V30 33 H 2.073023 2.102973 1.506966 0
M  V30 34 H 0.764110 0.346760 2.772445 0
M  V30 35 H -0.974283 0.982831 2.722588 0
M  V30 36 H 0.963093 0.687821 5.055726 0
M  V30 37 H -0.752403 0.189893 4.878478 0
M  V30 38 H -1.588439 2.385229 5.036059 0
M  V30 39 H -0.428057 2.070187 6.375929 0
M  V30 40 H -0.384843 4.305767 4.544933 0
M  V30 41 H 0.834556 3.854160 5.815084 0
M  V30 42 H 1.645219 4.054855 3.379543 0
M  V30 43 H 2.078255 2.513714 4.187664 0
M  V30 44 H -0.668750 4.340427 0.108306 0
M  V30 45 H 0.775997 -1.573830 -0.423692 0
M  V30 END ATOM
M  V30 BEGIN BOND
M  V30 1 3 1 2
M  V30 2 1 2 3
M  V30 3 2 3 4
M  V30 4 1 4 5
M  V30 5 2 5 6
M  V30 6 1 6 7
M  V30 7 2 7 8
M  V30 8 1 6 9
M  V30 9 1 9 10
M  V30 10 2 10 11
M  V30 11 1 11 12
M  V30 12 2 12 13
M  V30 13 1 13 14
M  V30 14 2 14 15
M  V30 15 1 15 16
M  V30 16 1 16 17
M  V30 17 1 17 18
M  V30 18 1 18 19
M  V30 19 1 19 20
M  V30 20 1 20 21
M  V30 21 1 21 22
M  V30 22 1 22 23
M  V30 23 2 16 24
M  V30 24 1 24 25
M  V30 25 1 13 26
M  V30 26 2 26 27
M  V30 27 1 8 3
M  V30 28 1 27 10
M  V30 29 1 27 5
M  V30 30 1 25 14
M  V30 31 1 23 18
M  V30 32 1 4 28
M  V30 33 1 7 29
M  V30 34 1 9 30
M  V30 35 1 12 31
M  V30 36 1 17 32
M  V30 37 1 17 33
M  V30 38 1 19 34
M  V30 39 1 19 35
M  V30 40 1 20 36
M  V30 41 1 20 37
M  V30 42 1 21 38
M  V30 43 1 21 39
M  V30 44 1 22 40
M  V30 45 1 22 41
M  V30 46 1 23 42
M  V30 47 1 23 43
M  V30 48 1 24 44
M  V30 49 1 26 45
M  V30 END BOND
M  V30 END CTAB
M  END
>  <Dataset>  (23) 
ChEMBL_Kinases

>  <Ligand_Instance>  (23) 
nan

>  <PDB_ID>  (23) 
nan

>  <Standardized_SMILES>  (23) 
N#Cc1cc2c(cn1)[nH]c1ncc(-c3nc(CN4CCCCC4)cs3)cc12

>  <Name>  (23) 
nan

>  <Pocket>  (23) 
nan

>  <ATP_Site>  (23) 
nan

>  <Peripheral>  (23) 
nan

>  <Num_H_Atoms_ProtBoundConf>  (23) 
nan

>  <Num_Resolved_Atoms>  (23) 
nan

>  <Num_Not_Resolved_Atoms>  (23) 
nan

$$$$
CHEMBL3582213
     RDKit          3D

  0  0  0  0  0  0  0  0  0  0999 V3000
M  V30 BEGIN CTAB
M  V30 COUNTS 48 52 0 0 0
M  V30 BEGIN ATOM
M  V30 1 N 5.189727 -6.040582 -1.021573 0
M  V30 2 C 4.961237 -5.027276 -1.541484 0
M  V30 3 C 4.687546 -3.780996 -2.206844 0
M  V30 4 C 3.603583 -3.074193 -1.738233 0
M  V30 5 C 3.323902 -1.875194 -2.363291 0
M  V30 6 C 4.086583 -1.380226 -3.421107 0
M  V30 7 C 5.171979 -2.153347 -3.842399 0
M  V30 8 N 5.413077 -3.309213 -3.213866 0
M  V30 9 N 3.591237 -0.207854 -3.829985 0
M  V30 10 C 2.507479 0.131730 -3.091981 0
M  V30 11 N 1.684549 1.197719 -3.124197 0
M  V30 12 C 0.641540 1.308277 -2.255028 0
M  V30 13 C 0.471499 0.268582 -1.337458 0
M  V30 14 C -0.634730 0.345481 -0.385047 0
M  V30 15 C -1.113257 1.539709 0.117837 0
M  V30 16 C -2.163941 1.474289 1.010851 0
M  V30 17 C -2.790970 0.327329 1.456729 0
M  V30 18 C -3.899699 0.336656 2.401973 0
M  V30 19 N -3.647462 0.254980 3.768875 0
M  V30 20 C -2.840292 1.286418 4.300702 0
M  V30 21 C -1.382595 1.005474 4.438188 0
M  V30 22 C -1.038164 -0.399400 4.760729 0
M  V30 23 C -2.031073 -1.429411 4.365964 0
M  V30 24 C -3.447779 -0.966755 4.418134 0
M  V30 25 N -2.287228 -0.793905 0.937991 0
M  V30 26 C -1.264183 -0.797473 0.063186 0
M  V30 27 C 1.309293 -0.837909 -1.289046 0
M  V30 28 C 2.354905 -0.905801 -2.191878 0
M  V30 29 H 2.940885 -3.351534 -0.931022 0
M  V30 30 H 5.810703 -1.823843 -4.666049 0
M  V30 31 H 4.026526 0.319282 -4.613235 0
M  V30 32 H -0.050483 2.151384 -2.242778 0
M  V30 33 H -0.664637 2.469912 -0.192674 0
M  V30 34 H -2.487800 2.455573 1.362234 0
M  V30 35 H -4.549191 -0.550513 2.120673 0
M  V30 36 H -4.595602 1.207454 2.193714 0
M  V30 37 H -3.242759 1.546905 5.325862 0
M  V30 38 H -2.919724 2.235509 3.699212 0
M  V30 39 H -0.999665 1.636848 5.295976 0
M  V30 40 H -0.809204 1.403505 3.562046 0
M  V30 41 H -0.093542 -0.636888 4.186268 0
M  V30 42 H -0.704247 -0.525003 5.832726 0
M  V30 43 H -1.951002 -2.252454 5.141119 0
M  V30 44 H -1.776837 -1.939671 3.418761 0
M  V30 45 H -3.687106 -0.808769 5.516060 0
M  V30 46 H -4.139896 -1.785716 4.128674 0
M  V30 47 H -0.957199 -1.788603 -0.276949 0
M  V30 48 H 1.138042 -1.627699 -0.553633 0
M  V30 END ATOM
M  V30 BEGIN BOND
M  V30 1 3 1 2
M  V30 2 1 2 3
M  V30 3 2 3 4
M  V30 4 1 4 5
M  V30 5 2 5 6
M  V30 6 1 6 7
M  V30 7 2 7 8
M  V30 8 1 6 9
M  V30 9 1 9 10
M  V30 10 2 10 11
M  V30 11 1 11 12
M  V30 12 2 12 13
M  V30 13 1 13 14
M  V30 14 2 14 15
M  V30 15 1 15 16
M  V30 16 2 16 17
M  V30 17 1 17 18
M  V30 18 1 18 19
M  V30 19 1 19 20
M  V30 20 1 20 21
M  V30 21 1 21 22
M  V30 22 1 22 23
M  V30 23 1 23 24
M  V30 24 1 17 25
M  V30 25 2 25 26
M  V30 26 1 13 27
M  V30 27 2 27 28
M  V30 28 1 8 3
M  V30 29 1 28 10
M  V30 30 1 28 5
M  V30 31 1 26 14
M  V30 32 1 24 19
M  V30 33 1 4 29
M  V30 34 1 7 30
M  V30 35 1 9 31
M  V30 36 1 12 32
M  V30 37 1 15 33
M  V30 38 1 16 34
M  V30 39 1 18 35
M  V30 40 1 18 36
M  V30 41 1 20 37
M  V30 42 1 20 38
M  V30 43 1 21 39
M  V30 44 1 21 40
M  V30 45 1 22 41
M  V30 46 1 22 42
M  V30 47 1 23 43
M  V30 48 1 23 44
M  V30 49 1 24 45
M  V30 50 1 24 46
M  V30 51 1 26 47
M  V30 52 1 27 48
M  V30 END BOND
M  V30 END CTAB
M  END
>  <Dataset>  (24) 
ChEMBL_Kinases

>  <Ligand_Instance>  (24) 
nan

>  <PDB_ID>  (24) 
nan

>  <Standardized_SMILES>  (24) 
N#Cc1cc2c(cn1)[nH]c1ncc(-c3ccc(CN4CCCCC4)nc3)cc12

>  <Name>  (24) 
nan

>  <Pocket>  (24) 
nan

>  <ATP_Site>  (24) 
nan

>  <Peripheral>  (24) 
nan

>  <Num_H_Atoms_ProtBoundConf>  (24) 
nan

>  <Num_Resolved_Atoms>  (24) 
nan

>  <Num_Not_Resolved_Atoms>  (24) 
nan

$$$$
CHEMBL3582212
     RDKit          3D

  0  0  0  0  0  0  0  0  0  0999 V3000
M  V30 BEGIN CTAB
M  V30 COUNTS 54 59 0 0 0
M  V30 BEGIN ATOM
M  V30 1 N 4.368202 -2.583414 -6.276776 0
M  V30 2 C 4.722839 -2.005950 -5.317223 0
M  V30 3 C 5.147556 -1.306809 -4.134681 0
M  V30 4 C 4.214793 -0.906024 -3.199522 0
M  V30 5 C 4.567696 -0.232977 -2.048838 0
M  V30 6 C 5.903151 0.042739 -1.837853 0
M  V30 7 C 6.826925 -0.372811 -2.797996 0
M  V30 8 N 6.437848 -1.033457 -3.918211 0
M  V30 9 N 6.045680 0.708260 -0.654585 0
M  V30 10 C 4.819542 0.840681 -0.144663 0
M  V30 11 N 4.433192 1.434194 1.022942 0
M  V30 12 C 3.112613 1.463642 1.365690 0
M  V30 13 C 2.150575 0.890847 0.530929 0
M  V30 14 C 0.738130 0.929735 0.911264 0
M  V30 15 C 0.409537 0.891466 2.259537 0
M  V30 16 C -0.919922 0.926817 2.659174 0
M  V30 17 C -1.962850 1.001169 1.735030 0
M  V30 18 C -3.348960 1.033177 2.254545 0
M  V30 19 N -3.986486 -0.207721 2.419898 0
M  V30 20 C -3.403439 -1.161273 3.297192 0
M  V30 21 C -2.594323 -2.219719 2.538826 0
M  V30 22 C -3.583887 -2.914363 1.638822 0
M  V30 23 C -4.180996 -1.951382 0.674730 0
M  V30 24 C -4.732264 -0.737976 1.331047 0
M  V30 25 C -4.487405 -3.833021 2.389327 0
M  V30 26 O -4.400300 -4.724813 1.318246 0
M  V30 27 C -3.108718 -4.216738 1.052656 0
M  V30 28 C -1.629362 1.039078 0.391611 0
M  V30 29 C -0.293723 1.003993 -0.021648 0
M  V30 30 C 2.533222 0.289109 -0.650967 0
M  V30 31 C 3.863905 0.272178 -0.973117 0
M  V30 32 H 3.148515 -1.107601 -3.333659 0
M  V30 33 H 7.891270 -0.167790 -2.657386 0
M  V30 34 H 6.930083 1.051431 -0.221844 0
M  V30 35 H 2.809133 1.932721 2.288219 0
M  V30 36 H 1.232746 0.833635 2.970564 0
M  V30 37 H -1.039306 0.891318 3.737059 0
M  V30 38 H -3.954123 1.644373 1.553455 0
M  V30 39 H -3.345899 1.595123 3.206104 0
M  V30 40 H -2.832878 -0.660500 4.076866 0
M  V30 41 H -4.234176 -1.734518 3.765746 0
M  V30 42 H -2.129827 -2.912343 3.237539 0
M  V30 43 H -1.875983 -1.714603 1.880006 0
M  V30 44 H -5.026507 -2.472580 0.143871 0
M  V30 45 H -3.429819 -1.662257 -0.097952 0
M  V30 46 H -5.761062 -0.970226 1.701802 0
M  V30 47 H -4.869282 0.088313 0.579186 0
M  V30 48 H -5.465722 -3.401155 2.604134 0
M  V30 49 H -3.934865 -4.222591 3.293242 0
M  V30 50 H -2.924083 -4.128683 -0.040958 0
M  V30 51 H -2.313505 -4.735570 1.625456 0
M  V30 52 H -2.429519 1.096930 -0.330618 0
M  V30 53 H -0.043975 1.033905 -1.072865 0
M  V30 54 H 1.826977 -0.159420 -1.314652 0
M  V30 END ATOM
M  V30 BEGIN BOND
M  V30 1 3 1 2
M  V30 2 1 2 3
M  V30 3 2 3 4
M  V30 4 1 4 5
M  V30 5 2 5 6
M  V30 6 1 6 7
M  V30 7 2 7 8
M  V30 8 1 6 9
M  V30 9 1 9 10
M  V30 10 2 10 11
M  V30 11 1 11 12
M  V30 12 2 12 13
M  V30 13 1 13 14
M  V30 14 2 14 15
M  V30 15 1 15 16
M  V30 16 2 16 17
M  V30 17 1 17 18
M  V30 18 1 18 19
M  V30 19 1 19 20
M  V30 20 1 20 21
M  V30 21 1 21 22
M  V30 22 1 22 23
M  V30 23 1 23 24
M  V30 24 1 22 25
M  V30 25 1 25 26
M  V30 26 1 26 27
M  V30 27 1 17 28
M  V30 28 2 28 29
M  V30 29 1 13 30
M  V30 30 2 30 31
M  V30 31 1 8 3
M  V30 32 1 31 10
M  V30 33 1 31 5
M  V30 34 1 29 14
M  V30 35 1 24 19
M  V30 36 1 27 22
M  V30 37 1 4 32
M  V30 38 1 7 33
M  V30 39 1 9 34
M  V30 40 1 12 35
M  V30 41 1 15 36
M  V30 42 1 16 37
M  V30 43 1 18 38
M  V30 44 1 18 39
M  V30 45 1 20 40
M  V30 46 1 20 41
M  V30 47 1 21 42
M  V30 48 1 21 43
M  V30 49 1 23 44
M  V30 50 1 23 45
M  V30 51 1 24 46
M  V30 52 1 24 47
M  V30 53 1 25 48
M  V30 54 1 25 49
M  V30 55 1 27 50
M  V30 56 1 27 51
M  V30 57 1 28 52
M  V30 58 1 29 53
M  V30 59 1 30 54
M  V30 END BOND
M  V30 END CTAB
M  END
>  <Dataset>  (25) 
ChEMBL_Kinases

>  <Ligand_Instance>  (25) 
nan

>  <PDB_ID>  (25) 
nan

>  <Standardized_SMILES>  (25) 
N#Cc1cc2c(cn1)[nH]c1ncc(-c3ccc(CN4CCC5(CC4)COC5)cc3)cc12

>  <Name>  (25) 
nan

>  <Pocket>  (25) 
nan

>  <ATP_Site>  (25) 
nan

>  <Peripheral>  (25) 
nan

>  <Num_H_Atoms_ProtBoundConf>  (25) 
nan

>  <Num_Resolved_Atoms>  (25) 
nan

>  <Num_Not_Resolved_Atoms>  (25) 
nan

$$$$
CHEMBL3582211
     RDKit          3D

  0  0  0  0  0  0  0  0  0  0999 V3000
M  V30 BEGIN CTAB
M  V30 COUNTS 47 51 0 0 0
M  V30 BEGIN ATOM
M  V30 1 N 4.482075 -6.622983 -1.586856 0
M  V30 2 C 4.090049 -5.705323 -2.211678 0
M  V30 3 C 3.616915 -4.581383 -2.977574 0
M  V30 4 C 2.788861 -3.649353 -2.387113 0
M  V30 5 C 2.341085 -2.573098 -3.135624 0
M  V30 6 C 2.687449 -2.385426 -4.460534 0
M  V30 7 C 3.521877 -3.349871 -5.008698 0
M  V30 8 N 3.951493 -4.394096 -4.268678 0
M  V30 9 N 2.087824 -1.247068 -4.897160 0
M  V30 10 C 1.365098 -0.693248 -3.896940 0
M  V30 11 N 0.608021 0.443311 -3.887095 0
M  V30 12 C -0.036218 0.799351 -2.738272 0
M  V30 13 C 0.072248 0.025750 -1.599848 0
M  V30 14 C -0.581523 0.332237 -0.329177 0
M  V30 15 C -0.834628 1.629652 0.122754 0
M  V30 16 C -1.455867 1.852039 1.333620 0
M  V30 17 C -1.857005 0.794770 2.156877 0
M  V30 18 C -2.514317 1.120542 3.430749 0
M  V30 19 N -1.595795 1.278052 4.514878 0
M  V30 20 C -2.328209 1.594548 5.724539 0
M  V30 21 C -1.386827 2.075173 6.785181 0
M  V30 22 O -0.214160 1.327062 6.818753 0
M  V30 23 C -0.388109 0.064576 6.267572 0
M  V30 24 C -0.763124 0.150958 4.791367 0
M  V30 25 C -1.594908 -0.472125 1.686165 0
M  V30 26 C -0.974560 -0.717470 0.477763 0
M  V30 27 C 0.856622 -1.133642 -1.643952 0
M  V30 28 C 1.519052 -1.514100 -2.798421 0
M  V30 29 H 2.472054 -3.719612 -1.364891 0
M  V30 30 H 3.789578 -3.197524 -6.046870 0
M  V30 31 H 2.231122 -0.930089 -5.891619 0
M  V30 32 H -0.652864 1.697170 -2.678425 0
M  V30 33 H -0.526549 2.446298 -0.509066 0
M  V30 34 H -1.621482 2.885787 1.623638 0
M  V30 35 H -3.270375 0.364155 3.737741 0
M  V30 36 H -3.035984 2.105428 3.315214 0
M  V30 37 H -2.923219 0.746643 6.116325 0
M  V30 38 H -3.080396 2.404435 5.544835 0
M  V30 39 H -1.892622 2.063657 7.789381 0
M  V30 40 H -1.121803 3.157286 6.611055 0
M  V30 41 H -1.143760 -0.527018 6.833041 0
M  V30 42 H 0.583518 -0.459593 6.323084 0
M  V30 43 H 0.207592 0.265053 4.228805 0
M  V30 44 H -1.200869 -0.824655 4.537838 0
M  V30 45 H -1.893084 -1.306764 2.297593 0
M  V30 46 H -0.801567 -1.751415 0.173696 0
M  V30 47 H 1.007378 -1.812348 -0.802377 0
M  V30 END ATOM
M  V30 BEGIN BOND
M  V30 1 3 1 2
M  V30 2 1 2 3
M  V30 3 2 3 4
M  V30 4 1 4 5
M  V30 5 2 5 6
M  V30 6 1 6 7
M  V30 7 2 7 8
M  V30 8 1 6 9
M  V30 9 1 9 10
M  V30 10 2 10 11
M  V30 11 1 11 12
M  V30 12 2 12 13
M  V30 13 1 13 14
M  V30 14 2 14 15
M  V30 15 1 15 16
M  V30 16 2 16 17
M  V30 17 1 17 18
M  V30 18 1 18 19
M  V30 19 1 19 20
M  V30 20 1 20 21
M  V30 21 1 21 22
M  V30 22 1 22 23
M  V30 23 1 23 24
M  V30 24 1 17 25
M  V30 25 2 25 26
M  V30 26 1 13 27
M  V30 27 2 27 28
M  V30 28 1 8 3
M  V30 29 1 28 10
M  V30 30 1 28 5
M  V30 31 1 26 14
M  V30 32 1 24 19
M  V30 33 1 4 29
M  V30 34 1 7 30
M  V30 35 1 9 31
M  V30 36 1 12 32
M  V30 37 1 15 33
M  V30 38 1 16 34
M  V30 39 1 18 35
M  V30 40 1 18 36
M  V30 41 1 20 37
M  V30 42 1 20 38
M  V30 43 1 21 39
M  V30 44 1 21 40
M  V30 45 1 23 41
M  V30 46 1 23 42
M  V30 47 1 24 43
M  V30 48 1 24 44
M  V30 49 1 25 45
M  V30 50 1 26 46
M  V30 51 1 27 47
M  V30 END BOND
M  V30 END CTAB
M  END
>  <Dataset>  (26) 
ChEMBL_Kinases

>  <Ligand_Instance>  (26) 
nan

>  <PDB_ID>  (26) 
nan

>  <Standardized_SMILES>  (26) 
N#Cc1cc2c(cn1)[nH]c1ncc(-c3ccc(CN4CCOCC4)cc3)cc12

>  <Name>  (26) 
nan

>  <Pocket>  (26) 
nan

>  <ATP_Site>  (26) 
nan

>  <Peripheral>  (26) 
nan

>  <Num_H_Atoms_ProtBoundConf>  (26) 
nan

>  <Num_Resolved_Atoms>  (26) 
nan

>  <Num_Not_Resolved_Atoms>  (26) 
nan

$$$$
CHEMBL3582210
     RDKit          3D

  0  0  0  0  0  0  0  0  0  0999 V3000
M  V30 BEGIN CTAB
M  V30 COUNTS 50 54 0 0 0
M  V30 BEGIN ATOM
M  V30 1 N 7.391410 -3.716448 -3.519199 0
M  V30 2 C 6.466468 -3.130223 -3.943370 0
M  V30 3 C 5.313200 -2.426064 -4.468437 0
M  V30 4 C 4.317680 -2.094447 -3.585402 0
M  V30 5 C 3.205604 -1.424852 -4.044709 0
M  V30 6 C 3.141794 -1.114431 -5.385525 0
M  V30 7 C 4.159166 -1.454413 -6.283175 0
M  V30 8 N 5.236147 -2.111653 -5.795204 0
M  V30 9 N 1.988751 -0.467974 -5.629452 0
M  V30 10 C 1.323462 -0.365903 -4.461798 0
M  V30 11 N 0.136058 0.168263 -4.083811 0
M  V30 12 C -0.318099 0.140052 -2.818131 0
M  V30 13 C 0.394780 -0.440698 -1.791544 0
M  V30 14 C 0.019616 -0.542947 -0.386783 0
M  V30 15 C -1.290740 -0.661662 0.026654 0
M  V30 16 C -1.654865 -0.761103 1.353822 0
M  V30 17 C -0.692508 -0.744844 2.341002 0
M  V30 18 C -0.863210 -0.843597 3.812430 0
M  V30 19 N -1.036051 0.417762 4.474228 0
M  V30 20 C -1.172160 0.262970 5.915943 0
M  V30 21 C -2.468919 -0.396065 6.248440 0
M  V30 22 C -3.662193 0.250092 5.631981 0
M  V30 23 C -4.811834 -0.677719 5.554264 0
M  V30 24 N -5.716403 -1.399254 5.480120 0
M  V30 25 C -3.459129 0.900969 4.315940 0
M  V30 26 C -2.063544 1.252427 3.942771 0
M  V30 27 C 0.632116 -0.624588 1.921134 0
M  V30 28 C 0.991795 -0.525348 0.592982 0
M  V30 29 C 1.626000 -1.008623 -2.116311 0
M  V30 30 C 2.041461 -0.950646 -3.429048 0
M  V30 31 H 4.320213 -2.313341 -2.532471 0
M  V30 32 H 4.120819 -1.215358 -7.345826 0
M  V30 33 H 1.608646 -0.086780 -6.523881 0
M  V30 34 H -1.268919 0.568527 -2.521072 0
M  V30 35 H -2.082140 -0.678475 -0.714680 0
M  V30 36 H -2.662906 -0.855679 1.731130 0
M  V30 37 H -1.768846 -1.469366 4.057445 0
M  V30 38 H -0.002739 -1.350127 4.271993 0
M  V30 39 H -0.329187 -0.298075 6.318811 0
M  V30 40 H -1.169052 1.285487 6.330942 0
M  V30 41 H -2.539023 -0.404380 7.375321 0
M  V30 42 H -2.493705 -1.471937 5.970640 0
M  V30 43 H -3.998905 1.043531 6.363974 0
M  V30 44 H -3.855272 0.189407 3.535672 0
M  V30 45 H -4.153466 1.786631 4.245449 0
M  V30 46 H -1.928230 1.367429 2.846798 0
M  V30 47 H -1.878776 2.281426 4.367995 0
M  V30 48 H 1.473892 -0.601625 2.632779 0
M  V30 49 H 2.045744 -0.432488 0.305539 0
M  V30 50 H 2.287520 -1.495273 -1.417105 0
M  V30 END ATOM
M  V30 BEGIN BOND
M  V30 1 3 1 2
M  V30 2 1 2 3
M  V30 3 2 3 4
M  V30 4 1 4 5
M  V30 5 2 5 6
M  V30 6 1 6 7
M  V30 7 2 7 8
M  V30 8 1 6 9
M  V30 9 1 9 10
M  V30 10 2 10 11
M  V30 11 1 11 12
M  V30 12 2 12 13
M  V30 13 1 13 14
M  V30 14 2 14 15
M  V30 15 1 15 16
M  V30 16 2 16 17
M  V30 17 1 17 18
M  V30 18 1 18 19
M  V30 19 1 19 20
M  V30 20 1 20 21
M  V30 21 1 21 22
M  V30 22 1 22 23
M  V30 23 3 23 24
M  V30 24 1 22 25
M  V30 25 1 25 26
M  V30 26 1 17 27
M  V30 27 2 27 28
M  V30 28 1 13 29
M  V30 29 2 29 30
M  V30 30 1 8 3
M  V30 31 1 30 10
M  V30 32 1 30 5
M  V30 33 1 28 14
M  V30 34 1 26 19
M  V30 35 1 4 31
M  V30 36 1 7 32
M  V30 37 1 9 33
M  V30 38 1 12 34
M  V30 39 1 15 35
M  V30 40 1 16 36
M  V30 41 1 18 37
M  V30 42 1 18 38
M  V30 43 1 20 39
M  V30 44 1 20 40
M  V30 45 1 21 41
M  V30 46 1 21 42
M  V30 47 1 22 43
M  V30 48 1 25 44
M  V30 49 1 25 45
M  V30 50 1 26 46
M  V30 51 1 26 47
M  V30 52 1 27 48
M  V30 53 1 28 49
M  V30 54 1 29 50
M  V30 END BOND
M  V30 END CTAB
M  END
>  <Dataset>  (27) 
ChEMBL_Kinases

>  <Ligand_Instance>  (27) 
nan

>  <PDB_ID>  (27) 
nan

>  <Standardized_SMILES>  (27) 
N#Cc1cc2c(cn1)[nH]c1ncc(-c3ccc(CN4CCC(C#N)CC4)cc3)cc12

>  <Name>  (27) 
nan

>  <Pocket>  (27) 
nan

>  <ATP_Site>  (27) 
nan

>  <Peripheral>  (27) 
nan

>  <Num_H_Atoms_ProtBoundConf>  (27) 
nan

>  <Num_Resolved_Atoms>  (27) 
nan

>  <Num_Not_Resolved_Atoms>  (27) 
nan

$$$$
CHEMBL3582192
     RDKit          3D

  0  0  0  0  0  0  0  0  0  0999 V3000
M  V30 BEGIN CTAB
M  V30 COUNTS 35 38 0 0 0
M  V30 BEGIN ATOM
M  V30 1 N 0.657854 -5.470117 5.603700 0
M  V30 2 C 1.254485 -4.890485 4.804658 0
M  V30 3 C 2.002258 -4.177205 3.805584 0
M  V30 4 C 1.420657 -3.205535 3.044759 0
M  V30 5 C 2.042236 -2.463478 2.064041 0
M  V30 6 C 3.395782 -2.724826 1.819755 0
M  V30 7 C 3.973537 -3.710458 2.596133 0
M  V30 8 N 3.321561 -4.411028 3.546430 0
M  V30 9 N 3.870108 -1.926919 0.838265 0
M  V30 10 C 2.853259 -1.125786 0.412721 0
M  V30 11 N 2.687202 -0.156415 -0.501032 0
M  V30 12 C 1.503082 0.462657 -0.680165 0
M  V30 13 C 0.366824 0.159086 0.051764 0
M  V30 14 C -0.912698 0.830190 -0.143032 0
M  V30 15 C -1.735712 0.965381 0.964102 0
M  V30 16 C -2.962999 1.584538 0.878410 0
M  V30 17 C -3.433724 2.100181 -0.311619 0
M  V30 18 C -2.602067 1.962438 -1.425771 0
M  V30 19 C -3.037253 2.489066 -2.736130 0
M  V30 20 O -2.650616 3.803989 -2.951231 0
M  V30 21 C -1.364481 1.339485 -1.344921 0
M  V30 22 C 0.523432 -0.835448 0.994357 0
M  V30 23 C 1.747832 -1.461255 1.165139 0
M  V30 24 H 0.377882 -2.987843 3.216482 0
M  V30 25 H 5.017824 -3.956753 2.452980 0
M  V30 26 H 4.827030 -1.894690 0.446938 0
M  V30 27 H 1.446036 1.245913 -1.447479 0
M  V30 28 H -1.496599 0.609261 1.960220 0
M  V30 29 H -3.632056 1.703991 1.738336 0
M  V30 30 H -4.398522 2.583678 -0.366404 0
M  V30 31 H -4.162402 2.460823 -2.799268 0
M  V30 32 H -2.666479 1.823074 -3.554787 0
M  V30 33 H -3.297834 4.284488 -3.518070 0
M  V30 34 H -0.695053 1.213298 -2.176914 0
M  V30 35 H -0.346224 -1.094749 1.581341 0
M  V30 END ATOM
M  V30 BEGIN BOND
M  V30 1 3 1 2
M  V30 2 1 2 3
M  V30 3 2 3 4
M  V30 4 1 4 5
M  V30 5 2 5 6
M  V30 6 1 6 7
M  V30 7 2 7 8
M  V30 8 1 6 9
M  V30 9 1 9 10
M  V30 10 2 10 11
M  V30 11 1 11 12
M  V30 12 2 12 13
M  V30 13 1 13 14
M  V30 14 2 14 15
M  V30 15 1 15 16
M  V30 16 2 16 17
M  V30 17 1 17 18
M  V30 18 1 18 19
M  V30 19 1 19 20
M  V30 20 2 18 21
M  V30 21 1 13 22
M  V30 22 2 22 23
M  V30 23 1 8 3
M  V30 24 1 23 10
M  V30 25 1 23 5
M  V30 26 1 21 14
M  V30 27 1 4 24
M  V30 28 1 7 25
M  V30 29 1 9 26
M  V30 30 1 12 27
M  V30 31 1 15 28
M  V30 32 1 16 29
M  V30 33 1 17 30
M  V30 34 1 19 31
M  V30 35 1 19 32
M  V30 36 1 20 33
M  V30 37 1 21 34
M  V30 38 1 22 35
M  V30 END BOND
M  V30 END CTAB
M  END
>  <Dataset>  (28) 
ChEMBL_Kinases

>  <Ligand_Instance>  (28) 
nan

>  <PDB_ID>  (28) 
nan

>  <Standardized_SMILES>  (28) 
N#Cc1cc2c(cn1)[nH]c1ncc(-c3cccc(CO)c3)cc12

>  <Name>  (28) 
nan

>  <Pocket>  (28) 
nan

>  <ATP_Site>  (28) 
nan

>  <Peripheral>  (28) 
nan

>  <Num_H_Atoms_ProtBoundConf>  (28) 
nan

>  <Num_Resolved_Atoms>  (28) 
nan

>  <Num_Not_Resolved_Atoms>  (28) 
nan

$$$$
CHEMBL3582193
     RDKit          3D

  0  0  0  0  0  0  0  0  0  0999 V3000
M  V30 BEGIN CTAB
M  V30 COUNTS 28 31 0 0 0
M  V30 BEGIN ATOM
M  V30 1 N 1.737030 -3.071426 6.227842 0
M  V30 2 C 1.772992 -3.085457 5.061851 0
M  V30 3 C 1.822899 -3.126957 3.627904 0
M  V30 4 C 1.197128 -2.104601 2.904943 0
M  V30 5 C 1.248412 -2.148801 1.509489 0
M  V30 6 C 1.878859 -3.139459 0.797548 0
M  V30 7 C 2.467550 -4.104423 1.582171 0
M  V30 8 N 2.445596 -4.105848 2.931521 0
M  V30 9 N 1.759355 -2.912781 -0.512838 0
M  V30 10 C 1.054102 -1.779479 -0.653635 0
M  V30 11 N 0.652225 -1.106641 -1.746185 0
M  V30 12 C -0.061066 0.033341 -1.660904 0
M  V30 13 C -0.430484 0.592398 -0.455073 0
M  V30 14 C -1.201343 1.822843 -0.372855 0
M  V30 15 C -1.343749 2.974680 -1.075501 0
M  V30 16 C -2.263686 3.804622 -0.475307 0
M  V30 17 O -2.706685 3.186709 0.604989 0
M  V30 18 C -2.090910 2.009153 0.687016 0
M  V30 19 C -0.018458 -0.097175 0.663368 0
M  V30 20 C 0.710206 -1.261535 0.574587 0
M  V30 21 H 0.680866 -1.290994 3.392682 0
M  V30 22 H 2.991231 -4.929941 1.071287 0
M  V30 23 H 2.166176 -3.544481 -1.253269 0
M  V30 24 H -0.341196 0.507826 -2.592366 0
M  V30 25 H -0.741694 3.100335 -1.988627 0
M  V30 26 H -2.470478 4.759908 -0.937796 0
M  V30 27 H -2.417157 1.450916 1.563591 0
M  V30 28 H -0.292117 0.314280 1.626175 0
M  V30 END ATOM
M  V30 BEGIN BOND
M  V30 1 3 1 2
M  V30 2 1 2 3
M  V30 3 2 3 4
M  V30 4 1 4 5
M  V30 5 2 5 6
M  V30 6 1 6 7
M  V30 7 2 7 8
M  V30 8 1 6 9
M  V30 9 1 9 10
M  V30 10 2 10 11
M  V30 11 1 11 12
M  V30 12 2 12 13
M  V30 13 1 13 14
M  V30 14 1 14 15
M  V30 15 2 15 16
M  V30 16 1 16 17
M  V30 17 1 17 18
M  V30 18 1 13 19
M  V30 19 2 19 20
M  V30 20 1 8 3
M  V30 21 1 20 10
M  V30 22 1 20 5
M  V30 23 2 18 14
M  V30 24 1 4 21
M  V30 25 1 7 22
M  V30 26 1 9 23
M  V30 27 1 12 24
M  V30 28 1 15 25
M  V30 29 1 16 26
M  V30 30 1 18 27
M  V30 31 1 19 28
M  V30 END BOND
M  V30 END CTAB
M  END
>  <Dataset>  (29) 
ChEMBL_Kinases

>  <Ligand_Instance>  (29) 
nan

>  <PDB_ID>  (29) 
nan

>  <Standardized_SMILES>  (29) 
N#Cc1cc2c(cn1)[nH]c1ncc(-c3ccoc3)cc12

>  <Name>  (29) 
nan

>  <Pocket>  (29) 
nan

>  <ATP_Site>  (29) 
nan

>  <Peripheral>  (29) 
nan

>  <Num_H_Atoms_ProtBoundConf>  (29) 
nan

>  <Num_Resolved_Atoms>  (29) 
nan

>  <Num_Not_Resolved_Atoms>  (29) 
nan

$$$$
CHEMBL3582194
     RDKit          3D

  0  0  0  0  0  0  0  0  0  0999 V3000
M  V30 BEGIN CTAB
M  V30 COUNTS 28 31 0 0 0
M  V30 BEGIN ATOM
M  V30 1 N 2.994964 -3.048721 5.915286 0
M  V30 2 C 2.808728 -3.049249 4.779978 0
M  V30 3 C 2.556612 -3.034656 3.363821 0
M  V30 4 C 1.735963 -2.065606 2.824482 0
M  V30 5 C 1.547672 -2.123624 1.462307 0
M  V30 6 C 2.134922 -3.087768 0.652503 0
M  V30 7 C 2.942742 -4.023685 1.262851 0
M  V30 8 N 3.146104 -3.992746 2.593925 0
M  V30 9 N 1.772744 -2.899227 -0.641855 0
M  V30 10 C 0.961014 -1.826910 -0.672683 0
M  V30 11 N 0.319848 -1.204088 -1.687327 0
M  V30 12 C -0.456130 -0.126092 -1.483111 0
M  V30 13 C -0.614045 0.374225 -0.200527 0
M  V30 14 C -1.457604 1.551431 0.045008 0
M  V30 15 C -2.153511 2.268963 -0.872804 0
M  V30 16 C -2.892512 3.332129 -0.516961 0
M  V30 17 C -2.866319 3.617128 0.895788 0
M  V30 18 S -1.728394 2.253772 1.556983 0
M  V30 19 C 0.019100 -0.228464 0.855940 0
M  V30 20 C 0.807297 -1.332945 0.606488 0
M  V30 21 H 1.258405 -1.298814 3.406790 0
M  V30 22 H 3.433613 -4.804584 0.696489 0
M  V30 23 H 2.079612 -3.491561 -1.456036 0
M  V30 24 H -0.945176 0.332739 -2.328677 0
M  V30 25 H -2.109918 1.970636 -1.934642 0
M  V30 26 H -3.476878 3.960554 -1.173266 0
M  V30 27 H -3.529408 4.587004 1.285388 0
M  V30 28 H -0.083839 0.137171 1.866473 0
M  V30 END ATOM
M  V30 BEGIN BOND
M  V30 1 3 1 2
M  V30 2 1 2 3
M  V30 3 2 3 4
M  V30 4 1 4 5
M  V30 5 2 5 6
M  V30 6 1 6 7
M  V30 7 2 7 8
M  V30 8 1 6 9
M  V30 9 1 9 10
M  V30 10 2 10 11
M  V30 11 1 11 12
M  V30 12 2 12 13
M  V30 13 1 13 14
M  V30 14 2 14 15
M  V30 15 1 15 16
M  V30 16 2 16 17
M  V30 17 1 17 18
M  V30 18 1 13 19
M  V30 19 2 19 20
M  V30 20 1 8 3
M  V30 21 1 20 10
M  V30 22 1 20 5
M  V30 23 1 18 14
M  V30 24 1 4 21
M  V30 25 1 7 22
M  V30 26 1 9 23
M  V30 27 1 12 24
M  V30 28 1 15 25
M  V30 29 1 16 26
M  V30 30 1 17 27
M  V30 31 1 19 28
M  V30 END BOND
M  V30 END CTAB
M  END
>  <Dataset>  (30) 
ChEMBL_Kinases

>  <Ligand_Instance>  (30) 
nan

>  <PDB_ID>  (30) 
nan

>  <Standardized_SMILES>  (30) 
N#Cc1cc2c(cn1)[nH]c1ncc(-c3cccs3)cc12

>  <Name>  (30) 
nan

>  <Pocket>  (30) 
nan

>  <ATP_Site>  (30) 
nan

>  <Peripheral>  (30) 
nan

>  <Num_H_Atoms_ProtBoundConf>  (30) 
nan

>  <Num_Resolved_Atoms>  (30) 
nan

>  <Num_Not_Resolved_Atoms>  (30) 
nan

$$$$
CHEMBL3582195
     RDKit          3D

  0  0  0  0  0  0  0  0  0  0999 V3000
M  V30 BEGIN CTAB
M  V30 COUNTS 31 34 0 0 0
M  V30 BEGIN ATOM
M  V30 1 C -0.034828 -5.772152 3.644996 0
M  V30 2 N -0.116625 -4.404773 3.154293 0
M  V30 3 C -0.648258 -3.348539 3.831141 0
M  V30 4 C -0.550104 -2.199181 3.042466 0
M  V30 5 C 0.058817 -2.623796 1.879579 0
M  V30 6 C 0.395568 -1.803216 0.715450 0
M  V30 7 C 1.007026 -2.402814 -0.366713 0
M  V30 8 N 1.332130 -1.660711 -1.465957 0
M  V30 9 C 1.057149 -0.340797 -1.497917 0
M  V30 10 N 1.263825 0.608441 -2.432552 0
M  V30 11 C 0.817337 1.794379 -2.011801 0
M  V30 12 C 0.757374 3.081208 -2.512154 0
M  V30 13 N 0.220441 4.126181 -1.817951 0
M  V30 14 C -0.276509 3.873109 -0.572822 0
M  V30 15 C -0.855955 4.936238 0.208175 0
M  V30 16 N -1.340698 5.794237 0.839616 0
M  V30 17 C -0.265383 2.628207 0.016913 0
M  V30 18 C 0.290793 1.609449 -0.733605 0
M  V30 19 C 0.444055 0.262804 -0.414042 0
M  V30 20 C 0.098113 -0.458963 0.722127 0
M  V30 21 N 0.313958 -3.959651 1.964000 0
M  V30 22 H 0.244611 -5.799519 4.715315 0
M  V30 23 H -0.993368 -6.287144 3.441095 0
M  V30 24 H 0.820623 -6.245925 3.108332 0
M  V30 25 H -1.086009 -3.364012 4.825449 0
M  V30 26 H -0.870244 -1.187053 3.264405 0
M  V30 27 H 1.234393 -3.469540 -0.352454 0
M  V30 28 H 1.713295 0.431251 -3.358167 0
M  V30 29 H 1.159927 3.222488 -3.489311 0
M  V30 30 H -0.659681 2.441682 0.997797 0
M  V30 31 H -0.377136 -0.006204 1.569761 0
M  V30 END ATOM
M  V30 BEGIN BOND
M  V30 1 1 1 2
M  V30 2 1 2 3
M  V30 3 2 3 4
M  V30 4 1 4 5
M  V30 5 1 5 6
M  V30 6 2 6 7
M  V30 7 1 7 8
M  V30 8 2 8 9
M  V30 9 1 9 10
M  V30 10 1 10 11
M  V30 11 2 11 12
M  V30 12 1 12 13
M  V30 13 2 13 14
M  V30 14 1 14 15
M  V30 15 3 15 16
M  V30 16 1 14 17
M  V30 17 2 17 18
M  V30 18 1 18 19
M  V30 19 2 19 20
M  V30 20 2 5 21
M  V30 21 1 21 2
M  V30 22 1 20 6
M  V30 23 1 19 9
M  V30 24 1 18 11
M  V30 25 1 1 22
M  V30 26 1 1 23
M  V30 27 1 1 24
M  V30 28 1 3 25
M  V30 29 1 4 26
M  V30 30 1 7 27
M  V30 31 1 10 28
M  V30 32 1 12 29
M  V30 33 1 17 30
M  V30 34 1 20 31
M  V30 END BOND
M  V30 END CTAB
M  END
>  <Dataset>  (31) 
ChEMBL_Kinases

>  <Ligand_Instance>  (31) 
nan

>  <PDB_ID>  (31) 
nan

>  <Standardized_SMILES>  (31) 
Cn1ccc(-c2cnc3[nH]c4cnc(C#N)cc4c3c2)n1

>  <Name>  (31) 
nan

>  <Pocket>  (31) 
nan

>  <ATP_Site>  (31) 
nan

>  <Peripheral>  (31) 
nan

>  <Num_H_Atoms_ProtBoundConf>  (31) 
nan

>  <Num_Resolved_Atoms>  (31) 
nan

>  <Num_Not_Resolved_Atoms>  (31) 
nan

$$$$
CHEMBL3582196
     RDKit          3D

  0  0  0  0  0  0  0  0  0  0999 V3000
M  V30 BEGIN CTAB
M  V30 COUNTS 28 31 0 0 0
M  V30 BEGIN ATOM
M  V30 1 N -1.903151 -3.226349 6.129239 0
M  V30 2 C -1.753382 -3.199269 4.980009 0
M  V30 3 C -1.583404 -3.160960 3.575260 0
M  V30 4 C -0.891333 -2.154661 2.941610 0
M  V30 5 C -0.759320 -2.172455 1.566116 0
M  V30 6 C -1.306627 -3.184572 0.773329 0
M  V30 7 C -1.991513 -4.170069 1.462333 0
M  V30 8 N -2.100409 -4.121716 2.798400 0
M  V30 9 N -1.006094 -2.916590 -0.512822 0
M  V30 10 C -0.292959 -1.785899 -0.604921 0
M  V30 11 N 0.193675 -1.188220 -1.708040 0
M  V30 12 C 0.901974 -0.028903 -1.582512 0
M  V30 13 C 1.097292 0.495712 -0.322045 0
M  V30 14 C 1.858128 1.743754 -0.170938 0
M  V30 15 N 2.133135 2.377219 0.974667 0
M  V30 16 C 2.859954 3.502130 0.716213 0
M  V30 17 C 2.985267 3.473891 -0.657661 0
M  V30 18 N 2.382388 2.412025 -1.213723 0
M  V30 19 C 0.586662 -0.134206 0.818914 0
M  V30 20 C -0.129465 -1.309344 0.674018 0
M  V30 21 H -0.442846 -1.340060 3.502973 0
M  V30 22 H -2.431140 -4.973002 0.885645 0
M  V30 23 H -1.360005 -3.606770 -1.239069 0
M  V30 24 H 1.288443 0.442455 -2.478300 0
M  V30 25 H 3.251482 4.245442 1.398637 0
M  V30 26 H 3.532708 4.264715 -1.190138 0
M  V30 27 H 2.342769 2.178925 -2.227329 0
M  V30 28 H 0.743374 0.283788 1.812745 0
M  V30 END ATOM
M  V30 BEGIN BOND
M  V30 1 3 1 2
M  V30 2 1 2 3
M  V30 3 2 3 4
M  V30 4 1 4 5
M  V30 5 2 5 6
M  V30 6 1 6 7
M  V30 7 2 7 8
M  V30 8 1 6 9
M  V30 9 1 9 10
M  V30 10 2 10 11
M  V30 11 1 11 12
M  V30 12 2 12 13
M  V30 13 1 13 14
M  V30 14 2 14 15
M  V30 15 1 15 16
M  V30 16 2 16 17
M  V30 17 1 17 18
M  V30 18 1 13 19
M  V30 19 2 19 20
M  V30 20 1 8 3
M  V30 21 1 20 10
M  V30 22 1 20 5
M  V30 23 1 18 14
M  V30 24 1 4 21
M  V30 25 1 7 22
M  V30 26 1 9 23
M  V30 27 1 12 24
M  V30 28 1 16 25
M  V30 29 1 17 26
M  V30 30 1 18 27
M  V30 31 1 19 28
M  V30 END BOND
M  V30 END CTAB
M  END
>  <Dataset>  (32) 
ChEMBL_Kinases

>  <Ligand_Instance>  (32) 
nan

>  <PDB_ID>  (32) 
nan

>  <Standardized_SMILES>  (32) 
N#Cc1cc2c(cn1)[nH]c1ncc(-c3ncc[nH]3)cc12

>  <Name>  (32) 
nan

>  <Pocket>  (32) 
nan

>  <ATP_Site>  (32) 
nan

>  <Peripheral>  (32) 
nan

>  <Num_H_Atoms_ProtBoundConf>  (32) 
nan

>  <Num_Resolved_Atoms>  (32) 
nan

>  <Num_Not_Resolved_Atoms>  (32) 
nan

$$$$
CHEMBL3582197
     RDKit          3D

  0  0  0  0  0  0  0  0  0  0999 V3000
M  V30 BEGIN CTAB
M  V30 COUNTS 30 33 0 0 0
M  V30 BEGIN ATOM
M  V30 1 N 4.059193 -5.768195 1.127098 0
M  V30 2 C 3.996585 -4.627875 0.902289 0
M  V30 3 C 3.898647 -3.215529 0.625508 0
M  V30 4 C 2.646715 -2.614013 0.725431 0
M  V30 5 C 2.535514 -1.259614 0.463101 0
M  V30 6 C 3.618235 -0.485277 0.106814 0
M  V30 7 C 4.818044 -1.153801 0.030241 0
M  V30 8 N 4.949469 -2.467361 0.280418 0
M  V30 9 N 3.178447 0.782754 -0.078381 0
M  V30 10 C 1.852796 0.827801 0.150811 0
M  V30 11 N 0.934676 1.811418 0.111000 0
M  V30 12 C -0.378027 1.568520 0.397897 0
M  V30 13 C -0.846416 0.317899 0.742920 0
M  V30 14 C -2.268984 0.166637 1.030560 0
M  V30 15 C -2.827692 -1.043735 1.383527 0
M  V30 16 C -4.203306 -1.075266 1.637816 0
M  V30 17 C -4.988843 0.054751 1.543670 0
M  V30 18 C -4.370995 1.236673 1.185984 0
M  V30 19 N -3.029370 1.272812 0.936855 0
M  V30 20 C 0.077267 -0.698211 0.788499 0
M  V30 21 C 1.403421 -0.433452 0.494621 0
M  V30 22 H 1.743918 -3.173129 1.004469 0
M  V30 23 H 5.702076 -0.574559 -0.249616 0
M  V30 24 H 3.798122 1.558138 -0.351549 0
M  V30 25 H -1.020301 2.443074 0.331172 0
M  V30 26 H -2.230340 -1.924990 1.459691 0
M  V30 27 H -4.593824 -2.031741 1.907569 0
M  V30 28 H -6.060543 0.007936 1.746430 0
M  V30 29 H -4.941524 2.153974 1.097472 0
M  V30 30 H -0.250087 -1.672780 1.050585 0
M  V30 END ATOM
M  V30 BEGIN BOND
M  V30 1 3 1 2
M  V30 2 1 2 3
M  V30 3 2 3 4
M  V30 4 1 4 5
M  V30 5 2 5 6
M  V30 6 1 6 7
M  V30 7 2 7 8
M  V30 8 1 6 9
M  V30 9 1 9 10
M  V30 10 2 10 11
M  V30 11 1 11 12
M  V30 12 2 12 13
M  V30 13 1 13 14
M  V30 14 2 14 15
M  V30 15 1 15 16
M  V30 16 2 16 17
M  V30 17 1 17 18
M  V30 18 2 18 19
M  V30 19 1 13 20
M  V30 20 2 20 21
M  V30 21 1 8 3
M  V30 22 1 21 10
M  V30 23 1 21 5
M  V30 24 1 19 14
M  V30 25 1 4 22
M  V30 26 1 7 23
M  V30 27 1 9 24
M  V30 28 1 12 25
M  V30 29 1 15 26
M  V30 30 1 16 27
M  V30 31 1 17 28
M  V30 32 1 18 29
M  V30 33 1 20 30
M  V30 END BOND
M  V30 END CTAB
M  END
>  <Dataset>  (33) 
ChEMBL_Kinases

>  <Ligand_Instance>  (33) 
nan

>  <PDB_ID>  (33) 
nan

>  <Standardized_SMILES>  (33) 
N#Cc1cc2c(cn1)[nH]c1ncc(-c3ccccn3)cc12

>  <Name>  (33) 
nan

>  <Pocket>  (33) 
nan

>  <ATP_Site>  (33) 
nan

>  <Peripheral>  (33) 
nan

>  <Num_H_Atoms_ProtBoundConf>  (33) 
nan

>  <Num_Resolved_Atoms>  (33) 
nan

>  <Num_Not_Resolved_Atoms>  (33) 
nan

$$$$
CHEMBL3582198
     RDKit          3D

  0  0  0  0  0  0  0  0  0  0999 V3000
M  V30 BEGIN CTAB
M  V30 COUNTS 30 33 0 0 0
M  V30 BEGIN ATOM
M  V30 1 N 4.918021 -2.404951 4.674834 0
M  V30 2 C 4.622670 -1.979009 3.618766 0
M  V30 3 C 4.279323 -1.446845 2.333052 0
M  V30 4 C 2.937612 -1.290477 2.086251 0
M  V30 5 C 2.566494 -0.781257 0.860358 0
M  V30 6 C 3.462951 -0.423800 -0.122374 0
M  V30 7 C 4.794048 -0.611449 0.203085 0
M  V30 8 N 5.194415 -1.112226 1.404998 0
M  V30 9 N 2.783396 0.034345 -1.189236 0
M  V30 10 C 1.444648 -0.011162 -0.935072 0
M  V30 11 N 0.346670 0.329624 -1.666449 0
M  V30 12 C -0.892953 0.163486 -1.122919 0
M  V30 13 C -1.099509 -0.341191 0.153077 0
M  V30 14 C -2.450365 -0.496732 0.682647 0
M  V30 15 C -3.510043 -0.789689 -0.151009 0
M  V30 16 C -4.797632 -0.935354 0.372317 0
M  V30 17 C -4.855754 -0.758794 1.734456 0
M  V30 18 N -3.863642 -0.477327 2.567587 0
M  V30 19 C -2.602431 -0.333264 2.064698 0
M  V30 20 C 0.042891 -0.671580 0.853724 0
M  V30 21 C 1.314550 -0.519130 0.340864 0
M  V30 22 H 2.190777 -1.546532 2.801657 0
M  V30 23 H 5.534585 -0.340519 -0.547915 0
M  V30 24 H 3.221168 0.376150 -2.084683 0
M  V30 25 H -1.731325 0.449776 -1.745551 0
M  V30 26 H -3.375832 -0.913713 -1.222521 0
M  V30 27 H -5.665280 -1.160545 -0.202373 0
M  V30 28 H -5.806260 -0.844817 2.281086 0
M  V30 29 H -1.741244 -0.104874 2.671276 0
M  V30 30 H -0.059072 -1.075285 1.868271 0
M  V30 END ATOM
M  V30 BEGIN BOND
M  V30 1 3 1 2
M  V30 2 1 2 3
M  V30 3 2 3 4
M  V30 4 1 4 5
M  V30 5 2 5 6
M  V30 6 1 6 7
M  V30 7 2 7 8
M  V30 8 1 6 9
M  V30 9 1 9 10
M  V30 10 2 10 11
M  V30 11 1 11 12
M  V30 12 2 12 13
M  V30 13 1 13 14
M  V30 14 2 14 15
M  V30 15 1 15 16
M  V30 16 2 16 17
M  V30 17 1 17 18
M  V30 18 2 18 19
M  V30 19 1 13 20
M  V30 20 2 20 21
M  V30 21 1 8 3
M  V30 22 1 21 10
M  V30 23 1 21 5
M  V30 24 1 19 14
M  V30 25 1 4 22
M  V30 26 1 7 23
M  V30 27 1 9 24
M  V30 28 1 12 25
M  V30 29 1 15 26
M  V30 30 1 16 27
M  V30 31 1 17 28
M  V30 32 1 19 29
M  V30 33 1 20 30
M  V30 END BOND
M  V30 END CTAB
M  END
>  <Dataset>  (34) 
ChEMBL_Kinases

>  <Ligand_Instance>  (34) 
nan

>  <PDB_ID>  (34) 
nan

>  <Standardized_SMILES>  (34) 
N#Cc1cc2c(cn1)[nH]c1ncc(-c3cccnc3)cc12

>  <Name>  (34) 
nan

>  <Pocket>  (34) 
nan

>  <ATP_Site>  (34) 
nan

>  <Peripheral>  (34) 
nan

>  <Num_H_Atoms_ProtBoundConf>  (34) 
nan

>  <Num_Resolved_Atoms>  (34) 
nan

>  <Num_Not_Resolved_Atoms>  (34) 
nan

$$$$
CHEMBL3582199
     RDKit          3D

  0  0  0  0  0  0  0  0  0  0999 V3000
M  V30 BEGIN CTAB
M  V30 COUNTS 30 33 0 0 0
M  V30 BEGIN ATOM
M  V30 1 N 3.822519 -2.600821 5.535151 0
M  V30 2 C 3.765412 -2.061885 4.500342 0
M  V30 3 C 3.696070 -1.385406 3.224833 0
M  V30 4 C 2.419681 -1.297885 2.658561 0
M  V30 5 C 2.396915 -0.647441 1.437533 0
M  V30 6 C 3.502980 -0.123026 0.807885 0
M  V30 7 C 4.727691 -0.258102 1.448070 0
M  V30 8 N 4.810716 -0.889646 2.653201 0
M  V30 9 N 3.092696 0.416836 -0.342042 0
M  V30 10 C 1.761479 0.250414 -0.459813 0
M  V30 11 N 0.908572 0.630713 -1.456067 0
M  V30 12 C -0.409596 0.361483 -1.377050 0
M  V30 13 C -0.916381 -0.306250 -0.280970 0
M  V30 14 C -2.340858 -0.649948 -0.102682 0
M  V30 15 C -3.112943 -0.942390 -1.222435 0
M  V30 16 C -4.452942 -1.254794 -1.109774 0
M  V30 17 N -5.003762 -1.272091 0.108623 0
M  V30 18 C -4.292080 -0.996584 1.201332 0
M  V30 19 C -2.931963 -0.674191 1.147302 0
M  V30 20 C -0.096305 -0.723553 0.773338 0
M  V30 21 C 1.258156 -0.425765 0.651011 0
M  V30 22 H 1.554893 -1.708064 3.151080 0
M  V30 23 H 5.630710 0.139319 0.991454 0
M  V30 24 H 3.783576 0.870677 -0.974634 0
M  V30 25 H -1.127362 0.640926 -2.135991 0
M  V30 26 H -2.720023 -0.941562 -2.225198 0
M  V30 27 H -5.133607 -1.493740 -1.914772 0
M  V30 28 H -4.654716 -0.986602 2.241166 0
M  V30 29 H -2.332709 -0.448201 2.002598 0
M  V30 30 H -0.403942 -1.239564 1.650853 0
M  V30 END ATOM
M  V30 BEGIN BOND
M  V30 1 3 1 2
M  V30 2 1 2 3
M  V30 3 2 3 4
M  V30 4 1 4 5
M  V30 5 2 5 6
M  V30 6 1 6 7
M  V30 7 2 7 8
M  V30 8 1 6 9
M  V30 9 1 9 10
M  V30 10 2 10 11
M  V30 11 1 11 12
M  V30 12 2 12 13
M  V30 13 1 13 14
M  V30 14 2 14 15
M  V30 15 1 15 16
M  V30 16 2 16 17
M  V30 17 1 17 18
M  V30 18 2 18 19
M  V30 19 1 13 20
M  V30 20 2 20 21
M  V30 21 1 8 3
M  V30 22 1 21 10
M  V30 23 1 21 5
M  V30 24 1 19 14
M  V30 25 1 4 22
M  V30 26 1 7 23
M  V30 27 1 9 24
M  V30 28 1 12 25
M  V30 29 1 15 26
M  V30 30 1 16 27
M  V30 31 1 18 28
M  V30 32 1 19 29
M  V30 33 1 20 30
M  V30 END BOND
M  V30 END CTAB
M  END
>  <Dataset>  (35) 
ChEMBL_Kinases

>  <Ligand_Instance>  (35) 
nan

>  <PDB_ID>  (35) 
nan

>  <Standardized_SMILES>  (35) 
N#Cc1cc2c(cn1)[nH]c1ncc(-c3ccncc3)cc12

>  <Name>  (35) 
nan

>  <Pocket>  (35) 
nan

>  <ATP_Site>  (35) 
nan

>  <Peripheral>  (35) 
nan

>  <Num_H_Atoms_ProtBoundConf>  (35) 
nan

>  <Num_Resolved_Atoms>  (35) 
nan

>  <Num_Not_Resolved_Atoms>  (35) 
nan

$$$$
CHEMBL3582209
     RDKit          3D

  0  0  0  0  0  0  0  0  0  0999 V3000
M  V30 BEGIN CTAB
M  V30 COUNTS 49 53 0 0 0
M  V30 BEGIN ATOM
M  V30 1 N 7.337946 -4.951636 -1.040131 0
M  V30 2 C 6.817924 -4.054456 -1.556039 0
M  V30 3 C 6.176904 -2.945634 -2.217435 0
M  V30 4 C 5.043196 -2.342026 -1.700029 0
M  V30 5 C 4.461844 -1.281348 -2.368453 0
M  V30 6 C 5.007922 -0.811278 -3.563236 0
M  V30 7 C 6.146672 -1.448677 -4.044184 0
M  V30 8 N 6.697003 -2.492263 -3.362490 0
M  V30 9 N 4.217870 0.210668 -3.950320 0
M  V30 10 C 3.228715 0.380994 -3.056363 0
M  V30 11 N 2.224522 1.278590 -3.050128 0
M  V30 12 C 1.308857 1.300237 -2.054201 0
M  V30 13 C 1.374435 0.395154 -1.002602 0
M  V30 14 C 0.390629 0.400932 0.087353 0
M  V30 15 C -0.197896 1.582494 0.497316 0
M  V30 16 C -1.123691 1.548569 1.530257 0
M  V30 17 C -1.485821 0.357803 2.175647 0
M  V30 18 C -2.488113 0.474039 3.262394 0
M  V30 19 N -3.843268 0.352779 2.842010 0
M  V30 20 C -4.728319 0.509417 3.979692 0
M  V30 21 C -4.544237 -0.527719 5.043633 0
M  V30 22 C -4.380421 -1.917773 4.535759 0
M  V30 23 F -5.485834 -2.646555 4.962806 0
M  V30 24 C -4.195271 -2.087315 3.088210 0
M  V30 25 C -4.192791 -0.884799 2.223024 0
M  V30 26 C -0.874141 -0.797314 1.734745 0
M  V30 27 C 0.052160 -0.808485 0.710512 0
M  V30 28 C 2.408877 -0.520831 -1.019644 0
M  V30 29 C 3.342880 -0.543174 -2.035311 0
M  V30 30 H 4.632168 -2.722249 -0.767782 0
M  V30 31 H 6.528183 -1.041454 -4.976404 0
M  V30 32 H 4.438073 0.733448 -4.845960 0
M  V30 33 H 0.494073 2.032898 -2.054731 0
M  V30 34 H 0.088193 2.487088 -0.005305 0
M  V30 35 H -1.577402 2.494791 1.839543 0
M  V30 36 H -2.322848 1.439914 3.774228 0
M  V30 37 H -2.327921 -0.301100 4.053545 0
M  V30 38 H -4.517106 1.517344 4.389609 0
M  V30 39 H -5.801048 0.530230 3.646742 0
M  V30 40 H -3.658614 -0.199300 5.637254 0
M  V30 41 H -5.403486 -0.421951 5.739723 0
M  V30 42 H -3.530074 -2.382895 5.095527 0
M  V30 43 H -3.239019 -2.657208 2.882182 0
M  V30 44 H -4.971991 -2.798817 2.669891 0
M  V30 45 H -5.231750 -0.746921 1.800565 0
M  V30 46 H -3.579035 -1.095673 1.303993 0
M  V30 47 H -1.151034 -1.696736 2.227327 0
M  V30 48 H 0.495784 -1.743371 0.410629 0
M  V30 49 H 2.529203 -1.265883 -0.227771 0
M  V30 END ATOM
M  V30 BEGIN BOND
M  V30 1 3 1 2
M  V30 2 1 2 3
M  V30 3 2 3 4
M  V30 4 1 4 5
M  V30 5 2 5 6
M  V30 6 1 6 7
M  V30 7 2 7 8
M  V30 8 1 6 9
M  V30 9 1 9 10
M  V30 10 2 10 11
M  V30 11 1 11 12
M  V30 12 2 12 13
M  V30 13 1 13 14
M  V30 14 2 14 15
M  V30 15 1 15 16
M  V30 16 2 16 17
M  V30 17 1 17 18
M  V30 18 1 18 19
M  V30 19 1 19 20
M  V30 20 1 20 21
M  V30 21 1 21 22
M  V30 22 1 22 23
M  V30 23 1 22 24
M  V30 24 1 24 25
M  V30 25 1 17 26
M  V30 26 2 26 27
M  V30 27 1 13 28
M  V30 28 2 28 29
M  V30 29 1 8 3
M  V30 30 1 29 10
M  V30 31 1 29 5
M  V30 32 1 27 14
M  V30 33 1 25 19
M  V30 34 1 4 30
M  V30 35 1 7 31
M  V30 36 1 9 32
M  V30 37 1 12 33
M  V30 38 1 15 34
M  V30 39 1 16 35
M  V30 40 1 18 36
M  V30 41 1 18 37
M  V30 42 1 20 38
M  V30 43 1 20 39
M  V30 44 1 21 40
M  V30 45 1 21 41
M  V30 46 1 22 42
M  V30 47 1 24 43
M  V30 48 1 24 44
M  V30 49 1 25 45
M  V30 50 1 25 46
M  V30 51 1 26 47
M  V30 52 1 27 48
M  V30 53 1 28 49
M  V30 END BOND
M  V30 END CTAB
M  END
>  <Dataset>  (36) 
ChEMBL_Kinases

>  <Ligand_Instance>  (36) 
nan

>  <PDB_ID>  (36) 
nan

>  <Standardized_SMILES>  (36) 
N#Cc1cc2c(cn1)[nH]c1ncc(-c3ccc(CN4CCC(F)CC4)cc3)cc12

>  <Name>  (36) 
nan

>  <Pocket>  (36) 
nan

>  <ATP_Site>  (36) 
nan

>  <Peripheral>  (36) 
nan

>  <Num_H_Atoms_ProtBoundConf>  (36) 
nan

>  <Num_Resolved_Atoms>  (36) 
nan

>  <Num_Not_Resolved_Atoms>  (36) 
nan

$$$$
CHEMBL3582201
     RDKit          3D

  0  0  0  0  0  0  0  0  0  0999 V3000
M  V30 BEGIN CTAB
M  V30 COUNTS 49 53 0 0 0
M  V30 BEGIN ATOM
M  V30 1 N 4.769268 -7.194624 0.116314 0
M  V30 2 C 4.640950 -6.286454 -0.603699 0
M  V30 3 C 4.499210 -5.183702 -1.496761 0
M  V30 4 C 3.545405 -4.180803 -1.299066 0
M  V30 5 C 3.459489 -3.130039 -2.211205 0
M  V30 6 C 4.295773 -3.033273 -3.329726 0
M  V30 7 C 5.206874 -4.064964 -3.447377 0
M  V30 8 N 5.302108 -5.087270 -2.574237 0
M  V30 9 N 3.984991 -1.923635 -4.022180 0
M  V30 10 C 2.972302 -1.265256 -3.417866 0
M  V30 11 N 2.307870 -0.129681 -3.701945 0
M  V30 12 C 1.298758 0.321266 -2.901457 0
M  V30 13 C 0.968286 -0.423357 -1.776672 0
M  V30 14 C -0.116874 0.013976 -0.869176 0
M  V30 15 C -0.360829 1.379572 -0.698008 0
M  V30 16 C -1.389292 1.766537 0.163635 0
M  V30 17 C -2.153835 0.836362 0.835920 0
M  V30 18 C -3.261774 1.205980 1.763705 0
M  V30 19 N -2.834757 1.378941 3.113505 0
M  V30 20 C -3.937188 1.726588 3.952859 0
M  V30 21 C -3.447341 2.112122 5.328808 0
M  V30 22 C -2.543430 1.098985 5.961668 0
M  V30 23 C -1.522764 0.543564 5.008189 0
M  V30 24 C -2.135277 0.242954 3.661435 0
M  V30 25 C -1.916510 -0.532503 0.670738 0
M  V30 26 C -0.890036 -0.935166 -0.188722 0
M  V30 27 C 1.610057 -1.597233 -1.427576 0
M  V30 28 C 2.635331 -2.007462 -2.286921 0
M  V30 29 H 2.888140 -4.233078 -0.443538 0
M  V30 30 H 5.899076 -4.056250 -4.302303 0
M  V30 31 H 4.475158 -1.622969 -4.913143 0
M  V30 32 H 0.766314 1.235086 -3.132818 0
M  V30 33 H 0.237925 2.106413 -1.224504 0
M  V30 34 H -1.602882 2.824654 0.317444 0
M  V30 35 H -4.063511 0.419477 1.754710 0
M  V30 36 H -3.743184 2.174674 1.463528 0
M  V30 37 H -4.706482 0.922213 3.992228 0
M  V30 38 H -4.440142 2.618510 3.526007 0
M  V30 39 H -4.304277 2.293235 6.002074 0
M  V30 40 H -2.930503 3.102587 5.233202 0
M  V30 41 H -1.976187 1.637381 6.775956 0
M  V30 42 H -3.093778 0.273414 6.427606 0
M  V30 43 H -1.164677 -0.430863 5.424411 0
M  V30 44 H -0.625321 1.198205 4.915344 0
M  V30 45 H -1.334149 -0.150893 3.030906 0
M  V30 46 H -2.882149 -0.571718 3.807906 0
M  V30 47 H -2.479760 -1.317235 1.168960 0
M  V30 48 H -0.673654 -2.000174 -0.345673 0
M  V30 49 H 1.360178 -2.181548 -0.556885 0
M  V30 END ATOM
M  V30 BEGIN BOND
M  V30 1 3 1 2
M  V30 2 1 2 3
M  V30 3 2 3 4
M  V30 4 1 4 5
M  V30 5 2 5 6
M  V30 6 1 6 7
M  V30 7 2 7 8
M  V30 8 1 6 9
M  V30 9 1 9 10
M  V30 10 2 10 11
M  V30 11 1 11 12
M  V30 12 2 12 13
M  V30 13 1 13 14
M  V30 14 2 14 15
M  V30 15 1 15 16
M  V30 16 2 16 17
M  V30 17 1 17 18
M  V30 18 1 18 19
M  V30 19 1 19 20
M  V30 20 1 20 21
M  V30 21 1 21 22
M  V30 22 1 22 23
M  V30 23 1 23 24
M  V30 24 1 17 25
M  V30 25 2 25 26
M  V30 26 1 13 27
M  V30 27 2 27 28
M  V30 28 1 8 3
M  V30 29 1 28 10
M  V30 30 1 28 5
M  V30 31 1 26 14
M  V30 32 1 24 19
M  V30 33 1 4 29
M  V30 34 1 7 30
M  V30 35 1 9 31
M  V30 36 1 12 32
M  V30 37 1 15 33
M  V30 38 1 16 34
M  V30 39 1 18 35
M  V30 40 1 18 36
M  V30 41 1 20 37
M  V30 42 1 20 38
M  V30 43 1 21 39
M  V30 44 1 21 40
M  V30 45 1 22 41
M  V30 46 1 22 42
M  V30 47 1 23 43
M  V30 48 1 23 44
M  V30 49 1 24 45
M  V30 50 1 24 46
M  V30 51 1 25 47
M  V30 52 1 26 48
M  V30 53 1 27 49
M  V30 END BOND
M  V30 END CTAB
M  END
>  <Dataset>  (37) 
ChEMBL_Kinases

>  <Ligand_Instance>  (37) 
nan

>  <PDB_ID>  (37) 
nan

>  <Standardized_SMILES>  (37) 
N#Cc1cc2c(cn1)[nH]c1ncc(-c3ccc(CN4CCCCC4)cc3)cc12

>  <Name>  (37) 
nan

>  <Pocket>  (37) 
nan

>  <ATP_Site>  (37) 
nan

>  <Peripheral>  (37) 
nan

>  <Num_H_Atoms_ProtBoundConf>  (37) 
nan

>  <Num_Resolved_Atoms>  (37) 
nan

>  <Num_Not_Resolved_Atoms>  (37) 
nan

$$$$
CHEMBL3582202
     RDKit          3D

  0  0  0  0  0  0  0  0  0  0999 V3000
M  V30 BEGIN CTAB
M  V30 COUNTS 55 59 0 0 0
M  V30 BEGIN ATOM
M  V30 1 C 4.392044 1.167432 -2.202201 0
M  V30 2 C 4.727105 1.070450 -0.716569 0 CFG=2
M  V30 3 C 5.630258 -0.167423 -0.622038 0
M  V30 4 C 6.067360 -0.452011 0.772660 0
M  V30 5 C 5.185573 0.206689 1.781995 0
M  V30 6 C 3.738612 0.225833 1.328412 0 CFG=2
M  V30 7 C 3.228374 -1.187783 1.457149 0
M  V30 8 N 3.563090 0.778851 0.034483 0
M  V30 9 C 2.407849 1.572414 -0.184141 0
M  V30 10 C 1.134084 0.831657 0.026401 0
M  V30 11 C 0.619293 0.178096 -1.101880 0
M  V30 12 C -0.549718 -0.559530 -1.117592 0
M  V30 13 C -1.259957 -0.658507 0.063983 0
M  V30 14 C -2.499050 -1.432288 0.072098 0
M  V30 15 C -2.522788 -2.519237 -0.808775 0
M  V30 16 N -3.592582 -3.329375 -0.919061 0
M  V30 17 C -4.672419 -3.082841 -0.156013 0
M  V30 18 N -5.861483 -3.702789 -0.047918 0
M  V30 19 C -6.643918 -3.085718 0.865366 0
M  V30 20 C -7.909205 -3.265444 1.374698 0
M  V30 21 N -8.436839 -2.450612 2.318350 0
M  V30 22 C -7.716475 -1.400857 2.806948 0
M  V30 23 C -8.305830 -0.547601 3.815013 0
M  V30 24 N -8.773506 0.145833 4.616147 0
M  V30 25 C -6.445579 -1.191240 2.319124 0
M  V30 26 C -5.895209 -2.014389 1.356855 0
M  V30 27 C -4.664453 -2.009235 0.722033 0
M  V30 28 C -3.595709 -1.167307 0.859127 0
M  V30 29 C -0.776667 -0.024538 1.192771 0
M  V30 30 C 0.393869 0.707417 1.185809 0
M  V30 31 H 3.673198 0.398515 -2.516804 0
M  V30 32 H 4.064832 2.203837 -2.388048 0
M  V30 33 H 5.304241 1.023799 -2.820818 0
M  V30 34 H 5.325376 1.927754 -0.418071 0
M  V30 35 H 4.964412 -1.021123 -0.932812 0
M  V30 36 H 6.433279 -0.154355 -1.376431 0
M  V30 37 H 7.086034 -0.022955 0.896864 0
M  V30 38 H 6.056498 -1.551691 0.967626 0
M  V30 39 H 5.496069 1.261624 1.917550 0
M  V30 40 H 5.195549 -0.348082 2.752687 0
M  V30 41 H 3.174330 0.856501 2.062366 0
M  V30 42 H 2.804969 -1.450149 0.455144 0
M  V30 43 H 4.048813 -1.927363 1.615158 0
M  V30 44 H 2.480567 -1.329858 2.242711 0
M  V30 45 H 2.393923 2.003550 -1.201266 0
M  V30 46 H 2.416195 2.401863 0.583616 0
M  V30 47 H 1.154336 0.231971 -2.062201 0
M  V30 48 H -0.882864 -1.035552 -2.029547 0
M  V30 49 H -1.714638 -2.825688 -1.479950 0
M  V30 50 H -6.149640 -4.545419 -0.590640 0
M  V30 51 H -8.455685 -4.113119 0.961770 0
M  V30 52 H -5.843420 -0.366521 2.684388 0
M  V30 53 H -3.538364 -0.324469 1.522043 0
M  V30 54 H -1.321839 -0.090924 2.133072 0
M  V30 55 H 0.812787 1.220967 2.035607 0
M  V30 END ATOM
M  V30 BEGIN BOND
M  V30 1 1 1 2
M  V30 2 1 2 3
M  V30 3 1 3 4
M  V30 4 1 4 5
M  V30 5 1 5 6
M  V30 6 1 6 7
M  V30 7 1 6 8
M  V30 8 1 8 9
M  V30 9 1 9 10
M  V30 10 2 10 11
M  V30 11 1 11 12
M  V30 12 2 12 13
M  V30 13 1 13 14
M  V30 14 2 14 15
M  V30 15 1 15 16
M  V30 16 2 16 17
M  V30 17 1 17 18
M  V30 18 1 18 19
M  V30 19 2 19 20
M  V30 20 1 20 21
M  V30 21 2 21 22
M  V30 22 1 22 23
M  V30 23 3 23 24
M  V30 24 1 22 25
M  V30 25 2 25 26
M  V30 26 1 26 27
M  V30 27 2 27 28
M  V30 28 1 13 29
M  V30 29 2 29 30
M  V30 30 1 8 2
M  V30 31 1 30 10
M  V30 32 1 28 14
M  V30 33 1 27 17
M  V30 34 1 26 19
M  V30 35 1 1 31
M  V30 36 1 1 32
M  V30 37 1 1 33
M  V30 38 1 2 34 CFG=1
M  V30 39 1 3 35
M  V30 40 1 3 36
M  V30 41 1 4 37
M  V30 42 1 4 38
M  V30 43 1 5 39
M  V30 44 1 5 40
M  V30 45 1 6 41 CFG=1
M  V30 46 1 7 42
M  V30 47 1 7 43
M  V30 48 1 7 44
M  V30 49 1 9 45
M  V30 50 1 9 46
M  V30 51 1 11 47
M  V30 52 1 12 48
M  V30 53 1 15 49
M  V30 54 1 18 50
M  V30 55 1 20 51
M  V30 56 1 25 52
M  V30 57 1 28 53
M  V30 58 1 29 54
M  V30 59 1 30 55
M  V30 END BOND
M  V30 END CTAB
M  END
>  <Dataset>  (38) 
ChEMBL_Kinases

>  <Ligand_Instance>  (38) 
nan

>  <PDB_ID>  (38) 
nan

>  <Standardized_SMILES>  (38) 
C[C@@H]1CCC[C@H](C)N1Cc1ccc(-c2cnc3[nH]c4cnc(C#N)cc4c3c2)cc1

>  <Name>  (38) 
nan

>  <Pocket>  (38) 
nan

>  <ATP_Site>  (38) 
nan

>  <Peripheral>  (38) 
nan

>  <Num_H_Atoms_ProtBoundConf>  (38) 
nan

>  <Num_Resolved_Atoms>  (38) 
nan

>  <Num_Not_Resolved_Atoms>  (38) 
nan

$$$$
CHEMBL3582203
     RDKit          3D

  0  0  0  0  0  0  0  0  0  0999 V3000
M  V30 BEGIN CTAB
M  V30 COUNTS 55 59 0 0 0
M  V30 BEGIN ATOM
M  V30 1 C 3.351286 5.131149 -0.671394 0
M  V30 2 C 3.336210 4.183113 0.511846 0 CFG=2
M  V30 3 C 4.422977 3.183821 0.295976 0
M  V30 4 C 4.262255 1.968373 1.164778 0 CFG=2
M  V30 5 C 5.234805 0.900235 0.767111 0
M  V30 6 C 2.851900 1.424256 1.049290 0
M  V30 7 N 1.841570 2.350981 1.245884 0
M  V30 8 C 0.769888 2.157560 2.104775 0
M  V30 9 C -0.098352 0.989902 1.785614 0
M  V30 10 C -1.169295 1.198686 0.929582 0
M  V30 11 C -2.044463 0.194182 0.561399 0
M  V30 12 C -1.838828 -1.086639 1.075519 0
M  V30 13 C -2.818678 -2.074348 0.625975 0
M  V30 14 C -4.107814 -1.655568 0.368651 0
M  V30 15 N -5.111526 -2.472422 -0.056277 0
M  V30 16 C -4.874509 -3.787118 -0.251936 0
M  V30 17 N -5.686721 -4.772262 -0.659644 0
M  V30 18 C -4.930038 -5.880768 -0.678144 0
M  V30 19 C -5.173262 -7.197976 -1.001997 0
M  V30 20 N -4.248682 -8.178100 -0.951439 0
M  V30 21 C -2.997096 -7.904215 -0.567716 0
M  V30 22 C -2.052099 -8.981711 -0.530935 0
M  V30 23 N -1.298396 -9.869233 -0.501640 0
M  V30 24 C -2.653449 -6.602248 -0.220674 0
M  V30 25 C -3.619337 -5.619007 -0.281220 0
M  V30 26 C -3.589467 -4.263508 -0.006869 0
M  V30 27 C -2.580836 -3.420391 0.424325 0
M  V30 28 C -0.778288 -1.311496 1.928306 0
M  V30 29 C 0.077878 -0.286805 2.276745 0
M  V30 30 C 1.949855 3.582744 0.603729 0
M  V30 31 H 2.298948 5.475649 -0.864795 0
M  V30 32 H 3.613680 4.497836 -1.563341 0
M  V30 33 H 4.025652 5.980984 -0.559624 0
M  V30 34 H 3.550767 4.789365 1.432965 0
M  V30 35 H 5.395036 3.645051 0.562961 0
M  V30 36 H 4.514525 2.878308 -0.776877 0
M  V30 37 H 4.466545 2.228637 2.230017 0
M  V30 38 H 5.502375 0.946387 -0.313050 0
M  V30 39 H 4.864249 -0.087750 1.068963 0
M  V30 40 H 6.202739 1.119435 1.305597 0
M  V30 41 H 2.806299 0.505388 1.668381 0
M  V30 42 H 2.786125 1.045695 -0.013681 0
M  V30 43 H 0.112754 3.076394 2.070651 0
M  V30 44 H 1.010861 2.051683 3.184119 0
M  V30 45 H -1.326510 2.209607 0.527465 0
M  V30 46 H -2.851801 0.476192 -0.119170 0
M  V30 47 H -4.452526 -0.633839 0.478399 0
M  V30 48 H -6.679963 -4.668282 -0.900543 0
M  V30 49 H -6.202070 -7.413920 -1.316374 0
M  V30 50 H -1.638488 -6.388816 0.087415 0
M  V30 51 H -1.580302 -3.768236 0.619517 0
M  V30 52 H -0.669063 -2.315320 2.292017 0
M  V30 53 H 0.901719 -0.454353 2.937206 0
M  V30 54 H 1.517076 3.599278 -0.440555 0
M  V30 55 H 1.348964 4.362504 1.169966 0
M  V30 END ATOM
M  V30 BEGIN BOND
M  V30 1 1 1 2
M  V30 2 1 2 3
M  V30 3 1 3 4
M  V30 4 1 4 5
M  V30 5 1 4 6
M  V30 6 1 6 7
M  V30 7 1 7 8
M  V30 8 1 8 9
M  V30 9 2 9 10
M  V30 10 1 10 11
M  V30 11 2 11 12
M  V30 12 1 12 13
M  V30 13 2 13 14
M  V30 14 1 14 15
M  V30 15 2 15 16
M  V30 16 1 16 17
M  V30 17 1 17 18
M  V30 18 2 18 19
M  V30 19 1 19 20
M  V30 20 2 20 21
M  V30 21 1 21 22
M  V30 22 3 22 23
M  V30 23 1 21 24
M  V30 24 2 24 25
M  V30 25 1 25 26
M  V30 26 2 26 27
M  V30 27 1 12 28
M  V30 28 2 28 29
M  V30 29 1 7 30
M  V30 30 1 30 2
M  V30 31 1 29 9
M  V30 32 1 27 13
M  V30 33 1 26 16
M  V30 34 1 25 18
M  V30 35 1 1 31
M  V30 36 1 1 32
M  V30 37 1 1 33
M  V30 38 1 2 34 CFG=1
M  V30 39 1 3 35
M  V30 40 1 3 36
M  V30 41 1 4 37 CFG=1
M  V30 42 1 5 38
M  V30 43 1 5 39
M  V30 44 1 5 40
M  V30 45 1 6 41
M  V30 46 1 6 42
M  V30 47 1 8 43
M  V30 48 1 8 44
M  V30 49 1 10 45
M  V30 50 1 11 46
M  V30 51 1 14 47
M  V30 52 1 17 48
M  V30 53 1 19 49
M  V30 54 1 24 50
M  V30 55 1 27 51
M  V30 56 1 28 52
M  V30 57 1 29 53
M  V30 58 1 30 54
M  V30 59 1 30 55
M  V30 END BOND
M  V30 END CTAB
M  END
>  <Dataset>  (39) 
ChEMBL_Kinases

>  <Ligand_Instance>  (39) 
nan

>  <PDB_ID>  (39) 
nan

>  <Standardized_SMILES>  (39) 
C[C@@H]1C[C@H](C)CN(Cc2ccc(-c3cnc4[nH]c5cnc(C#N)cc5c4c3)cc2)C1

>  <Name>  (39) 
nan

>  <Pocket>  (39) 
nan

>  <ATP_Site>  (39) 
nan

>  <Peripheral>  (39) 
nan

>  <Num_H_Atoms_ProtBoundConf>  (39) 
nan

>  <Num_Resolved_Atoms>  (39) 
nan

>  <Num_Not_Resolved_Atoms>  (39) 
nan

$$$$
CHEMBL3582204
     RDKit          3D

  0  0  0  0  0  0  0  0  0  0999 V3000
M  V30 BEGIN CTAB
M  V30 COUNTS 55 59 0 0 0
M  V30 BEGIN ATOM
M  V30 1 C 2.630193 -0.813886 0.205172 0
M  V30 2 C 3.365336 0.521378 0.203219 0
M  V30 3 C 4.384600 0.497351 -0.932501 0
M  V30 4 C 4.065388 0.661825 1.532939 0
M  V30 5 C 4.635782 2.055584 1.715215 0
M  V30 6 C 3.636114 3.111777 1.291877 0
M  V30 7 N 2.387180 2.534162 1.051520 0
M  V30 8 C 1.331277 2.701053 1.948959 0
M  V30 9 C 0.130787 1.943716 1.472785 0
M  V30 10 C -0.856975 2.394491 0.645307 0
M  V30 11 C -1.917461 1.593093 0.281603 0
M  V30 12 C -2.009635 0.280301 0.757522 0
M  V30 13 C -3.116768 -0.602425 0.393971 0
M  V30 14 C -4.419872 -0.233781 0.125160 0
M  V30 15 N -5.337851 -1.162194 -0.198568 0
M  V30 16 C -5.040557 -2.470645 -0.275661 0
M  V30 17 N -5.766590 -3.577166 -0.573471 0
M  V30 18 C -4.985469 -4.663224 -0.509748 0
M  V30 19 C -5.159679 -6.025967 -0.704512 0
M  V30 20 N -4.159129 -6.933621 -0.567968 0
M  V30 21 C -2.909879 -6.522788 -0.223920 0
M  V30 22 C -1.803912 -7.426968 -0.061204 0
M  V30 23 N -0.916173 -8.167224 0.055056 0
M  V30 24 C -2.647718 -5.201640 -0.012895 0
M  V30 25 C -3.688250 -4.304818 -0.160242 0
M  V30 26 C -3.760340 -2.914963 -0.020789 0
M  V30 27 C -2.831003 -1.946780 0.310100 0
M  V30 28 C -1.015979 -0.184255 1.594572 0
M  V30 29 C 0.033746 0.633131 1.944648 0
M  V30 30 C 2.337471 1.604091 0.007924 0
M  V30 31 H 2.533543 -1.183635 1.241104 0
M  V30 32 H 1.573843 -0.685775 -0.168681 0
M  V30 33 H 3.108827 -1.546137 -0.458803 0
M  V30 34 H 4.817619 -0.518608 -1.031250 0
M  V30 35 H 5.220168 1.193352 -0.750069 0
M  V30 36 H 3.863138 0.690050 -1.891111 0
M  V30 37 H 3.423264 0.347288 2.367060 0
M  V30 38 H 4.932869 -0.032365 1.510507 0
M  V30 39 H 5.614569 2.146201 1.202297 0
M  V30 40 H 4.818949 2.190606 2.799172 0
M  V30 41 H 4.044635 3.520779 0.322771 0
M  V30 42 H 3.613908 3.972063 2.005238 0
M  V30 43 H 1.030173 3.775400 2.033794 0
M  V30 44 H 1.592253 2.351398 2.992243 0
M  V30 45 H -0.740466 3.414223 0.305235 0
M  V30 46 H -2.686758 1.975028 -0.375437 0
M  V30 47 H -4.621187 0.838782 0.198387 0
M  V30 48 H -6.785545 -3.595740 -0.818366 0
M  V30 49 H -6.159659 -6.353781 -0.979772 0
M  V30 50 H -1.688261 -4.790005 0.262179 0
M  V30 51 H -1.824371 -2.346508 0.504856 0
M  V30 52 H -1.043325 -1.185710 1.986280 0
M  V30 53 H 0.798609 0.218012 2.612539 0
M  V30 54 H 2.607882 2.098975 -0.979490 0
M  V30 55 H 1.305766 1.185564 -0.079503 0
M  V30 END ATOM
M  V30 BEGIN BOND
M  V30 1 1 1 2
M  V30 2 1 2 3
M  V30 3 1 2 4
M  V30 4 1 4 5
M  V30 5 1 5 6
M  V30 6 1 6 7
M  V30 7 1 7 8
M  V30 8 1 8 9
M  V30 9 2 9 10
M  V30 10 1 10 11
M  V30 11 2 11 12
M  V30 12 1 12 13
M  V30 13 2 13 14
M  V30 14 1 14 15
M  V30 15 2 15 16
M  V30 16 1 16 17
M  V30 17 1 17 18
M  V30 18 2 18 19
M  V30 19 1 19 20
M  V30 20 2 20 21
M  V30 21 1 21 22
M  V30 22 3 22 23
M  V30 23 1 21 24
M  V30 24 2 24 25
M  V30 25 1 25 26
M  V30 26 2 26 27
M  V30 27 1 12 28
M  V30 28 2 28 29
M  V30 29 1 7 30
M  V30 30 1 30 2
M  V30 31 1 29 9
M  V30 32 1 27 13
M  V30 33 1 26 16
M  V30 34 1 25 18
M  V30 35 1 1 31
M  V30 36 1 1 32
M  V30 37 1 1 33
M  V30 38 1 3 34
M  V30 39 1 3 35
M  V30 40 1 3 36
M  V30 41 1 4 37
M  V30 42 1 4 38
M  V30 43 1 5 39
M  V30 44 1 5 40
M  V30 45 1 6 41
M  V30 46 1 6 42
M  V30 47 1 8 43
M  V30 48 1 8 44
M  V30 49 1 10 45
M  V30 50 1 11 46
M  V30 51 1 14 47
M  V30 52 1 17 48
M  V30 53 1 19 49
M  V30 54 1 24 50
M  V30 55 1 27 51
M  V30 56 1 28 52
M  V30 57 1 29 53
M  V30 58 1 30 54
M  V30 59 1 30 55
M  V30 END BOND
M  V30 END CTAB
M  END
>  <Dataset>  (40) 
ChEMBL_Kinases

>  <Ligand_Instance>  (40) 
nan

>  <PDB_ID>  (40) 
nan

>  <Standardized_SMILES>  (40) 
CC1(C)CCCN(Cc2ccc(-c3cnc4[nH]c5cnc(C#N)cc5c4c3)cc2)C1

>  <Name>  (40) 
nan

>  <Pocket>  (40) 
nan

>  <ATP_Site>  (40) 
nan

>  <Peripheral>  (40) 
nan

>  <Num_H_Atoms_ProtBoundConf>  (40) 
nan

>  <Num_Resolved_Atoms>  (40) 
nan

>  <Num_Not_Resolved_Atoms>  (40) 
nan

$$$$
CHEMBL3582205
     RDKit          3D

  0  0  0  0  0  0  0  0  0  0999 V3000
M  V30 BEGIN CTAB
M  V30 COUNTS 55 59 0 0 0
M  V30 BEGIN ATOM
M  V30 1 C 2.476536 -0.614218 4.454350 0
M  V30 2 C 3.292677 -1.683114 3.758197 0
M  V30 3 C 3.561547 -2.821302 4.709544 0
M  V30 4 C 4.538966 -1.068651 3.193317 0
M  V30 5 C 4.264350 -0.511061 1.789748 0
M  V30 6 N 4.151331 -1.620377 0.881660 0
M  V30 7 C 3.652198 -1.273272 -0.402205 0
M  V30 8 C 2.313702 -0.695318 -0.458683 0
M  V30 9 C 1.961171 0.637043 -0.369649 0
M  V30 10 C 0.644484 1.045997 -0.441482 0
M  V30 11 C -0.389892 0.137713 -0.606789 0
M  V30 12 C -1.769898 0.603776 -0.676384 0
M  V30 13 C -2.126600 1.727890 0.042236 0
M  V30 14 N -3.378381 2.249479 0.050416 0
M  V30 15 C -4.368402 1.683276 -0.661893 0
M  V30 16 N -5.666500 1.950156 -0.855612 0
M  V30 17 C -6.236059 1.066424 -1.675968 0
M  V30 18 C -7.531161 0.928929 -2.167546 0
M  V30 19 N -7.802363 -0.105423 -3.010681 0
M  V30 20 C -6.820071 -0.978648 -3.357357 0
M  V30 21 C -7.111201 -2.083475 -4.260753 0
M  V30 22 N -7.322112 -2.957823 -4.979683 0
M  V30 23 C -5.524147 -0.876004 -2.890998 0
M  V30 24 C -5.226406 0.180194 -2.023873 0
M  V30 25 C -4.041507 0.543517 -1.401011 0
M  V30 26 C -2.768376 -0.003719 -1.421540 0
M  V30 27 C -0.075935 -1.203174 -0.699807 0
M  V30 28 C 1.247101 -1.590119 -0.625434 0
M  V30 29 C 3.477150 -2.722466 1.519002 0
M  V30 30 C 2.487998 -2.217075 2.570275 0
M  V30 31 H 1.394788 -0.904012 4.497061 0
M  V30 32 H 2.504397 0.336541 3.856618 0
M  V30 33 H 2.870133 -0.368704 5.451344 0
M  V30 34 H 3.828396 -3.759901 4.159418 0
M  V30 35 H 4.290821 -2.564991 5.488461 0
M  V30 36 H 2.599555 -3.068585 5.218043 0
M  V30 37 H 5.404807 -1.742561 3.164078 0
M  V30 38 H 4.813956 -0.204169 3.836784 0
M  V30 39 H 5.225180 0.013756 1.520002 0
M  V30 40 H 3.414531 0.169915 1.807789 0
M  V30 41 H 3.697186 -2.129737 -1.088773 0
M  V30 42 H 4.348246 -0.493097 -0.810928 0
M  V30 43 H 2.785521 1.328575 -0.240927 0
M  V30 44 H 0.393405 2.097211 -0.368656 0
M  V30 45 H -1.400951 2.264790 0.653623 0
M  V30 46 H -6.127645 2.767685 -0.393271 0
M  V30 47 H -8.280831 1.646705 -1.864656 0
M  V30 48 H -4.768606 -1.582453 -3.183150 0
M  V30 49 H -2.519400 -0.870788 -1.983643 0
M  V30 50 H -0.878639 -1.889917 -0.826195 0
M  V30 51 H 1.388960 -2.664835 -0.709210 0
M  V30 52 H 3.038870 -3.451651 0.842599 0
M  V30 53 H 4.266415 -3.265728 2.089639 0
M  V30 54 H 1.785972 -3.004573 2.845996 0
M  V30 55 H 1.959814 -1.329568 2.163804 0
M  V30 END ATOM
M  V30 BEGIN BOND
M  V30 1 1 1 2
M  V30 2 1 2 3
M  V30 3 1 2 4
M  V30 4 1 4 5
M  V30 5 1 5 6
M  V30 6 1 6 7
M  V30 7 1 7 8
M  V30 8 2 8 9
M  V30 9 1 9 10
M  V30 10 2 10 11
M  V30 11 1 11 12
M  V30 12 2 12 13
M  V30 13 1 13 14
M  V30 14 2 14 15
M  V30 15 1 15 16
M  V30 16 1 16 17
M  V30 17 2 17 18
M  V30 18 1 18 19
M  V30 19 2 19 20
M  V30 20 1 20 21
M  V30 21 3 21 22
M  V30 22 1 20 23
M  V30 23 2 23 24
M  V30 24 1 24 25
M  V30 25 2 25 26
M  V30 26 1 11 27
M  V30 27 2 27 28
M  V30 28 1 6 29
M  V30 29 1 29 30
M  V30 30 1 30 2
M  V30 31 1 28 8
M  V30 32 1 26 12
M  V30 33 1 25 15
M  V30 34 1 24 17
M  V30 35 1 1 31
M  V30 36 1 1 32
M  V30 37 1 1 33
M  V30 38 1 3 34
M  V30 39 1 3 35
M  V30 40 1 3 36
M  V30 41 1 4 37
M  V30 42 1 4 38
M  V30 43 1 5 39
M  V30 44 1 5 40
M  V30 45 1 7 41
M  V30 46 1 7 42
M  V30 47 1 9 43
M  V30 48 1 10 44
M  V30 49 1 13 45
M  V30 50 1 16 46
M  V30 51 1 18 47
M  V30 52 1 23 48
M  V30 53 1 26 49
M  V30 54 1 27 50
M  V30 55 1 28 51
M  V30 56 1 29 52
M  V30 57 1 29 53
M  V30 58 1 30 54
M  V30 59 1 30 55
M  V30 END BOND
M  V30 END CTAB
M  END
>  <Dataset>  (41) 
ChEMBL_Kinases

>  <Ligand_Instance>  (41) 
nan

>  <PDB_ID>  (41) 
nan

>  <Standardized_SMILES>  (41) 
CC1(C)CCN(Cc2ccc(-c3cnc4[nH]c5cnc(C#N)cc5c4c3)cc2)CC1

>  <Name>  (41) 
nan

>  <Pocket>  (41) 
nan

>  <ATP_Site>  (41) 
nan

>  <Peripheral>  (41) 
nan

>  <Num_H_Atoms_ProtBoundConf>  (41) 
nan

>  <Num_Resolved_Atoms>  (41) 
nan

>  <Num_Not_Resolved_Atoms>  (41) 
nan

$$$$
CHEMBL3582206
     RDKit          3D

  0  0  0  0  0  0  0  0  0  0999 V3000
M  V30 BEGIN CTAB
M  V30 COUNTS 55 59 0 0 0
M  V30 BEGIN ATOM
M  V30 1 C -1.737138 -3.588953 3.316590 0
M  V30 2 C -0.834456 -3.582121 2.106689 0
M  V30 3 C 0.334189 -4.507067 2.286215 0
M  V30 4 C -0.309389 -2.203499 1.926601 0
M  V30 5 C -0.904454 -1.200941 1.179561 0
M  V30 6 C -0.345793 0.053879 1.072029 0
M  V30 7 C 0.836250 0.381404 1.701701 0
M  V30 8 C 1.307465 1.747130 1.498896 0
M  V30 9 C 2.034902 2.452090 2.440079 0
M  V30 10 N 2.460182 3.714849 2.232212 0
M  V30 11 C 2.208380 4.390854 1.086500 0
M  V30 12 N 2.503788 5.619883 0.629484 0
M  V30 13 C 1.985149 5.731344 -0.588778 0
M  V30 14 C 2.011978 6.797043 -1.479963 0
M  V30 15 N 1.417172 6.719932 -2.694821 0
M  V30 16 C 0.790707 5.565225 -3.018338 0
M  V30 17 C 0.176218 5.535944 -4.317481 0
M  V30 18 N -0.331589 5.506366 -5.374245 0
M  V30 19 C 0.724861 4.483838 -2.197509 0
M  V30 20 C 1.334380 4.561668 -0.951429 0
M  V30 21 C 1.483197 3.700279 0.136940 0
M  V30 22 C 1.033363 2.409393 0.316765 0
M  V30 23 C 1.446452 -0.603037 2.451763 0
M  V30 24 C 0.884161 -1.860549 2.558209 0
M  V30 25 N -1.583955 -3.989296 0.943748 0
M  V30 26 C -2.263275 -5.248084 1.131141 0
M  V30 27 C -2.332933 -6.114815 -0.079705 0
M  V30 28 C -2.685951 -5.246208 -1.278532 0
M  V30 29 C -1.572397 -4.243252 -1.499319 0
M  V30 30 C -0.794643 -3.959197 -0.262052 0
M  V30 31 H -2.652582 -3.011169 3.154934 0
M  V30 32 H -2.049149 -4.621502 3.572248 0
M  V30 33 H -1.138622 -3.219267 4.193233 0
M  V30 34 H 0.565399 -4.626754 3.373303 0
M  V30 35 H 0.226289 -5.492524 1.799488 0
M  V30 36 H 1.257508 -4.025321 1.855007 0
M  V30 37 H -1.841207 -1.484965 0.689262 0
M  V30 38 H -0.937811 0.726862 0.448960 0
M  V30 39 H 2.255798 1.951534 3.361533 0
M  V30 40 H 3.051093 6.349824 1.158973 0
M  V30 41 H 2.518100 7.727858 -1.217704 0
M  V30 42 H 0.215307 3.551865 -2.466204 0
M  V30 43 H 0.475845 1.901644 -0.435399 0
M  V30 44 H 2.370438 -0.306001 2.929278 0
M  V30 45 H 1.473827 -2.515764 3.178821 0
M  V30 46 H -1.751224 -5.798159 1.942074 0
M  V30 47 H -3.305202 -5.096369 1.502481 0
M  V30 48 H -3.145934 -6.862072 0.085410 0
M  V30 49 H -1.402874 -6.637353 -0.327062 0
M  V30 50 H -2.817632 -5.931912 -2.140189 0
M  V30 51 H -3.664823 -4.745183 -1.120293 0
M  V30 52 H -1.925917 -3.345333 -2.041820 0
M  V30 53 H -0.857816 -4.760634 -2.204299 0
M  V30 54 H -0.284222 -2.989034 -0.350126 0
M  V30 55 H 0.033671 -4.705309 -0.107615 0
M  V30 END ATOM
M  V30 BEGIN BOND
M  V30 1 1 1 2
M  V30 2 1 2 3
M  V30 3 1 2 4
M  V30 4 2 4 5
M  V30 5 1 5 6
M  V30 6 2 6 7
M  V30 7 1 7 8
M  V30 8 2 8 9
M  V30 9 1 9 10
M  V30 10 2 10 11
M  V30 11 1 11 12
M  V30 12 1 12 13
M  V30 13 2 13 14
M  V30 14 1 14 15
M  V30 15 2 15 16
M  V30 16 1 16 17
M  V30 17 3 17 18
M  V30 18 1 16 19
M  V30 19 2 19 20
M  V30 20 1 20 21
M  V30 21 2 21 22
M  V30 22 1 7 23
M  V30 23 2 23 24
M  V30 24 1 2 25
M  V30 25 1 25 26
M  V30 26 1 26 27
M  V30 27 1 27 28
M  V30 28 1 28 29
M  V30 29 1 29 30
M  V30 30 1 24 4
M  V30 31 1 30 25
M  V30 32 1 22 8
M  V30 33 1 21 11
M  V30 34 1 20 13
M  V30 35 1 1 31
M  V30 36 1 1 32
M  V30 37 1 1 33
M  V30 38 1 3 34
M  V30 39 1 3 35
M  V30 40 1 3 36
M  V30 41 1 5 37
M  V30 42 1 6 38
M  V30 43 1 9 39
M  V30 44 1 12 40
M  V30 45 1 14 41
M  V30 46 1 19 42
M  V30 47 1 22 43
M  V30 48 1 23 44
M  V30 49 1 24 45
M  V30 50 1 26 46
M  V30 51 1 26 47
M  V30 52 1 27 48
M  V30 53 1 27 49
M  V30 54 1 28 50
M  V30 55 1 28 51
M  V30 56 1 29 52
M  V30 57 1 29 53
M  V30 58 1 30 54
M  V30 59 1 30 55
M  V30 END BOND
M  V30 END CTAB
M  END
>  <Dataset>  (42) 
ChEMBL_Kinases

>  <Ligand_Instance>  (42) 
nan

>  <PDB_ID>  (42) 
nan

>  <Standardized_SMILES>  (42) 
CC(C)(c1ccc(-c2cnc3[nH]c4cnc(C#N)cc4c3c2)cc1)N1CCCCC1

>  <Name>  (42) 
nan

>  <Pocket>  (42) 
nan

>  <ATP_Site>  (42) 
nan

>  <Peripheral>  (42) 
nan

>  <Num_H_Atoms_ProtBoundConf>  (42) 
nan

>  <Num_Resolved_Atoms>  (42) 
nan

>  <Num_Not_Resolved_Atoms>  (42) 
nan

$$$$
CHEMBL3582207
     RDKit          3D

  0  0  0  0  0  0  0  0  0  0999 V3000
M  V30 BEGIN CTAB
M  V30 COUNTS 50 54 0 0 0
M  V30 BEGIN ATOM
M  V30 1 N 8.524427 -4.234975 1.192864 0
M  V30 2 C 7.893314 -3.745976 0.351976 0
M  V30 3 C 7.123353 -3.135604 -0.696889 0
M  V30 4 C 5.795436 -2.766174 -0.501611 0
M  V30 5 C 5.129944 -2.185690 -1.566120 0
M  V30 6 C 5.684564 -1.944809 -2.809644 0
M  V30 7 C 7.001091 -2.341588 -2.913195 0
M  V30 8 N 7.691946 -2.910974 -1.905705 0
M  V30 9 N 4.773434 -1.373459 -3.612510 0
M  V30 10 C 3.611914 -1.231897 -2.909563 0
M  V30 11 N 2.437132 -0.708419 -3.320450 0
M  V30 12 C 1.391924 -0.664829 -2.444370 0
M  V30 13 C 1.526626 -1.147993 -1.153073 0
M  V30 14 C 0.455711 -1.139166 -0.161455 0
M  V30 15 C 0.599309 -1.016844 1.205988 0
M  V30 16 C -0.516835 -1.028442 2.034276 0
M  V30 17 C -1.780778 -1.166706 1.445623 0
M  V30 18 C -2.974234 -1.180706 2.329505 0
M  V30 19 N -3.572658 0.054704 2.592494 0
M  V30 20 C -2.827515 1.066826 3.216536 0
M  V30 21 C -3.635668 2.243839 3.688146 0
M  V30 22 C -4.762232 2.603505 2.751619 0
M  V30 23 O -5.604875 3.476850 3.467117 0
M  V30 24 C -5.583188 1.435641 2.313989 0
M  V30 25 C -4.984057 0.107253 2.709194 0
M  V30 26 C -1.924204 -1.289096 0.076379 0
M  V30 27 C -0.796836 -1.276115 -0.744327 0
M  V30 28 C 2.748586 -1.682243 -0.755586 0
M  V30 29 C 3.812385 -1.731235 -1.633427 0
M  V30 30 H 5.305107 -2.929848 0.453393 0
M  V30 31 H 7.493304 -2.172854 -3.884184 0
M  V30 32 H 5.011252 -1.112920 -4.608550 0
M  V30 33 H 0.418072 -0.258303 -2.703411 0
M  V30 34 H 1.615184 -0.915383 1.565758 0
M  V30 35 H -0.353848 -0.929630 3.105157 0
M  V30 36 H -3.774125 -1.864690 1.920414 0
M  V30 37 H -2.733216 -1.664505 3.322834 0
M  V30 38 H -2.286892 0.658315 4.095040 0
M  V30 39 H -2.014023 1.389297 2.504135 0
M  V30 40 H -3.979274 2.175249 4.734048 0
M  V30 41 H -2.931152 3.124132 3.677925 0
M  V30 42 H -4.331737 3.140779 1.881703 0
M  V30 43 H -5.711441 4.339640 2.979566 0
M  V30 44 H -6.630198 1.501556 2.661171 0
M  V30 45 H -5.664762 1.428618 1.189093 0
M  V30 46 H -5.422933 -0.727599 2.125201 0
M  V30 47 H -5.252049 -0.076142 3.770779 0
M  V30 48 H -2.940278 -1.393273 -0.312875 0
M  V30 49 H -1.023284 -1.378861 -1.795909 0
M  V30 50 H 2.869799 -2.060695 0.240198 0
M  V30 END ATOM
M  V30 BEGIN BOND
M  V30 1 3 1 2
M  V30 2 1 2 3
M  V30 3 2 3 4
M  V30 4 1 4 5
M  V30 5 2 5 6
M  V30 6 1 6 7
M  V30 7 2 7 8
M  V30 8 1 6 9
M  V30 9 1 9 10
M  V30 10 2 10 11
M  V30 11 1 11 12
M  V30 12 2 12 13
M  V30 13 1 13 14
M  V30 14 2 14 15
M  V30 15 1 15 16
M  V30 16 2 16 17
M  V30 17 1 17 18
M  V30 18 1 18 19
M  V30 19 1 19 20
M  V30 20 1 20 21
M  V30 21 1 21 22
M  V30 22 1 22 23
M  V30 23 1 22 24
M  V30 24 1 24 25
M  V30 25 1 17 26
M  V30 26 2 26 27
M  V30 27 1 13 28
M  V30 28 2 28 29
M  V30 29 1 8 3
M  V30 30 1 29 10
M  V30 31 1 29 5
M  V30 32 1 27 14
M  V30 33 1 25 19
M  V30 34 1 4 30
M  V30 35 1 7 31
M  V30 36 1 9 32
M  V30 37 1 12 33
M  V30 38 1 15 34
M  V30 39 1 16 35
M  V30 40 1 18 36
M  V30 41 1 18 37
M  V30 42 1 20 38
M  V30 43 1 20 39
M  V30 44 1 21 40
M  V30 45 1 21 41
M  V30 46 1 22 42
M  V30 47 1 23 43
M  V30 48 1 24 44
M  V30 49 1 24 45
M  V30 50 1 25 46
M  V30 51 1 25 47
M  V30 52 1 26 48
M  V30 53 1 27 49
M  V30 54 1 28 50
M  V30 END BOND
M  V30 END CTAB
M  END
>  <Dataset>  (43) 
ChEMBL_Kinases

>  <Ligand_Instance>  (43) 
nan

>  <PDB_ID>  (43) 
nan

>  <Standardized_SMILES>  (43) 
N#Cc1cc2c(cn1)[nH]c1ncc(-c3ccc(CN4CCC(O)CC4)cc3)cc12

>  <Name>  (43) 
nan

>  <Pocket>  (43) 
nan

>  <ATP_Site>  (43) 
nan

>  <Peripheral>  (43) 
nan

>  <Num_H_Atoms_ProtBoundConf>  (43) 
nan

>  <Num_Resolved_Atoms>  (43) 
nan

>  <Num_Not_Resolved_Atoms>  (43) 
nan

$$$$
CHEMBL3582208
     RDKit          3D

  0  0  0  0  0  0  0  0  0  0999 V3000
M  V30 BEGIN CTAB
M  V30 COUNTS 50 54 0 0 0
M  V30 BEGIN ATOM
M  V30 1 N 7.711943 -3.859193 1.914188 0
M  V30 2 C 7.344118 -3.058219 1.142722 0
M  V30 3 C 6.882172 -2.094285 0.183734 0
M  V30 4 C 5.587283 -1.609448 0.233123 0
M  V30 5 C 5.241308 -0.681054 -0.739786 0
M  V30 6 C 6.109840 -0.227158 -1.734709 0
M  V30 7 C 7.394141 -0.761622 -1.717609 0
M  V30 8 N 7.714222 -1.655150 -0.774719 0
M  V30 9 N 5.433686 0.669043 -2.502558 0
M  V30 10 C 4.177148 0.792395 -2.026026 0
M  V30 11 N 3.214816 1.588243 -2.526792 0
M  V30 12 C 1.993742 1.592278 -1.920783 0
M  V30 13 C 1.802982 0.778718 -0.821211 0
M  V30 14 C 0.469082 0.807342 -0.188716 0
M  V30 15 C 0.406096 0.584338 1.173621 0
M  V30 16 C -0.821624 0.602627 1.804194 0
M  V30 17 C -1.992936 0.837678 1.113313 0
M  V30 18 C -3.358602 0.879376 1.684140 0
M  V30 19 N -3.932624 -0.441096 1.636000 0
M  V30 20 C -5.270171 -0.388950 2.198830 0
M  V30 21 C -6.023236 -1.666449 1.989230 0
M  V30 22 C -5.000837 -2.743809 1.667228 0
M  V30 23 C -3.834474 -2.672468 2.647676 0 CFG=1
M  V30 24 O -2.955164 -3.677128 2.255973 0
M  V30 25 C -3.151503 -1.336615 2.466506 0
M  V30 26 C -1.927589 1.061994 -0.258345 0
M  V30 27 C -0.697152 1.045701 -0.902327 0
M  V30 28 C 2.797870 -0.039359 -0.309261 0
M  V30 29 C 4.033969 -0.037317 -0.930235 0
M  V30 30 H 4.882036 -1.927352 0.978249 0
M  V30 31 H 8.092252 -0.431495 -2.474418 0
M  V30 32 H 5.930272 1.108142 -3.293062 0
M  V30 33 H 1.171438 2.211943 -2.274232 0
M  V30 34 H 1.296181 0.390691 1.787551 0
M  V30 35 H -0.918505 0.434334 2.864686 0
M  V30 36 H -3.337663 1.155307 2.775961 0
M  V30 37 H -3.990916 1.640293 1.186423 0
M  V30 38 H -5.118422 -0.278347 3.306750 0
M  V30 39 H -5.839272 0.507244 1.860471 0
M  V30 40 H -6.687764 -1.583961 1.105995 0
M  V30 41 H -6.565295 -1.983920 2.914776 0
M  V30 42 H -4.554987 -2.452115 0.673589 0
M  V30 43 H -5.434867 -3.749160 1.612585 0
M  V30 44 H -4.191991 -2.835673 3.702179 0
M  V30 45 H -3.286838 -4.582947 2.423980 0
M  V30 46 H -2.119041 -1.477250 2.054918 0
M  V30 47 H -3.021114 -0.868382 3.466450 0
M  V30 48 H -2.813790 1.252807 -0.858072 0
M  V30 49 H -0.578387 1.210679 -1.954320 0
M  V30 50 H 2.639689 -0.672686 0.551405 0
M  V30 END ATOM
M  V30 BEGIN BOND
M  V30 1 3 1 2
M  V30 2 1 2 3
M  V30 3 2 3 4
M  V30 4 1 4 5
M  V30 5 2 5 6
M  V30 6 1 6 7
M  V30 7 2 7 8
M  V30 8 1 6 9
M  V30 9 1 9 10
M  V30 10 2 10 11
M  V30 11 1 11 12
M  V30 12 2 12 13
M  V30 13 1 13 14
M  V30 14 2 14 15
M  V30 15 1 15 16
M  V30 16 2 16 17
M  V30 17 1 17 18
M  V30 18 1 18 19
M  V30 19 1 19 20
M  V30 20 1 20 21
M  V30 21 1 21 22
M  V30 22 1 22 23
M  V30 23 1 23 24
M  V30 24 1 23 25
M  V30 25 1 17 26
M  V30 26 2 26 27
M  V30 27 1 13 28
M  V30 28 2 28 29
M  V30 29 1 8 3
M  V30 30 1 29 10
M  V30 31 1 29 5
M  V30 32 1 27 14
M  V30 33 1 25 19
M  V30 34 1 4 30
M  V30 35 1 7 31
M  V30 36 1 9 32
M  V30 37 1 12 33
M  V30 38 1 15 34
M  V30 39 1 16 35
M  V30 40 1 18 36
M  V30 41 1 18 37
M  V30 42 1 20 38
M  V30 43 1 20 39
M  V30 44 1 21 40
M  V30 45 1 21 41
M  V30 46 1 22 42
M  V30 47 1 22 43
M  V30 48 1 23 44 CFG=1
M  V30 49 1 24 45
M  V30 50 1 25 46
M  V30 51 1 25 47
M  V30 52 1 26 48
M  V30 53 1 27 49
M  V30 54 1 28 50
M  V30 END BOND
M  V30 END CTAB
M  END
>  <Dataset>  (44) 
ChEMBL_Kinases

>  <Ligand_Instance>  (44) 
nan

>  <PDB_ID>  (44) 
nan

>  <Standardized_SMILES>  (44) 
N#Cc1cc2c(cn1)[nH]c1ncc(-c3ccc(CN4CCC[C@@H](O)C4)cc3)cc12

>  <Name>  (44) 
nan

>  <Pocket>  (44) 
nan

>  <ATP_Site>  (44) 
nan

>  <Peripheral>  (44) 
nan

>  <Num_H_Atoms_ProtBoundConf>  (44) 
nan

>  <Num_Resolved_Atoms>  (44) 
nan

>  <Num_Not_Resolved_Atoms>  (44) 
nan

$$$$
CHEMBL3582200
     RDKit          3D

  0  0  0  0  0  0  0  0  0  0999 V3000
M  V30 BEGIN CTAB
M  V30 COUNTS 48 52 0 0 0
M  V30 BEGIN ATOM
M  V30 1 C -1.633623 -5.896662 0.326363 0
M  V30 2 N -0.663456 -4.830725 0.148444 0
M  V30 3 C -0.494711 -4.222810 1.461453 0
M  V30 4 C 0.664678 -3.271083 1.536491 0
M  V30 5 N 1.403974 -3.151868 0.293410 0
M  V30 6 C 1.730998 -1.958992 -0.413796 0
M  V30 7 C 2.424337 -1.954867 -1.603661 0
M  V30 8 C 2.721699 -0.778880 -2.256365 0
M  V30 9 C 2.347172 0.453863 -1.763319 0
M  V30 10 C 1.654797 0.450443 -0.575137 0
M  V30 11 C 1.259851 1.758270 -0.055912 0
M  V30 12 C 1.988926 2.914521 -0.244759 0
M  V30 13 N 1.547184 4.075814 0.271918 0
M  V30 14 C 0.401535 4.180990 0.983996 0
M  V30 15 N -0.269160 5.178266 1.603312 0
M  V30 16 C -1.391233 4.707786 2.177017 0
M  V30 17 C -2.431338 5.251728 2.920742 0
M  V30 18 N -3.465460 4.502882 3.381450 0
M  V30 19 C -3.551062 3.184556 3.148006 0
M  V30 20 C -4.625468 2.347935 3.613919 0
M  V30 21 N -5.497688 1.690586 3.990812 0
M  V30 22 C -2.557064 2.587327 2.420439 0
M  V30 23 C -1.502623 3.341126 1.948634 0
M  V30 24 C -0.373410 3.040197 1.203819 0
M  V30 25 C 0.093712 1.856558 0.666973 0
M  V30 26 C 1.361982 -0.732963 0.070625 0
M  V30 27 C 1.753725 -4.478519 -0.101425 0
M  V30 28 C 0.595971 -5.434666 -0.190340 0
M  V30 29 H -1.084057 -6.763650 0.750605 0
M  V30 30 H -2.412572 -5.617964 1.081381 0
M  V30 31 H -2.087366 -6.244233 -0.621282 0
M  V30 32 H -1.426654 -3.646298 1.630051 0
M  V30 33 H -0.421095 -5.060887 2.199839 0
M  V30 34 H 0.318770 -2.285574 1.922693 0
M  V30 35 H 1.379877 -3.708369 2.289083 0
M  V30 36 H 2.753314 -2.872565 -2.056833 0
M  V30 37 H 3.263069 -0.804963 -3.181848 0
M  V30 38 H 2.590423 1.360422 -2.290512 0
M  V30 39 H 2.912053 2.860644 -0.812037 0
M  V30 40 H 0.048470 6.185033 1.629642 0
M  V30 41 H -2.410919 6.313946 3.138107 0
M  V30 42 H -2.506906 1.529029 2.161371 0
M  V30 43 H -0.498809 0.962266 0.830082 0
M  V30 44 H 0.822677 -0.583417 0.978435 0
M  V30 45 H 2.426928 -4.902873 0.703243 0
M  V30 46 H 2.364240 -4.554671 -1.017406 0
M  V30 47 H 0.506305 -5.798704 -1.234169 0
M  V30 48 H 0.712030 -6.345198 0.431174 0
M  V30 END ATOM
M  V30 BEGIN BOND
M  V30 1 1 1 2
M  V30 2 1 2 3
M  V30 3 1 3 4
M  V30 4 1 4 5
M  V30 5 1 5 6
M  V30 6 2 6 7
M  V30 7 1 7 8
M  V30 8 2 8 9
M  V30 9 1 9 10
M  V30 10 1 10 11
M  V30 11 2 11 12
M  V30 12 1 12 13
M  V30 13 2 13 14
M  V30 14 1 14 15
M  V30 15 1 15 16
M  V30 16 2 16 17
M  V30 17 1 17 18
M  V30 18 2 18 19
M  V30 19 1 19 20
M  V30 20 3 20 21
M  V30 21 1 19 22
M  V30 22 2 22 23
M  V30 23 1 23 24
M  V30 24 2 24 25
M  V30 25 2 10 26
M  V30 26 1 5 27
M  V30 27 1 27 28
M  V30 28 1 28 2
M  V30 29 1 26 6
M  V30 30 1 25 11
M  V30 31 1 24 14
M  V30 32 1 23 16
M  V30 33 1 1 29
M  V30 34 1 1 30
M  V30 35 1 1 31
M  V30 36 1 3 32
M  V30 37 1 3 33
M  V30 38 1 4 34
M  V30 39 1 4 35
M  V30 40 1 7 36
M  V30 41 1 8 37
M  V30 42 1 9 38
M  V30 43 1 12 39
M  V30 44 1 15 40
M  V30 45 1 17 41
M  V30 46 1 22 42
M  V30 47 1 25 43
M  V30 48 1 26 44
M  V30 49 1 27 45
M  V30 50 1 27 46
M  V30 51 1 28 47
M  V30 52 1 28 48
M  V30 END BOND
M  V30 END CTAB
M  END
>  <Dataset>  (45) 
ChEMBL_Kinases

>  <Ligand_Instance>  (45) 
nan

>  <PDB_ID>  (45) 
nan

>  <Standardized_SMILES>  (45) 
CN1CCN(c2cccc(-c3cnc4[nH]c5cnc(C#N)cc5c4c3)c2)CC1

>  <Name>  (45) 
nan

>  <Pocket>  (45) 
nan

>  <ATP_Site>  (45) 
nan

>  <Peripheral>  (45) 
nan

>  <Num_H_Atoms_ProtBoundConf>  (45) 
nan

>  <Num_Resolved_Atoms>  (45) 
nan

>  <Num_Not_Resolved_Atoms>  (45) 
nan

$$$$
CHEMBL360866
     RDKit          3D

  0  0  0  0  0  0  0  0  0  0999 V3000
M  V30 BEGIN CTAB
M  V30 COUNTS 37 40 0 0 0
M  V30 BEGIN ATOM
M  V30 1 C -0.638200 -3.726383 -1.254586 0
M  V30 2 N 0.052409 -2.536157 -0.826611 0
M  V30 3 C 1.226214 -2.636507 -0.026609 0
M  V30 4 C 1.729952 -3.864471 0.342261 0
M  V30 5 C 2.867002 -3.998190 1.113083 0
M  V30 6 C 3.550025 -2.889748 1.548921 0
M  V30 7 C 3.090066 -1.606031 1.207163 0
M  V30 8 C 1.946979 -1.581954 0.434818 0
M  V30 9 C -0.428603 -1.244709 -1.235459 0
M  V30 10 N -0.839282 -0.988328 -2.495166 0
M  V30 11 C -1.271046 0.259874 -2.803661 0
M  V30 12 C -1.313890 1.291402 -1.886965 0
M  V30 13 C -0.895163 1.023033 -0.601825 0
M  V30 14 C -0.880923 1.972037 0.526270 0
M  V30 15 C -1.150812 3.308865 0.352236 0
M  V30 16 N -1.066700 3.824269 1.609846 0
M  V30 17 N -0.763330 2.847847 2.478104 0
M  V30 18 N -0.593311 2.926584 3.815095 0
M  V30 19 C -0.299060 1.778844 4.464204 0
M  V30 20 C -0.157791 0.542739 3.882165 0
M  V30 21 C -0.337411 0.483618 2.488050 0
M  V30 22 C -0.637210 1.666359 1.847347 0
M  V30 23 N -0.484905 -0.223065 -0.376441 0
M  V30 24 H -0.661469 -4.491218 -0.437234 0
M  V30 25 H -1.727061 -3.540570 -1.481026 0
M  V30 26 H -0.123323 -4.146539 -2.133714 0
M  V30 27 H 1.274628 -4.803675 0.051532 0
M  V30 28 H 3.319614 -4.937092 1.436997 0
M  V30 29 H 4.462069 -2.948137 2.159244 0
M  V30 30 H 3.613404 -0.707458 1.538727 0
M  V30 31 H 1.664270 -0.563370 0.208597 0
M  V30 32 H -1.597147 0.468023 -3.813898 0
M  V30 33 H -1.650674 2.305198 -2.081452 0
M  V30 34 H -1.383178 3.935285 -0.487392 0
M  V30 35 H -0.134255 1.692685 5.551879 0
M  V30 36 H 0.077710 -0.391652 4.367129 0
M  V30 37 H -0.241949 -0.457831 1.961341 0
M  V30 END ATOM
M  V30 BEGIN BOND
M  V30 1 1 1 2
M  V30 2 1 2 3
M  V30 3 2 3 4
M  V30 4 1 4 5
M  V30 5 2 5 6
M  V30 6 1 6 7
M  V30 7 2 7 8
M  V30 8 1 2 9
M  V30 9 2 9 10
M  V30 10 1 10 11
M  V30 11 2 11 12
M  V30 12 1 12 13
M  V30 13 1 13 14
M  V30 14 1 14 15
M  V30 15 2 15 16
M  V30 16 1 16 17
M  V30 17 1 17 18
M  V30 18 2 18 19
M  V30 19 1 19 20
M  V30 20 2 20 21
M  V30 21 1 21 22
M  V30 22 2 13 23
M  V30 23 1 8 3
M  V30 24 1 23 9
M  V30 25 2 22 14
M  V30 26 1 22 17
M  V30 27 1 1 24
M  V30 28 1 1 25
M  V30 29 1 1 26
M  V30 30 1 4 27
M  V30 31 1 5 28
M  V30 32 1 6 29
M  V30 33 1 7 30
M  V30 34 1 8 31
M  V30 35 1 11 32
M  V30 36 1 12 33
M  V30 37 1 15 34
M  V30 38 1 19 35
M  V30 39 1 20 36
M  V30 40 1 21 37
M  V30 END BOND
M  V30 END CTAB
M  END
>  <Dataset>  (46) 
ChEMBL_Kinases

>  <Ligand_Instance>  (46) 
nan

>  <PDB_ID>  (46) 
nan

>  <Standardized_SMILES>  (46) 
CN(c1ccccc1)c1nccc(-c2cnn3ncccc23)n1

>  <Name>  (46) 
nan

>  <Pocket>  (46) 
nan

>  <ATP_Site>  (46) 
nan

>  <Peripheral>  (46) 
nan

>  <Num_H_Atoms_ProtBoundConf>  (46) 
nan

>  <Num_Resolved_Atoms>  (46) 
nan

>  <Num_Not_Resolved_Atoms>  (46) 
nan

$$$$
CHEMBL3608591
     RDKit          3D

  0  0  0  0  0  0  0  0  0  0999 V3000
M  V30 BEGIN CTAB
M  V30 COUNTS 59 63 0 0 0
M  V30 BEGIN ATOM
M  V30 1 O -0.208623 -4.782378 -0.133582 0
M  V30 2 C -0.842743 -3.737364 0.048347 0
M  V30 3 C -0.099563 -2.603627 0.596242 0
M  V30 4 C 1.220095 -2.449353 0.970923 0
M  V30 5 C 1.306320 -1.145380 1.413350 0
M  V30 6 C 2.516224 -0.473590 1.928207 0
M  V30 7 C 3.713233 -1.147211 2.005304 0
M  V30 8 C 4.832407 -0.480258 2.496259 0
M  V30 9 N 4.725130 0.813495 2.887746 0
M  V30 10 C 3.554340 1.475133 2.813232 0
M  V30 11 N 3.361573 2.830819 3.203667 0
M  V30 12 C 2.083292 3.504434 3.106558 0
M  V30 13 C 2.190357 4.943322 3.597688 0
M  V30 14 C 0.826636 5.563834 3.583117 0
M  V30 15 O -0.096977 4.697422 3.007639 0
M  V30 16 C 0.307774 4.411326 1.704774 0
M  V30 17 C 1.577564 3.587405 1.683665 0
M  V30 18 N 2.488538 0.808693 2.335582 0
M  V30 19 C 0.076988 -0.527904 1.310161 0
M  V30 20 N -0.779932 -1.459958 0.798130 0
M  V30 21 C -2.184590 -1.239039 0.522301 0
M  V30 22 C -2.979663 -2.489960 0.382209 0
M  V30 23 N -2.225887 -3.562346 -0.234185 0
M  V30 24 C -2.855065 -4.513202 -1.169794 0 CFG=2
M  V30 25 C -2.878587 -5.895804 -0.624519 0
M  V30 26 O -3.489556 -6.766425 -1.508457 0
M  V30 27 C -2.214151 -4.407806 -2.503180 0
M  V30 28 C -1.721217 -5.321977 -3.406796 0
M  V30 29 C -1.174390 -4.908165 -4.599367 0
M  V30 30 C -1.086744 -3.579827 -4.958205 0
M  V30 31 C -1.574874 -2.647585 -4.066611 0
M  V30 32 Cl -1.435465 -0.979428 -4.578039 0
M  V30 33 C -2.134674 -3.052018 -2.848501 0
M  V30 34 H 2.006938 -3.178358 0.929134 0
M  V30 35 H 3.815944 -2.179089 1.697282 0
M  V30 36 H 5.812605 -0.929362 2.592505 0
M  V30 37 H 4.212438 3.302399 3.565447 0
M  V30 38 H 1.284317 3.029994 3.707258 0
M  V30 39 H 2.903352 5.444806 2.910829 0
M  V30 40 H 2.620891 4.894604 4.620231 0
M  V30 41 H 0.809826 6.519006 3.008771 0
M  V30 42 H 0.550008 5.795609 4.628088 0
M  V30 43 H 0.441320 5.365983 1.129927 0
M  V30 44 H -0.540570 3.902998 1.186018 0
M  V30 45 H 1.281748 2.580192 1.301243 0
M  V30 46 H 2.339311 4.051797 1.005901 0
M  V30 47 H -0.116272 0.512615 1.598690 0
M  V30 48 H -2.241971 -0.657182 -0.437863 0
M  V30 49 H -2.636241 -0.565242 1.307107 0
M  V30 50 H -3.878692 -2.224488 -0.244099 0
M  V30 51 H -3.373151 -2.766736 1.380863 0
M  V30 52 H -3.926108 -4.191832 -1.253912 0
M  V30 53 H -3.491741 -5.862763 0.318925 0
M  V30 54 H -1.916193 -6.337692 -0.354729 0
M  V30 55 H -4.320814 -6.400565 -1.911666 0
M  V30 56 H -1.833481 -6.326218 -3.032266 0
M  V30 57 H -0.827827 -5.735793 -5.210358 0
M  V30 58 H -0.640052 -3.350709 -5.917914 0
M  V30 59 H -2.464489 -2.174191 -2.279729 0
M  V30 END ATOM
M  V30 BEGIN BOND
M  V30 1 2 1 2
M  V30 2 1 2 3
M  V30 3 2 3 4
M  V30 4 1 4 5
M  V30 5 1 5 6
M  V30 6 2 6 7
M  V30 7 1 7 8
M  V30 8 2 8 9
M  V30 9 1 9 10
M  V30 10 1 10 11
M  V30 11 1 11 12
M  V30 12 1 12 13
M  V30 13 1 13 14
M  V30 14 1 14 15
M  V30 15 1 15 16
M  V30 16 1 16 17
M  V30 17 2 10 18
M  V30 18 2 5 19
M  V30 19 1 19 20
M  V30 20 1 20 21
M  V30 21 1 21 22
M  V30 22 1 22 23
M  V30 23 1 23 24
M  V30 24 1 24 25
M  V30 25 1 25 26
M  V30 26 1 24 27
M  V30 27 2 27 28
M  V30 28 1 28 29
M  V30 29 2 29 30
M  V30 30 1 30 31
M  V30 31 1 31 32
M  V30 32 2 31 33
M  V30 33 1 23 2
M  V30 34 1 33 27
M  V30 35 1 20 3
M  V30 36 1 18 6
M  V30 37 1 17 12
M  V30 38 1 4 34
M  V30 39 1 7 35
M  V30 40 1 8 36
M  V30 41 1 11 37
M  V30 42 1 12 38
M  V30 43 1 13 39
M  V30 44 1 13 40
M  V30 45 1 14 41
M  V30 46 1 14 42
M  V30 47 1 16 43
M  V30 48 1 16 44
M  V30 49 1 17 45
M  V30 50 1 17 46
M  V30 51 1 19 47
M  V30 52 1 21 48
M  V30 53 1 21 49
M  V30 54 1 22 50
M  V30 55 1 22 51
M  V30 56 1 24 52 CFG=3
M  V30 57 1 25 53
M  V30 58 1 25 54
M  V30 59 1 26 55
M  V30 60 1 28 56
M  V30 61 1 29 57
M  V30 62 1 30 58
M  V30 63 1 33 59
M  V30 END BOND
M  V30 END CTAB
M  END
>  <Dataset>  (47) 
ChEMBL_Kinases

>  <Ligand_Instance>  (47) 
nan

>  <PDB_ID>  (47) 
nan

>  <Standardized_SMILES>  (47) 
O=C1c2cc(-c3ccnc(NC4CCOCC4)n3)cn2CCN1[C@H](CO)c1cccc(Cl)c1

>  <Name>  (47) 
nan

>  <Pocket>  (47) 
nan

>  <ATP_Site>  (47) 
nan

>  <Peripheral>  (47) 
nan

>  <Num_H_Atoms_ProtBoundConf>  (47) 
nan

>  <Num_Resolved_Atoms>  (47) 
nan

>  <Num_Not_Resolved_Atoms>  (47) 
nan

$$$$
CHEMBL3608590
     RDKit          3D

  0  0  0  0  0  0  0  0  0  0999 V3000
M  V30 BEGIN CTAB
M  V30 COUNTS 50 53 0 0 0
M  V30 BEGIN ATOM
M  V30 1 C 3.710117 -2.243591 4.563779 0
M  V30 2 C 4.436894 -3.337606 3.819890 0
M  V30 3 C 3.458908 -4.258724 3.094519 0
M  V30 4 N 5.433618 -2.784282 2.911980 0
M  V30 5 C 5.064851 -1.886523 1.848387 0
M  V30 6 N 5.961393 -1.368026 0.996112 0
M  V30 7 C 5.579648 -0.527989 0.009651 0
M  V30 8 C 4.219695 -0.226673 -0.081542 0
M  V30 9 C 3.274961 -0.742225 0.777316 0
M  V30 10 C 1.860543 -0.404505 0.653605 0
M  V30 11 C 1.334069 0.436491 -0.303736 0
M  V30 12 C -0.018607 0.461946 -0.040553 0
M  V30 13 N -0.307637 -0.317045 1.016053 0
M  V30 14 C 0.854285 -0.873164 1.471241 0
M  V30 15 C -1.600387 -0.567949 1.620453 0
M  V30 16 C -2.739540 -0.294176 0.666492 0
M  V30 17 N -2.469736 0.915271 -0.085172 0
M  V30 18 C -3.552747 1.852413 -0.239898 0
M  V30 19 C -4.329275 1.508643 -1.455481 0
M  V30 20 C -5.372057 0.604295 -1.268520 0
M  V30 21 C -6.217228 0.158268 -2.280591 0
M  V30 22 C -6.016414 0.638474 -3.557475 0
M  V30 23 C -4.985763 1.534130 -3.749446 0
M  V30 24 C -4.152441 1.971572 -2.741871 0
M  V30 25 C -1.174282 1.123038 -0.632101 0
M  V30 26 O -1.042911 1.874333 -1.618471 0
M  V30 27 N 3.765489 -1.571757 1.727253 0
M  V30 28 H 3.760694 -2.452776 5.650593 0
M  V30 29 H 2.626183 -2.223234 4.321430 0
M  V30 30 H 4.215586 -1.281022 4.358671 0
M  V30 31 H 4.989197 -3.960327 4.551742 0
M  V30 32 H 2.439136 -3.955390 3.406424 0
M  V30 33 H 3.572310 -5.321107 3.425671 0
M  V30 34 H 3.506055 -4.142968 2.010866 0
M  V30 35 H 6.452119 -3.010400 2.989443 0
M  V30 36 H 6.256170 -0.086350 -0.697574 0
M  V30 37 H 3.849209 0.441867 -0.852524 0
M  V30 38 H 1.806471 0.987257 -1.110300 0
M  V30 39 H 1.038882 -1.559162 2.305251 0
M  V30 40 H -1.689704 0.025379 2.547221 0
M  V30 41 H -1.712828 -1.657765 1.893948 0
M  V30 42 H -3.673766 -0.221334 1.250381 0
M  V30 43 H -2.761682 -1.138404 -0.059997 0
M  V30 44 H -4.203954 1.802916 0.650418 0
M  V30 45 H -3.139969 2.901125 -0.309047 0
M  V30 46 H -5.582117 0.187503 -0.278406 0
M  V30 47 H -7.007661 -0.546479 -2.060866 0
M  V30 48 H -6.672452 0.292401 -4.343273 0
M  V30 49 H -4.796413 1.933603 -4.736166 0
M  V30 50 H -3.345392 2.668587 -2.866515 0
M  V30 END ATOM
M  V30 BEGIN BOND
M  V30 1 1 1 2
M  V30 2 1 2 3
M  V30 3 1 2 4
M  V30 4 1 4 5
M  V30 5 2 5 6
M  V30 6 1 6 7
M  V30 7 2 7 8
M  V30 8 1 8 9
M  V30 9 1 9 10
M  V30 10 1 10 11
M  V30 11 2 11 12
M  V30 12 1 12 13
M  V30 13 1 13 14
M  V30 14 1 13 15
M  V30 15 1 15 16
M  V30 16 1 16 17
M  V30 17 1 17 18
M  V30 18 1 18 19
M  V30 19 2 19 20
M  V30 20 1 20 21
M  V30 21 2 21 22
M  V30 22 1 22 23
M  V30 23 2 23 24
M  V30 24 1 17 25
M  V30 25 2 25 26
M  V30 26 2 9 27
M  V30 27 1 27 5
M  V30 28 2 14 10
M  V30 29 1 24 19
M  V30 30 1 25 12
M  V30 31 1 1 28
M  V30 32 1 1 29
M  V30 33 1 1 30
M  V30 34 1 2 31
M  V30 35 1 3 32
M  V30 36 1 3 33
M  V30 37 1 3 34
M  V30 38 1 4 35
M  V30 39 1 7 36
M  V30 40 1 8 37
M  V30 41 1 11 38
M  V30 42 1 14 39
M  V30 43 1 15 40
M  V30 44 1 15 41
M  V30 45 1 16 42
M  V30 46 1 16 43
M  V30 47 1 18 44
M  V30 48 1 18 45
M  V30 49 1 20 46
M  V30 50 1 21 47
M  V30 51 1 22 48
M  V30 52 1 23 49
M  V30 53 1 24 50
M  V30 END BOND
M  V30 END CTAB
M  END
>  <Dataset>  (48) 
ChEMBL_Kinases

>  <Ligand_Instance>  (48) 
nan

>  <PDB_ID>  (48) 
nan

>  <Standardized_SMILES>  (48) 
CC(C)Nc1nccc(-c2cc3n(c2)CCN(Cc2ccccc2)C3=O)n1

>  <Name>  (48) 
nan

>  <Pocket>  (48) 
nan

>  <ATP_Site>  (48) 
nan

>  <Peripheral>  (48) 
nan

>  <Num_H_Atoms_ProtBoundConf>  (48) 
nan

>  <Num_Resolved_Atoms>  (48) 
nan

>  <Num_Not_Resolved_Atoms>  (48) 
nan

$$$$
CHEMBL3608589
     RDKit          3D

  0  0  0  0  0  0  0  0  0  0999 V3000
M  V30 BEGIN CTAB
M  V30 COUNTS 62 66 0 0 0
M  V30 BEGIN ATOM
M  V30 1 O -0.928429 -4.174823 1.811658 0
M  V30 2 C -1.020468 -3.676679 0.646103 0
M  V30 3 C -0.317740 -2.360059 0.571467 0
M  V30 4 C 0.686471 -1.888656 1.427598 0
M  V30 5 C 0.981097 -0.641975 0.917445 0
M  V30 6 C 1.989299 0.249269 1.489557 0
M  V30 7 C 2.730023 -0.099726 2.599373 0
M  V30 8 C 3.646561 0.834970 3.034181 0
M  V30 9 N 3.815738 2.013737 2.423438 0
M  V30 10 C 3.095309 2.353289 1.343968 0
M  V30 11 N 3.251714 3.595962 0.675113 0
M  V30 12 C 4.211594 4.582283 1.131288 0
M  V30 13 C 3.876187 5.007903 2.540767 0
M  V30 14 C 3.229199 6.357046 2.523430 0
M  V30 15 O 2.238176 6.492368 1.553462 0
M  V30 16 C 2.768320 6.429492 0.266726 0
M  V30 17 C 4.149699 5.831928 0.252911 0
M  V30 18 N 2.217013 1.452367 0.930862 0
M  V30 19 C 0.199568 -0.398209 -0.168053 0
M  V30 20 N -0.630060 -1.456915 -0.415197 0
M  V30 21 C -1.602291 -1.547735 -1.480397 0
M  V30 22 C -1.709398 -2.758477 -2.256276 0
M  V30 23 C -1.452715 -4.105261 -1.765259 0
M  V30 24 N -1.749655 -4.411548 -0.382445 0
M  V30 25 C -2.661502 -5.386863 0.190878 0 CFG=2
M  V30 26 C -2.358870 -6.793895 -0.196616 0
M  V30 27 O -1.074384 -7.115862 0.234575 0
M  V30 28 C -4.089935 -5.025327 0.023193 0
M  V30 29 C -4.772132 -4.589241 -1.088444 0
M  V30 30 C -6.090022 -4.276096 -1.156525 0
M  V30 31 F -6.642427 -3.857187 -2.314347 0
M  V30 32 C -6.865614 -4.390526 -0.024184 0
M  V30 33 C -6.302986 -4.813356 1.139743 0
M  V30 34 Cl -7.246796 -4.974493 2.602994 0
M  V30 35 C -4.965817 -5.109111 1.123097 0
M  V30 36 H 1.062057 -2.449466 2.254142 0
M  V30 37 H 2.578891 -1.056202 3.078744 0
M  V30 38 H 4.262596 0.615572 3.908391 0
M  V30 39 H 2.661875 3.797917 -0.160267 0
M  V30 40 H 5.253173 4.175456 1.114836 0
M  V30 41 H 4.821968 5.113293 3.115638 0
M  V30 42 H 3.215830 4.237030 2.996724 0
M  V30 43 H 2.880619 6.636149 3.519553 0
M  V30 44 H 4.025878 7.111929 2.264454 0
M  V30 45 H 2.898592 7.505987 -0.045168 0
M  V30 46 H 2.093901 5.979751 -0.477273 0
M  V30 47 H 4.943664 6.536760 0.537685 0
M  V30 48 H 4.354615 5.549178 -0.812423 0
M  V30 49 H 0.224529 0.514785 -0.766041 0
M  V30 50 H -1.367626 -0.675079 -2.162080 0
M  V30 51 H -2.625208 -1.253810 -1.085483 0
M  V30 52 H -1.075731 -2.630753 -3.194837 0
M  V30 53 H -2.747834 -2.770007 -2.718185 0
M  V30 54 H -1.949233 -4.865726 -2.400089 0
M  V30 55 H -0.346108 -4.324742 -1.966369 0
M  V30 56 H -2.495673 -5.312356 1.312056 0
M  V30 57 H -2.545339 -7.033159 -1.242880 0
M  V30 58 H -3.039795 -7.445036 0.393581 0
M  V30 59 H -0.830346 -8.043447 -0.011388 0
M  V30 60 H -4.206766 -4.491911 -1.988678 0
M  V30 61 H -7.905113 -4.146214 -0.067527 0
M  V30 62 H -4.549323 -5.446732 2.080508 0
M  V30 END ATOM
M  V30 BEGIN BOND
M  V30 1 2 1 2
M  V30 2 1 2 3
M  V30 3 2 3 4
M  V30 4 1 4 5
M  V30 5 1 5 6
M  V30 6 2 6 7
M  V30 7 1 7 8
M  V30 8 2 8 9
M  V30 9 1 9 10
M  V30 10 1 10 11
M  V30 11 1 11 12
M  V30 12 1 12 13
M  V30 13 1 13 14
M  V30 14 1 14 15
M  V30 15 1 15 16
M  V30 16 1 16 17
M  V30 17 2 10 18
M  V30 18 2 5 19
M  V30 19 1 19 20
M  V30 20 1 20 21
M  V30 21 1 21 22
M  V30 22 1 22 23
M  V30 23 1 23 24
M  V30 24 1 24 25
M  V30 25 1 25 26
M  V30 26 1 26 27
M  V30 27 1 25 28
M  V30 28 2 28 29
M  V30 29 1 29 30
M  V30 30 1 30 31
M  V30 31 2 30 32
M  V30 32 1 32 33
M  V30 33 1 33 34
M  V30 34 2 33 35
M  V30 35 1 24 2
M  V30 36 1 35 28
M  V30 37 1 20 3
M  V30 38 1 18 6
M  V30 39 1 17 12
M  V30 40 1 4 36
M  V30 41 1 7 37
M  V30 42 1 8 38
M  V30 43 1 11 39
M  V30 44 1 12 40
M  V30 45 1 13 41
M  V30 46 1 13 42
M  V30 47 1 14 43
M  V30 48 1 14 44
M  V30 49 1 16 45
M  V30 50 1 16 46
M  V30 51 1 17 47
M  V30 52 1 17 48
M  V30 53 1 19 49
M  V30 54 1 21 50
M  V30 55 1 21 51
M  V30 56 1 22 52
M  V30 57 1 22 53
M  V30 58 1 23 54
M  V30 59 1 23 55
M  V30 60 1 25 56 CFG=1
M  V30 61 1 26 57
M  V30 62 1 26 58
M  V30 63 1 27 59
M  V30 64 1 29 60
M  V30 65 1 32 61
M  V30 66 1 35 62
M  V30 END BOND
M  V30 END CTAB
M  END
>  <Dataset>  (49) 
ChEMBL_Kinases

>  <Ligand_Instance>  (49) 
nan

>  <PDB_ID>  (49) 
nan

>  <Standardized_SMILES>  (49) 
O=C1c2cc(-c3ccnc(NC4CCOCC4)n3)cn2CCCN1[C@H](CO)c1cc(F)cc(Cl)c1

>  <Name>  (49) 
nan

>  <Pocket>  (49) 
nan

>  <ATP_Site>  (49) 
nan

>  <Peripheral>  (49) 
nan

>  <Num_H_Atoms_ProtBoundConf>  (49) 
nan

>  <Num_Resolved_Atoms>  (49) 
nan

>  <Num_Not_Resolved_Atoms>  (49) 
nan

$$$$
CHEMBL3608588
     RDKit          3D

  0  0  0  0  0  0  0  0  0  0999 V3000
M  V30 BEGIN CTAB
M  V30 COUNTS 62 66 0 0 0
M  V30 BEGIN ATOM
M  V30 1 O 0.339284 -4.152581 -0.783890 0
M  V30 2 C -0.543355 -3.555674 -0.155088 0
M  V30 3 C -0.023876 -2.340789 0.461783 0
M  V30 4 C 1.142772 -1.693516 0.112392 0
M  V30 5 C 1.234026 -0.603636 0.951793 0
M  V30 6 C 2.307731 0.368080 0.943847 0
M  V30 7 C 3.359453 0.268773 0.059462 0
M  V30 8 C 4.348791 1.227666 0.105153 0
M  V30 9 N 4.280865 2.229755 0.992660 0
M  V30 10 C 3.256327 2.345629 1.870153 0
M  V30 11 N 3.187817 3.403404 2.809555 0
M  V30 12 C 2.143925 3.633569 3.789842 0
M  V30 13 C 2.459035 4.853885 4.637596 0
M  V30 14 C 1.771131 6.077518 4.029971 0
M  V30 15 O 1.860561 6.010268 2.629094 0
M  V30 16 C 0.981545 5.067125 2.100886 0
M  V30 17 C 0.851717 3.858750 3.003339 0
M  V30 18 N 2.318544 1.391503 1.789140 0
M  V30 19 C 0.141672 -0.605292 1.782992 0
M  V30 20 N -0.633368 -1.671910 1.484161 0
M  V30 21 C -1.881645 -1.961970 2.193280 0
M  V30 22 C -2.904609 -2.487182 1.192708 0
M  V30 23 C -2.721417 -3.940482 0.929125 0
M  V30 24 N -1.803660 -4.206342 -0.204374 0
M  V30 25 C -2.280767 -5.063286 -1.216925 0 CFG=2
M  V30 26 C -1.613662 -6.364829 -1.460090 0
M  V30 27 O -0.288172 -6.306254 -1.839163 0
M  V30 28 C -2.613812 -4.424165 -2.518237 0
M  V30 29 C -3.762730 -4.823618 -3.225163 0
M  V30 30 C -4.202433 -4.325256 -4.430981 0
M  V30 31 C -3.446568 -3.332167 -5.014663 0
M  V30 32 C -2.309628 -2.896216 -4.373281 0
M  V30 33 Cl -1.371680 -1.634300 -5.140036 0
M  V30 34 C -1.943342 -3.446596 -3.174444 0
M  V30 35 H 1.813220 -2.029253 -0.678623 0
M  V30 36 H 3.396306 -0.553930 -0.654756 0
M  V30 37 H 5.191080 1.184953 -0.572417 0
M  V30 38 H 3.990860 4.101517 2.789852 0
M  V30 39 H 1.981314 2.770377 4.446916 0
M  V30 40 H 2.037717 4.724573 5.651659 0
M  V30 41 H 3.536411 5.059893 4.616341 0
M  V30 42 H 2.318757 6.979806 4.340001 0
M  V30 43 H 0.696785 6.082108 4.301832 0
M  V30 44 H 0.003177 5.567367 1.931180 0
M  V30 45 H 1.359739 4.742176 1.110444 0
M  V30 46 H 0.649029 2.920767 2.454861 0
M  V30 47 H 0.047976 3.978889 3.741137 0
M  V30 48 H -0.095293 0.119905 2.568419 0
M  V30 49 H -1.652413 -2.747357 2.936591 0
M  V30 50 H -2.266243 -1.018662 2.621951 0
M  V30 51 H -3.911365 -2.351071 1.667172 0
M  V30 52 H -2.837495 -1.838160 0.313489 0
M  V30 53 H -3.733902 -4.343826 0.624842 0
M  V30 54 H -2.391755 -4.455628 1.832031 0
M  V30 55 H -3.333847 -5.373783 -0.842753 0
M  V30 56 H -2.125897 -6.907630 -2.315164 0
M  V30 57 H -1.761611 -7.092059 -0.606903 0
M  V30 58 H -0.038066 -6.949826 -2.544137 0
M  V30 59 H -4.386642 -5.609776 -2.791548 0
M  V30 60 H -5.103779 -4.707027 -4.887388 0
M  V30 61 H -3.766652 -2.932769 -5.945171 0
M  V30 62 H -1.059064 -3.043676 -2.758750 0
M  V30 END ATOM
M  V30 BEGIN BOND
M  V30 1 2 1 2
M  V30 2 1 2 3
M  V30 3 2 3 4
M  V30 4 1 4 5
M  V30 5 1 5 6
M  V30 6 2 6 7
M  V30 7 1 7 8
M  V30 8 2 8 9
M  V30 9 1 9 10
M  V30 10 1 10 11
M  V30 11 1 11 12
M  V30 12 1 12 13
M  V30 13 1 13 14
M  V30 14 1 14 15
M  V30 15 1 15 16
M  V30 16 1 16 17
M  V30 17 2 10 18
M  V30 18 2 5 19
M  V30 19 1 19 20
M  V30 20 1 20 21
M  V30 21 1 21 22
M  V30 22 1 22 23
M  V30 23 1 23 24
M  V30 24 1 24 25
M  V30 25 1 25 26
M  V30 26 1 26 27
M  V30 27 1 25 28
M  V30 28 2 28 29
M  V30 29 1 29 30
M  V30 30 2 30 31
M  V30 31 1 31 32
M  V30 32 1 32 33
M  V30 33 2 32 34
M  V30 34 1 24 2
M  V30 35 1 34 28
M  V30 36 1 20 3
M  V30 37 1 18 6
M  V30 38 1 17 12
M  V30 39 1 4 35
M  V30 40 1 7 36
M  V30 41 1 8 37
M  V30 42 1 11 38
M  V30 43 1 12 39
M  V30 44 1 13 40
M  V30 45 1 13 41
M  V30 46 1 14 42
M  V30 47 1 14 43
M  V30 48 1 16 44
M  V30 49 1 16 45
M  V30 50 1 17 46
M  V30 51 1 17 47
M  V30 52 1 19 48
M  V30 53 1 21 49
M  V30 54 1 21 50
M  V30 55 1 22 51
M  V30 56 1 22 52
M  V30 57 1 23 53
M  V30 58 1 23 54
M  V30 59 1 25 55 CFG=1
M  V30 60 1 26 56
M  V30 61 1 26 57
M  V30 62 1 27 58
M  V30 63 1 29 59
M  V30 64 1 30 60
M  V30 65 1 31 61
M  V30 66 1 34 62
M  V30 END BOND
M  V30 END CTAB
M  END
>  <Dataset>  (50) 
ChEMBL_Kinases

>  <Ligand_Instance>  (50) 
nan

>  <PDB_ID>  (50) 
nan

>  <Standardized_SMILES>  (50) 
O=C1c2cc(-c3ccnc(NC4CCOCC4)n3)cn2CCCN1[C@H](CO)c1cccc(Cl)c1

>  <Name>  (50) 
nan

>  <Pocket>  (50) 
nan

>  <ATP_Site>  (50) 
nan

>  <Peripheral>  (50) 
nan

>  <Num_H_Atoms_ProtBoundConf>  (50) 
nan

>  <Num_Resolved_Atoms>  (50) 
nan

>  <Num_Not_Resolved_Atoms>  (50) 
nan

$$$$
CHEMBL3608587
     RDKit          3D

  0  0  0  0  0  0  0  0  0  0999 V3000
M  V30 BEGIN CTAB
M  V30 COUNTS 62 66 0 0 0
M  V30 BEGIN ATOM
M  V30 1 O -2.597082 -1.924097 -0.228220 0
M  V30 2 C -1.750486 -2.725869 -0.748921 0
M  V30 3 C -0.364742 -2.561988 -0.315367 0
M  V30 4 C 0.146146 -1.377377 0.206173 0
M  V30 5 C 1.463065 -1.700536 0.464699 0
M  V30 6 C 2.431800 -0.766692 1.031883 0
M  V30 7 C 3.737517 -1.144807 1.269770 0
M  V30 8 C 4.615730 -0.205934 1.813894 0
M  V30 9 N 4.196221 1.053547 2.103807 0
M  V30 10 C 2.924032 1.392693 1.862580 0
M  V30 11 N 2.461555 2.704698 2.157843 0
M  V30 12 C 3.374339 3.686726 2.725600 0
M  V30 13 C 3.884905 3.175519 4.020827 0
M  V30 14 C 3.600158 4.172294 5.133731 0
M  V30 15 O 2.230747 4.423337 5.061342 0
M  V30 16 C 2.041027 5.360249 4.056390 0
M  V30 17 C 2.743134 5.041288 2.775762 0
M  V30 18 N 2.072910 0.493671 1.338753 0
M  V30 19 C 1.737803 -3.008437 0.119715 0
M  V30 20 N 0.574455 -3.525489 -0.366705 0
M  V30 21 C 0.457402 -4.899869 -0.840222 0
M  V30 22 C -0.327351 -5.031972 -2.105678 0 CFG=1
M  V30 23 F -0.031925 -6.292055 -2.637866 0
M  V30 24 C -1.821334 -5.009051 -1.925501 0
M  V30 25 N -2.319114 -3.665496 -1.686390 0
M  V30 26 C -3.462752 -3.205242 -2.429951 0 CFG=2
M  V30 27 C -2.989398 -2.072203 -3.344530 0
M  V30 28 O -2.454087 -1.007067 -2.665553 0
M  V30 29 C -4.605439 -2.782909 -1.623569 0
M  V30 30 C -4.951461 -3.627906 -0.565647 0
M  V30 31 C -6.024352 -3.325694 0.270514 0
M  V30 32 C -6.756234 -2.167793 0.044888 0
M  V30 33 C -6.440009 -1.313050 -0.990924 0
M  V30 34 Cl -7.355279 0.150531 -1.286071 0
M  V30 35 C -5.378139 -1.652070 -1.785117 0
M  V30 36 H -0.420671 -0.471860 0.341386 0
M  V30 37 H 4.021015 -2.141481 1.027078 0
M  V30 38 H 5.647325 -0.485224 2.008055 0
M  V30 39 H 1.472442 2.973764 1.972070 0
M  V30 40 H 4.236541 3.759015 2.025010 0
M  V30 41 H 4.993762 3.026688 4.026845 0
M  V30 42 H 3.405159 2.218343 4.298529 0
M  V30 43 H 4.153062 5.117158 4.964294 0
M  V30 44 H 3.932105 3.768436 6.107520 0
M  V30 45 H 2.344557 6.346137 4.465653 0
M  V30 46 H 0.931877 5.415830 3.917061 0
M  V30 47 H 3.486076 5.844426 2.585080 0
M  V30 48 H 2.003503 5.101902 1.948989 0
M  V30 49 H 2.696324 -3.492805 0.227750 0
M  V30 50 H 1.456229 -5.353456 -0.934879 0
M  V30 51 H -0.121766 -5.440649 -0.038286 0
M  V30 52 H 0.036691 -4.300855 -2.825614 0
M  V30 53 H -2.279025 -5.377163 -2.879694 0
M  V30 54 H -2.110928 -5.636940 -1.068171 0
M  V30 55 H -3.768135 -4.058554 -3.080928 0
M  V30 56 H -2.200970 -2.479739 -4.028977 0
M  V30 57 H -3.803775 -1.718544 -4.014226 0
M  V30 58 H -1.600480 -0.657740 -3.064202 0
M  V30 59 H -4.393844 -4.550620 -0.359843 0
M  V30 60 H -6.276649 -3.985745 1.078548 0
M  V30 61 H -7.606268 -1.896448 0.680594 0
M  V30 62 H -5.099101 -1.007063 -2.607873 0
M  V30 END ATOM
M  V30 BEGIN BOND
M  V30 1 2 1 2
M  V30 2 1 2 3
M  V30 3 2 3 4
M  V30 4 1 4 5
M  V30 5 1 5 6
M  V30 6 2 6 7
M  V30 7 1 7 8
M  V30 8 2 8 9
M  V30 9 1 9 10
M  V30 10 1 10 11
M  V30 11 1 11 12
M  V30 12 1 12 13
M  V30 13 1 13 14
M  V30 14 1 14 15
M  V30 15 1 15 16
M  V30 16 1 16 17
M  V30 17 2 10 18
M  V30 18 2 5 19
M  V30 19 1 19 20
M  V30 20 1 20 21
M  V30 21 1 21 22
M  V30 22 1 22 23
M  V30 23 1 22 24
M  V30 24 1 24 25
M  V30 25 1 25 26
M  V30 26 1 26 27
M  V30 27 1 27 28
M  V30 28 1 26 29
M  V30 29 2 29 30
M  V30 30 1 30 31
M  V30 31 2 31 32
M  V30 32 1 32 33
M  V30 33 1 33 34
M  V30 34 2 33 35
M  V30 35 1 25 2
M  V30 36 1 35 29
M  V30 37 1 20 3
M  V30 38 1 18 6
M  V30 39 1 17 12
M  V30 40 1 4 36
M  V30 41 1 7 37
M  V30 42 1 8 38
M  V30 43 1 11 39
M  V30 44 1 12 40
M  V30 45 1 13 41
M  V30 46 1 13 42
M  V30 47 1 14 43
M  V30 48 1 14 44
M  V30 49 1 16 45
M  V30 50 1 16 46
M  V30 51 1 17 47
M  V30 52 1 17 48
M  V30 53 1 19 49
M  V30 54 1 21 50
M  V30 55 1 21 51
M  V30 56 1 22 52 CFG=3
M  V30 57 1 24 53
M  V30 58 1 24 54
M  V30 59 1 26 55 CFG=3
M  V30 60 1 27 56
M  V30 61 1 27 57
M  V30 62 1 28 58
M  V30 63 1 30 59
M  V30 64 1 31 60
M  V30 65 1 32 61
M  V30 66 1 35 62
M  V30 END BOND
M  V30 END CTAB
M  END
>  <Dataset>  (51) 
ChEMBL_Kinases

>  <Ligand_Instance>  (51) 
nan

>  <PDB_ID>  (51) 
nan

>  <Standardized_SMILES>  (51) 
O=C1c2cc(-c3ccnc(NC4CCOCC4)n3)cn2C[C@@H](F)CN1[C@H](CO)c1cccc(Cl)c1

>  <Name>  (51) 
nan

>  <Pocket>  (51) 
nan

>  <ATP_Site>  (51) 
nan

>  <Peripheral>  (51) 
nan

>  <Num_H_Atoms_ProtBoundConf>  (51) 
nan

>  <Num_Resolved_Atoms>  (51) 
nan

>  <Num_Not_Resolved_Atoms>  (51) 
nan

$$$$
CHEMBL3608586
     RDKit          3D

  0  0  0  0  0  0  0  0  0  0999 V3000
M  V30 BEGIN CTAB
M  V30 COUNTS 60 65 0 0 0
M  V30 BEGIN ATOM
M  V30 1 O 0.445517 -4.213335 -0.327529 0
M  V30 2 C -0.420868 -3.413325 0.021219 0
M  V30 3 C 0.023783 -2.070836 0.456225 0
M  V30 4 C 1.370222 -1.732587 0.284694 0
M  V30 5 C 1.484163 -0.445574 0.770883 0
M  V30 6 C 2.681866 0.400400 0.835130 0
M  V30 7 C 3.859495 -0.133566 0.354840 0
M  V30 8 C 4.971187 0.687396 0.428673 0
M  V30 9 N 4.935320 1.935258 0.933353 0
M  V30 10 C 3.758655 2.435750 1.400105 0
M  V30 11 N 3.637128 3.743972 1.948247 0
M  V30 12 C 2.358915 4.240018 2.436393 0 CFG=1
M  V30 13 C 1.814751 3.380557 3.558411 0 CFG=2
M  V30 14 C 0.334721 3.424006 3.881439 0
M  V30 15 O -0.075126 4.708852 3.611626 0
M  V30 16 C 0.927289 5.566308 4.024152 0
M  V30 17 C 2.220365 4.797355 3.792847 0 CFG=2
M  V30 18 N 2.670534 1.658197 1.338186 0
M  V30 19 C 0.251387 -0.018030 1.221308 0
M  V30 20 N -0.629597 -1.015285 1.024849 0
M  V30 21 C -2.070896 -1.139277 1.304876 0
M  V30 22 C -2.336199 -2.478975 1.936278 0
M  V30 23 C -2.757812 -3.546287 1.003035 0
M  V30 24 N -1.757389 -3.874786 -0.035136 0
M  V30 25 C -2.202752 -4.679557 -1.110486 0 CFG=2
M  V30 26 C -1.687173 -6.054162 -1.272784 0
M  V30 27 O -0.359612 -6.256363 -1.478614 0
M  V30 28 C -2.340408 -3.939809 -2.418172 0
M  V30 29 C -1.455916 -3.018866 -2.932593 0
M  V30 30 C -1.641427 -2.387563 -4.132891 0
M  V30 31 C -2.735578 -2.648792 -4.889490 0
M  V30 32 C -3.668201 -3.540800 -4.472285 0
M  V30 33 Cl -5.098571 -3.920931 -5.399897 0
M  V30 34 C -3.443911 -4.153314 -3.260397 0
M  V30 35 H 2.201548 -2.279012 -0.121738 0
M  V30 36 H 3.973891 -1.124782 -0.065579 0
M  V30 37 H 5.957198 0.395862 0.088428 0
M  V30 38 H 4.491851 4.330702 1.987216 0
M  V30 39 H 1.610684 4.490502 1.656525 0
M  V30 40 H 2.435770 2.587072 4.012358 0
M  V30 41 H -0.263850 2.706618 3.278511 0
M  V30 42 H 0.208451 3.192619 4.974864 0
M  V30 43 H 0.882749 6.456675 3.342176 0
M  V30 44 H 0.802197 5.864522 5.087317 0
M  V30 45 H 3.128201 5.059131 4.356502 0
M  V30 46 H -0.101376 0.900956 1.667166 0
M  V30 47 H -2.613635 -1.095965 0.338181 0
M  V30 48 H -2.349959 -0.296847 1.962477 0
M  V30 49 H -3.131800 -2.336763 2.679323 0
M  V30 50 H -1.433224 -2.807599 2.493606 0
M  V30 51 H -2.882813 -4.478536 1.589055 0
M  V30 52 H -3.735811 -3.331101 0.527461 0
M  V30 53 H -3.313266 -4.871629 -0.864818 0
M  V30 54 H -2.082165 -6.660789 -0.393170 0
M  V30 55 H -2.198196 -6.586117 -2.136318 0
M  V30 56 H -0.141448 -6.286076 -2.425009 0
M  V30 57 H -0.589476 -2.783629 -2.373646 0
M  V30 58 H -0.898040 -1.669960 -4.475922 0
M  V30 59 H -2.862020 -2.141083 -5.830462 0
M  V30 60 H -4.202650 -4.875779 -2.926130 0
M  V30 END ATOM
M  V30 BEGIN BOND
M  V30 1 2 1 2
M  V30 2 1 2 3
M  V30 3 2 3 4
M  V30 4 1 4 5
M  V30 5 1 5 6
M  V30 6 2 6 7
M  V30 7 1 7 8
M  V30 8 2 8 9
M  V30 9 1 9 10
M  V30 10 1 10 11
M  V30 11 1 11 12
M  V30 12 1 12 13
M  V30 13 1 13 14
M  V30 14 1 14 15
M  V30 15 1 15 16
M  V30 16 1 16 17
M  V30 17 2 10 18
M  V30 18 2 5 19
M  V30 19 1 19 20
M  V30 20 1 20 21
M  V30 21 1 21 22
M  V30 22 1 22 23
M  V30 23 1 23 24
M  V30 24 1 24 25
M  V30 25 1 25 26
M  V30 26 1 26 27
M  V30 27 1 25 28
M  V30 28 2 28 29
M  V30 29 1 29 30
M  V30 30 2 30 31
M  V30 31 1 31 32
M  V30 32 1 32 33
M  V30 33 2 32 34
M  V30 34 1 24 2
M  V30 35 1 34 28
M  V30 36 1 20 3
M  V30 37 1 18 6
M  V30 38 1 17 12
M  V30 39 1 17 13
M  V30 40 1 4 35
M  V30 41 1 7 36
M  V30 42 1 8 37
M  V30 43 1 11 38
M  V30 44 1 12 39 CFG=3
M  V30 45 1 13 40 CFG=1
M  V30 46 1 14 41
M  V30 47 1 14 42
M  V30 48 1 16 43
M  V30 49 1 16 44
M  V30 50 1 17 45 CFG=1
M  V30 51 1 19 46
M  V30 52 1 21 47
M  V30 53 1 21 48
M  V30 54 1 22 49
M  V30 55 1 22 50
M  V30 56 1 23 51
M  V30 57 1 23 52
M  V30 58 1 25 53 CFG=1
M  V30 59 1 26 54
M  V30 60 1 26 55
M  V30 61 1 27 56
M  V30 62 1 29 57
M  V30 63 1 30 58
M  V30 64 1 31 59
M  V30 65 1 34 60
M  V30 END BOND
M  V30 END CTAB
M  END
>  <Dataset>  (52) 
ChEMBL_Kinases

>  <Ligand_Instance>  (52) 
nan

>  <PDB_ID>  (52) 
nan

>  <Standardized_SMILES>  (52) 
O=C1c2cc(-c3ccnc(N[C@H]4[C@@H]5COC[C@@H]54)n3)cn2CCCN1[C@H](CO)c1cccc(Cl)c1

>  <Name>  (52) 
nan

>  <Pocket>  (52) 
nan

>  <ATP_Site>  (52) 
nan

>  <Peripheral>  (52) 
nan

>  <Num_H_Atoms_ProtBoundConf>  (52) 
nan

>  <Num_Resolved_Atoms>  (52) 
nan

>  <Num_Not_Resolved_Atoms>  (52) 
nan

$$$$
CHEMBL3608464
     RDKit          3D

  0  0  0  0  0  0  0  0  0  0999 V3000
M  V30 BEGIN CTAB
M  V30 COUNTS 62 66 0 0 0
M  V30 BEGIN ATOM
M  V30 1 O -0.303077 -4.650563 1.020211 0
M  V30 2 C -0.768419 -3.692897 0.385407 0
M  V30 3 C -0.018730 -2.415461 0.321192 0
M  V30 4 C 1.170076 -2.295971 1.020093 0
M  V30 5 C 1.607655 -1.010012 0.757144 0
M  V30 6 C 2.820195 -0.363185 1.250022 0
M  V30 7 C 3.654144 -1.085275 2.077620 0
M  V30 8 C 4.784625 -0.427761 2.514317 0
M  V30 9 N 5.105706 0.835675 2.187474 0
M  V30 10 C 4.279369 1.515151 1.382538 0
M  V30 11 N 4.488283 2.873668 0.942852 0
M  V30 12 C 3.637859 3.669940 0.077801 0
M  V30 13 C 4.279202 5.027704 -0.120427 0
M  V30 14 C 4.101795 5.807019 1.159910 0
M  V30 15 O 2.751177 6.030357 1.343624 0
M  V30 16 C 2.063974 4.873472 1.640553 0
M  V30 17 C 2.224216 3.801614 0.589055 0
M  V30 18 F 1.446026 4.182541 -0.499997 0
M  V30 19 N 3.169507 0.898304 0.941801 0
M  V30 20 C 0.703836 -0.381193 -0.075670 0
M  V30 21 N -0.289670 -1.249647 -0.337890 0
M  V30 22 C -1.510638 -1.140097 -1.154876 0
M  V30 23 C -1.659580 -2.332758 -2.043117 0
M  V30 24 C -2.556446 -3.415556 -1.501317 0
M  V30 25 N -2.044240 -3.935742 -0.249387 0
M  V30 26 C -2.915600 -4.826922 0.492025 0 CFG=2
M  V30 27 C -3.300831 -6.066333 -0.253414 0
M  V30 28 O -3.979439 -5.861955 -1.428941 0
M  V30 29 C -4.162793 -4.069813 0.783663 0
M  V30 30 C -5.435625 -4.578321 0.629297 0
M  V30 31 C -6.583693 -3.864894 0.903306 0
M  V30 32 C -6.479586 -2.566109 1.359169 0
M  V30 33 C -5.230333 -2.006775 1.531930 0
M  V30 34 Cl -5.176980 -0.365151 2.109615 0
M  V30 35 C -4.102013 -2.759840 1.244341 0
M  V30 36 H 1.694505 -2.979410 1.636701 0
M  V30 37 H 3.484442 -2.112832 2.400953 0
M  V30 38 H 5.530602 -0.889148 3.177413 0
M  V30 39 H 5.383664 3.289382 1.327325 0
M  V30 40 H 3.594633 3.192444 -0.920429 0
M  V30 41 H 3.810489 5.550324 -0.975585 0
M  V30 42 H 5.339261 4.838778 -0.365902 0
M  V30 43 H 4.495828 5.157220 1.977969 0
M  V30 44 H 4.630212 6.775118 1.091769 0
M  V30 45 H 2.335326 4.499565 2.658791 0
M  V30 46 H 0.980786 5.115845 1.674652 0
M  V30 47 H 1.837574 2.857481 0.964384 0
M  V30 48 H 0.663863 0.606155 -0.514386 0
M  V30 49 H -2.396629 -0.980612 -0.498882 0
M  V30 50 H -1.425533 -0.237726 -1.794746 0
M  V30 51 H -0.633174 -2.798882 -2.121967 0
M  V30 52 H -1.921345 -2.042204 -3.071309 0
M  V30 53 H -2.504881 -4.258273 -2.224983 0
M  V30 54 H -3.610810 -3.060090 -1.394154 0
M  V30 55 H -2.413664 -5.155829 1.430734 0
M  V30 56 H -3.870841 -6.727903 0.430522 0
M  V30 57 H -2.384661 -6.668210 -0.530556 0
M  V30 58 H -4.483307 -6.683821 -1.658544 0
M  V30 59 H -5.550162 -5.584851 0.276802 0
M  V30 60 H -7.558169 -4.351533 0.750856 0
M  V30 61 H -7.437364 -2.077547 1.550239 0
M  V30 62 H -3.161781 -2.248900 1.406115 0
M  V30 END ATOM
M  V30 BEGIN BOND
M  V30 1 2 1 2
M  V30 2 1 2 3
M  V30 3 2 3 4
M  V30 4 1 4 5
M  V30 5 1 5 6
M  V30 6 2 6 7
M  V30 7 1 7 8
M  V30 8 2 8 9
M  V30 9 1 9 10
M  V30 10 1 10 11
M  V30 11 1 11 12
M  V30 12 1 12 13
M  V30 13 1 13 14
M  V30 14 1 14 15
M  V30 15 1 15 16
M  V30 16 1 16 17
M  V30 17 1 17 18
M  V30 18 2 10 19
M  V30 19 2 5 20
M  V30 20 1 20 21
M  V30 21 1 21 22
M  V30 22 1 22 23
M  V30 23 1 23 24
M  V30 24 1 24 25
M  V30 25 1 25 26
M  V30 26 1 26 27
M  V30 27 1 27 28
M  V30 28 1 26 29
M  V30 29 2 29 30
M  V30 30 1 30 31
M  V30 31 2 31 32
M  V30 32 1 32 33
M  V30 33 1 33 34
M  V30 34 2 33 35
M  V30 35 1 25 2
M  V30 36 1 35 29
M  V30 37 1 21 3
M  V30 38 1 19 6
M  V30 39 1 17 12
M  V30 40 1 4 36
M  V30 41 1 7 37
M  V30 42 1 8 38
M  V30 43 1 11 39
M  V30 44 1 12 40
M  V30 45 1 13 41
M  V30 46 1 13 42
M  V30 47 1 14 43
M  V30 48 1 14 44
M  V30 49 1 16 45
M  V30 50 1 16 46
M  V30 51 1 17 47
M  V30 52 1 20 48
M  V30 53 1 22 49
M  V30 54 1 22 50
M  V30 55 1 23 51
M  V30 56 1 23 52
M  V30 57 1 24 53
M  V30 58 1 24 54
M  V30 59 1 26 55 CFG=1
M  V30 60 1 27 56
M  V30 61 1 27 57
M  V30 62 1 28 58
M  V30 63 1 30 59
M  V30 64 1 31 60
M  V30 65 1 32 61
M  V30 66 1 35 62
M  V30 END BOND
M  V30 END CTAB
M  END
>  <Dataset>  (53) 
ChEMBL_Kinases

>  <Ligand_Instance>  (53) 
nan

>  <PDB_ID>  (53) 
nan

>  <Standardized_SMILES>  (53) 
O=C1c2cc(-c3ccnc(NC4CCOCC4F)n3)cn2CCCN1[C@H](CO)c1cccc(Cl)c1

>  <Name>  (53) 
nan

>  <Pocket>  (53) 
nan

>  <ATP_Site>  (53) 
nan

>  <Peripheral>  (53) 
nan

>  <Num_H_Atoms_ProtBoundConf>  (53) 
nan

>  <Num_Resolved_Atoms>  (53) 
nan

>  <Num_Not_Resolved_Atoms>  (53) 
nan

$$$$
CHEMBL3608463
     RDKit          3D

  0  0  0  0  0  0  0  0  0  0999 V3000
M  V30 BEGIN CTAB
M  V30 COUNTS 63 68 0 0 0
M  V30 BEGIN ATOM
M  V30 1 O -1.353494 -1.696936 0.932447 0
M  V30 2 C -0.918694 -2.286234 -0.112818 0
M  V30 3 C 0.317237 -1.625713 -0.600931 0
M  V30 4 C 1.058627 -0.675153 0.066946 0
M  V30 5 C 2.083615 -0.400754 -0.813947 0
M  V30 6 C 3.145868 0.574297 -0.526881 0
M  V30 7 C 4.158452 0.827247 -1.428893 0
M  V30 8 C 5.111246 1.775409 -1.043381 0
M  V30 9 N 5.043527 2.415963 0.159689 0
M  V30 10 C 4.049248 2.140039 0.997550 0
M  V30 11 N 3.868004 2.738520 2.278398 0
M  V30 12 C 2.784004 2.427623 3.173520 0
M  V30 13 C 2.794433 3.187162 4.483647 0
M  V30 14 C 1.350881 3.428824 4.292940 0
M  V30 15 C 0.367373 2.718159 5.151306 0
M  V30 16 O -0.336335 3.933139 5.234579 0
M  V30 17 C 0.727092 4.705199 4.707329 0
M  V30 18 C 1.459454 3.101521 2.859959 0
M  V30 19 N 3.128179 1.233219 0.641789 0
M  V30 20 C 1.950946 -1.160880 -1.957283 0
M  V30 21 N 0.832848 -1.931040 -1.813352 0
M  V30 22 C 0.518826 -2.803925 -2.912243 0
M  V30 23 C -0.872191 -3.386616 -2.835660 0
M  V30 24 C -1.060086 -4.266276 -1.638158 0
M  V30 25 N -1.661543 -3.426636 -0.610281 0
M  V30 26 C -2.951468 -3.603979 0.017263 0 CFG=2
M  V30 27 C -3.015119 -4.888870 0.780488 0
M  V30 28 O -2.007464 -4.834198 1.767727 0
M  V30 29 C -4.109637 -3.342309 -0.856300 0
M  V30 30 C -5.187425 -2.574582 -0.380558 0
M  V30 31 C -6.341962 -2.233547 -1.048095 0
M  V30 32 C -6.458360 -2.698201 -2.335848 0
M  V30 33 C -5.455844 -3.460002 -2.895015 0
M  V30 34 C -4.338101 -3.748820 -2.147476 0
M  V30 35 H 0.817625 -0.297606 1.041158 0
M  V30 36 H 4.203416 0.316683 -2.376027 0
M  V30 37 H 5.938220 2.009949 -1.731327 0
M  V30 38 H 4.571052 3.463917 2.608670 0
M  V30 39 H 2.666216 1.345116 3.347380 0
M  V30 40 H 3.412936 4.115135 4.364278 0
M  V30 41 H 3.091959 2.577136 5.374462 0
M  V30 42 H -0.173670 1.894084 4.672037 0
M  V30 43 H 0.742170 2.483382 6.177087 0
M  V30 44 H 0.366789 5.381652 3.911202 0
M  V30 45 H 1.179196 5.272475 5.546610 0
M  V30 46 H 1.597240 3.983283 2.181065 0
M  V30 47 H 0.659361 2.409937 2.525391 0
M  V30 48 H 2.662738 -1.097999 -2.790270 0
M  V30 49 H 0.513186 -2.151067 -3.831869 0
M  V30 50 H 1.278653 -3.573991 -3.126069 0
M  V30 51 H -1.595965 -2.519722 -2.854554 0
M  V30 52 H -1.046053 -3.955117 -3.750323 0
M  V30 53 H -0.007870 -4.511739 -1.282576 0
M  V30 54 H -1.576328 -5.211715 -1.808607 0
M  V30 55 H -2.992639 -2.769458 0.788605 0
M  V30 56 H -2.870870 -5.783466 0.179296 0
M  V30 57 H -3.956630 -5.008574 1.351899 0
M  V30 58 H -1.162194 -4.991874 1.265356 0
M  V30 59 H -5.108741 -2.194449 0.651874 0
M  V30 60 H -7.092652 -1.634705 -0.559786 0
M  V30 61 H -7.328369 -2.472344 -2.915597 0
M  V30 62 H -5.541333 -3.827310 -3.904514 0
M  V30 63 H -3.585044 -4.345831 -2.623017 0
M  V30 END ATOM
M  V30 BEGIN BOND
M  V30 1 2 1 2
M  V30 2 1 2 3
M  V30 3 2 3 4
M  V30 4 1 4 5
M  V30 5 1 5 6
M  V30 6 2 6 7
M  V30 7 1 7 8
M  V30 8 2 8 9
M  V30 9 1 9 10
M  V30 10 1 10 11
M  V30 11 1 11 12
M  V30 12 1 12 13
M  V30 13 1 13 14
M  V30 14 1 14 15
M  V30 15 1 15 16
M  V30 16 1 16 17
M  V30 17 1 14 18
M  V30 18 2 10 19
M  V30 19 2 5 20
M  V30 20 1 20 21
M  V30 21 1 21 22
M  V30 22 1 22 23
M  V30 23 1 23 24
M  V30 24 1 24 25
M  V30 25 1 25 26
M  V30 26 1 26 27
M  V30 27 1 27 28
M  V30 28 1 26 29
M  V30 29 2 29 30
M  V30 30 1 30 31
M  V30 31 2 31 32
M  V30 32 1 32 33
M  V30 33 2 33 34
M  V30 34 1 25 2
M  V30 35 1 34 29
M  V30 36 1 21 3
M  V30 37 1 19 6
M  V30 38 1 18 12
M  V30 39 1 17 14
M  V30 40 1 4 35
M  V30 41 1 7 36
M  V30 42 1 8 37
M  V30 43 1 11 38
M  V30 44 1 12 39
M  V30 45 1 13 40
M  V30 46 1 13 41
M  V30 47 1 15 42
M  V30 48 1 15 43
M  V30 49 1 17 44
M  V30 50 1 17 45
M  V30 51 1 18 46
M  V30 52 1 18 47
M  V30 53 1 20 48
M  V30 54 1 22 49
M  V30 55 1 22 50
M  V30 56 1 23 51
M  V30 57 1 23 52
M  V30 58 1 24 53
M  V30 59 1 24 54
M  V30 60 1 26 55 CFG=1
M  V30 61 1 27 56
M  V30 62 1 27 57
M  V30 63 1 28 58
M  V30 64 1 30 59
M  V30 65 1 31 60
M  V30 66 1 32 61
M  V30 67 1 33 62
M  V30 68 1 34 63
M  V30 END BOND
M  V30 END CTAB
M  END
>  <Dataset>  (54) 
ChEMBL_Kinases

>  <Ligand_Instance>  (54) 
nan

>  <PDB_ID>  (54) 
nan

>  <Standardized_SMILES>  (54) 
O=C1c2cc(-c3ccnc(NC4CC5(COC5)C4)n3)cn2CCCN1[C@H](CO)c1ccccc1

>  <Name>  (54) 
nan

>  <Pocket>  (54) 
nan

>  <ATP_Site>  (54) 
nan

>  <Peripheral>  (54) 
nan

>  <Num_H_Atoms_ProtBoundConf>  (54) 
nan

>  <Num_Resolved_Atoms>  (54) 
nan

>  <Num_Not_Resolved_Atoms>  (54) 
nan

$$$$
CHEMBL3608462
     RDKit          3D

  0  0  0  0  0  0  0  0  0  0999 V3000
M  V30 BEGIN CTAB
M  V30 COUNTS 62 66 0 0 0
M  V30 BEGIN ATOM
M  V30 1 O 0.116904 -4.638135 0.120347 0
M  V30 2 C -0.589996 -3.641498 -0.163260 0
M  V30 3 C -0.000430 -2.287133 -0.113800 0
M  V30 4 C 1.339553 -2.109548 0.165236 0
M  V30 5 C 1.572674 -0.750693 0.137668 0
M  V30 6 C 2.856559 -0.083079 0.376497 0
M  V30 7 C 3.967117 -0.834879 0.659226 0
M  V30 8 C 5.148205 -0.157269 0.875347 0
M  V30 9 N 5.210343 1.180397 0.812181 0
M  V30 10 C 4.109247 1.935953 0.531295 0
M  V30 11 N 4.158315 3.355512 0.460272 0
M  V30 12 C 3.033316 4.206837 0.169435 0
M  V30 13 C 3.450012 5.660412 0.169904 0
M  V30 14 C 3.292439 6.328032 1.499107 0
M  V30 15 O 1.918063 6.242018 1.820411 0
M  V30 16 C 1.732121 4.922167 2.213839 0
M  V30 17 C 1.835705 3.960438 1.055426 0
M  V30 18 N 2.984101 1.238941 0.328361 0
M  V30 19 C 0.371906 -0.134459 -0.156830 0
M  V30 20 N -0.569177 -1.080958 -0.305703 0
M  V30 21 C -1.998360 -0.923499 -0.623275 0
M  V30 22 C -2.286880 -1.854957 -1.748603 0
M  V30 23 C -2.820734 -3.194595 -1.375964 0
M  V30 24 N -1.937230 -3.948926 -0.514870 0
M  V30 25 C -2.495503 -5.156850 0.052600 0 CFG=2
M  V30 26 C -2.863671 -6.202500 -0.942028 0
M  V30 27 O -3.796040 -5.858032 -1.879615 0
M  V30 28 C -3.580302 -4.833126 1.006525 0
M  V30 29 C -3.213223 -3.785073 1.857757 0
M  V30 30 C -4.079690 -3.317472 2.831608 0
M  V30 31 C -5.346912 -3.891058 2.980616 0
M  V30 32 C -5.682496 -4.923214 2.127324 0
M  V30 33 C -4.836086 -5.404766 1.150885 0
M  V30 34 H 2.050381 -2.887145 0.363198 0
M  V30 35 H 3.856829 -1.900349 0.696419 0
M  V30 36 H 6.029663 -0.743794 1.099186 0
M  V30 37 H 5.100439 3.799898 0.637316 0
M  V30 38 H 2.718811 3.971335 -0.869366 0
M  V30 39 H 2.806321 6.242447 -0.551631 0
M  V30 40 H 4.476289 5.733365 -0.242284 0
M  V30 41 H 3.891429 5.879596 2.303861 0
M  V30 42 H 3.545342 7.382232 1.387513 0
M  V30 43 H 0.695717 4.861277 2.601760 0
M  V30 44 H 2.419114 4.655076 3.044204 0
M  V30 45 H 0.879941 4.068496 0.469336 0
M  V30 46 H 1.809307 2.946784 1.492383 0
M  V30 47 H 0.165962 0.909743 -0.261137 0
M  V30 48 H -2.226907 0.133734 -0.876396 0
M  V30 49 H -2.593517 -1.185232 0.273531 0
M  V30 50 H -1.422120 -1.949304 -2.436024 0
M  V30 51 H -3.087216 -1.367501 -2.370215 0
M  V30 52 H -2.860462 -3.769192 -2.348622 0
M  V30 53 H -3.834040 -3.109185 -0.968588 0
M  V30 54 H -1.689695 -5.618262 0.689156 0
M  V30 55 H -3.216069 -7.078681 -0.392967 0
M  V30 56 H -1.920180 -6.470927 -1.486628 0
M  V30 57 H -4.599122 -6.451547 -1.898251 0
M  V30 58 H -2.264636 -3.252638 1.850758 0
M  V30 59 H -3.834818 -2.507163 3.512149 0
M  V30 60 H -6.039189 -3.539884 3.735954 0
M  V30 61 H -6.650487 -5.406612 2.195215 0
M  V30 62 H -5.008120 -6.187794 0.455961 0
M  V30 END ATOM
M  V30 BEGIN BOND
M  V30 1 2 1 2
M  V30 2 1 2 3
M  V30 3 2 3 4
M  V30 4 1 4 5
M  V30 5 1 5 6
M  V30 6 2 6 7
M  V30 7 1 7 8
M  V30 8 2 8 9
M  V30 9 1 9 10
M  V30 10 1 10 11
M  V30 11 1 11 12
M  V30 12 1 12 13
M  V30 13 1 13 14
M  V30 14 1 14 15
M  V30 15 1 15 16
M  V30 16 1 16 17
M  V30 17 2 10 18
M  V30 18 2 5 19
M  V30 19 1 19 20
M  V30 20 1 20 21
M  V30 21 1 21 22
M  V30 22 1 22 23
M  V30 23 1 23 24
M  V30 24 1 24 25
M  V30 25 1 25 26
M  V30 26 1 26 27
M  V30 27 1 25 28
M  V30 28 2 28 29
M  V30 29 1 29 30
M  V30 30 2 30 31
M  V30 31 1 31 32
M  V30 32 2 32 33
M  V30 33 1 24 2
M  V30 34 1 33 28
M  V30 35 1 20 3
M  V30 36 1 18 6
M  V30 37 1 17 12
M  V30 38 1 4 34
M  V30 39 1 7 35
M  V30 40 1 8 36
M  V30 41 1 11 37
M  V30 42 1 12 38
M  V30 43 1 13 39
M  V30 44 1 13 40
M  V30 45 1 14 41
M  V30 46 1 14 42
M  V30 47 1 16 43
M  V30 48 1 16 44
M  V30 49 1 17 45
M  V30 50 1 17 46
M  V30 51 1 19 47
M  V30 52 1 21 48
M  V30 53 1 21 49
M  V30 54 1 22 50
M  V30 55 1 22 51
M  V30 56 1 23 52
M  V30 57 1 23 53
M  V30 58 1 25 54 CFG=1
M  V30 59 1 26 55
M  V30 60 1 26 56
M  V30 61 1 27 57
M  V30 62 1 29 58
M  V30 63 1 30 59
M  V30 64 1 31 60
M  V30 65 1 32 61
M  V30 66 1 33 62
M  V30 END BOND
M  V30 END CTAB
M  END
>  <Dataset>  (55) 
ChEMBL_Kinases

>  <Ligand_Instance>  (55) 
nan

>  <PDB_ID>  (55) 
nan

>  <Standardized_SMILES>  (55) 
O=C1c2cc(-c3ccnc(NC4CCOCC4)n3)cn2CCCN1[C@H](CO)c1ccccc1

>  <Name>  (55) 
nan

>  <Pocket>  (55) 
nan

>  <ATP_Site>  (55) 
nan

>  <Peripheral>  (55) 
nan

>  <Num_H_Atoms_ProtBoundConf>  (55) 
nan

>  <Num_Resolved_Atoms>  (55) 
nan

>  <Num_Not_Resolved_Atoms>  (55) 
nan

$$$$
CHEMBL3608461
     RDKit          3D

  0  0  0  0  0  0  0  0  0  0999 V3000
M  V30 BEGIN CTAB
M  V30 COUNTS 62 66 0 0 0
M  V30 BEGIN ATOM
M  V30 1 O 0.096999 -4.696325 -0.177197 0
M  V30 2 C -0.673354 -3.793469 0.224151 0
M  V30 3 C -0.173296 -2.491902 0.708510 0
M  V30 4 C 1.169625 -2.226397 0.532423 0
M  V30 5 C 1.327772 -0.962825 1.074881 0
M  V30 6 C 2.550949 -0.173775 1.164604 0
M  V30 7 C 3.732433 -0.685646 0.669017 0
M  V30 8 C 4.920166 0.015115 0.726248 0
M  V30 9 N 4.868133 1.241272 1.298157 0
M  V30 10 C 3.740130 1.768285 1.788820 0
M  V30 11 N 3.720392 3.061113 2.384072 0
M  V30 12 C 2.480374 3.609683 2.909322 0 CFG=1
M  V30 13 C 2.637741 4.976461 3.499368 0
M  V30 14 C 1.240034 5.545800 3.492744 0
M  V30 15 C 0.689612 5.058054 2.178968 0 CFG=1
M  V30 16 O 0.730586 6.052750 1.191516 0
M  V30 17 C 1.476844 3.848871 1.782949 0
M  V30 18 N 2.601597 1.050507 1.712912 0
M  V30 19 C 0.114670 -0.510569 1.550254 0
M  V30 20 N -0.806253 -1.462573 1.319137 0
M  V30 21 C -2.250704 -1.554843 1.597173 0
M  V30 22 C -2.542387 -2.902735 2.179897 0
M  V30 23 C -3.006397 -3.936869 1.225589 0
M  V30 24 N -2.040141 -4.221210 0.135509 0
M  V30 25 C -2.596745 -4.911970 -0.942458 0 CFG=2
M  V30 26 C -2.057354 -6.128590 -1.526893 0
M  V30 27 O -0.790157 -6.069697 -2.084320 0
M  V30 28 C -2.721428 -3.922925 -2.090646 0
M  V30 29 C -1.803801 -3.015286 -2.563407 0
M  V30 30 C -2.036703 -2.179780 -3.604972 0
M  V30 31 C -3.227071 -2.195281 -4.258126 0
M  V30 32 C -4.214870 -3.058757 -3.873219 0
M  V30 33 Cl -5.762659 -3.124051 -4.673457 0
M  V30 34 C -3.922300 -3.876507 -2.817318 0
M  V30 35 H 1.942090 -2.812142 0.093638 0
M  V30 36 H 3.719500 -1.673151 0.220565 0
M  V30 37 H 5.841583 -0.401799 0.331654 0
M  V30 38 H 4.614110 3.603329 2.434026 0
M  V30 39 H 2.032989 2.949460 3.697490 0
M  V30 40 H 3.358381 5.620441 2.963058 0
M  V30 41 H 2.923314 4.844150 4.572222 0
M  V30 42 H 0.664825 5.074922 4.301705 0
M  V30 43 H 1.222760 6.652528 3.538188 0
M  V30 44 H -0.381856 4.740044 2.264025 0
M  V30 45 H 0.622789 5.580151 0.331026 0
M  V30 46 H 0.873666 2.914342 1.731703 0
M  V30 47 H 1.992839 3.941971 0.805635 0
M  V30 48 H -0.207705 0.399338 2.037501 0
M  V30 49 H -2.466350 -0.713626 2.287533 0
M  V30 50 H -2.829509 -1.343427 0.669310 0
M  V30 51 H -1.623103 -3.219114 2.726932 0
M  V30 52 H -3.328857 -2.781914 2.957632 0
M  V30 53 H -3.297981 -4.839067 1.765023 0
M  V30 54 H -3.925815 -3.528633 0.712223 0
M  V30 55 H -3.681980 -5.129394 -0.674504 0
M  V30 56 H -2.713242 -6.334576 -2.434644 0
M  V30 57 H -2.218942 -7.065705 -0.941778 0
M  V30 58 H -0.234209 -6.846837 -1.902481 0
M  V30 59 H -0.855379 -2.994263 -2.057187 0
M  V30 60 H -1.223706 -1.500216 -3.887870 0
M  V30 61 H -3.366418 -1.518608 -5.073938 0
M  V30 62 H -4.727412 -4.566374 -2.519187 0
M  V30 END ATOM
M  V30 BEGIN BOND
M  V30 1 2 1 2
M  V30 2 1 2 3
M  V30 3 2 3 4
M  V30 4 1 4 5
M  V30 5 1 5 6
M  V30 6 2 6 7
M  V30 7 1 7 8
M  V30 8 2 8 9
M  V30 9 1 9 10
M  V30 10 1 10 11
M  V30 11 1 11 12
M  V30 12 1 12 13
M  V30 13 1 13 14
M  V30 14 1 14 15
M  V30 15 1 15 16
M  V30 16 1 15 17
M  V30 17 2 10 18
M  V30 18 2 5 19
M  V30 19 1 19 20
M  V30 20 1 20 21
M  V30 21 1 21 22
M  V30 22 1 22 23
M  V30 23 1 23 24
M  V30 24 1 24 25
M  V30 25 1 25 26
M  V30 26 1 26 27
M  V30 27 1 25 28
M  V30 28 2 28 29
M  V30 29 1 29 30
M  V30 30 2 30 31
M  V30 31 1 31 32
M  V30 32 1 32 33
M  V30 33 2 32 34
M  V30 34 1 24 2
M  V30 35 1 34 28
M  V30 36 1 20 3
M  V30 37 1 18 6
M  V30 38 1 17 12
M  V30 39 1 4 35
M  V30 40 1 7 36
M  V30 41 1 8 37
M  V30 42 1 11 38
M  V30 43 1 12 39 CFG=1
M  V30 44 1 13 40
M  V30 45 1 13 41
M  V30 46 1 14 42
M  V30 47 1 14 43
M  V30 48 1 15 44 CFG=1
M  V30 49 1 16 45
M  V30 50 1 17 46
M  V30 51 1 17 47
M  V30 52 1 19 48
M  V30 53 1 21 49
M  V30 54 1 21 50
M  V30 55 1 22 51
M  V30 56 1 22 52
M  V30 57 1 23 53
M  V30 58 1 23 54
M  V30 59 1 25 55 CFG=1
M  V30 60 1 26 56
M  V30 61 1 26 57
M  V30 62 1 27 58
M  V30 63 1 29 59
M  V30 64 1 30 60
M  V30 65 1 31 61
M  V30 66 1 34 62
M  V30 END BOND
M  V30 END CTAB
M  END
>  <Dataset>  (56) 
ChEMBL_Kinases

>  <Ligand_Instance>  (56) 
nan

>  <PDB_ID>  (56) 
nan

>  <Standardized_SMILES>  (56) 
O=C1c2cc(-c3ccnc(N[C@H]4CC[C@@H](O)C4)n3)cn2CCCN1[C@H](CO)c1cccc(Cl)c1

>  <Name>  (56) 
nan

>  <Pocket>  (56) 
nan

>  <ATP_Site>  (56) 
nan

>  <Peripheral>  (56) 
nan

>  <Num_H_Atoms_ProtBoundConf>  (56) 
nan

>  <Num_Resolved_Atoms>  (56) 
nan

>  <Num_Not_Resolved_Atoms>  (56) 
nan

$$$$
CHEMBL3608460
     RDKit          3D

  0  0  0  0  0  0  0  0  0  0999 V3000
M  V30 BEGIN CTAB
M  V30 COUNTS 62 66 0 0 0
M  V30 BEGIN ATOM
M  V30 1 O -0.272139 -3.824331 -0.492920 0
M  V30 2 C -1.001804 -3.033767 0.138675 0
M  V30 3 C -0.308009 -1.775286 0.389744 0
M  V30 4 C 0.919849 -1.376249 -0.124966 0
M  V30 5 C 1.238407 -0.117543 0.347471 0
M  V30 6 C 2.420573 0.698209 0.078419 0
M  V30 7 C 3.422346 0.247661 -0.748154 0
M  V30 8 C 4.568021 0.952887 -1.053469 0
M  V30 9 N 4.688803 2.167473 -0.487735 0
M  V30 10 C 3.723355 2.658974 0.338921 0
M  V30 11 N 3.843745 3.939060 0.939363 0
M  V30 12 C 2.838519 4.465118 1.807146 0 CFG=1
M  V30 13 C 1.476393 4.612685 1.164814 0
M  V30 14 C 0.492910 4.379864 2.281350 0
M  V30 15 C 1.279252 4.180381 3.536852 0 CFG=1
M  V30 16 O 0.661172 3.310490 4.431365 0
M  V30 17 C 2.615967 3.654778 3.066426 0
M  V30 18 N 2.619364 1.921268 0.602627 0
M  V30 19 C 0.191852 0.261324 1.163346 0
M  V30 20 N -0.706323 -0.740984 1.167192 0
M  V30 21 C -1.943960 -0.674092 1.932146 0
M  V30 22 C -3.058460 -1.154742 1.009732 0
M  V30 23 C -3.305049 -2.642505 1.189704 0
M  V30 24 N -2.312315 -3.449213 0.495500 0
M  V30 25 C -2.660359 -4.771344 0.132234 0 CFG=2
M  V30 26 C -1.834139 -5.876675 0.685095 0
M  V30 27 O -1.893782 -5.851646 2.099103 0
M  V30 28 C -2.596539 -4.854938 -1.353231 0
M  V30 29 C -1.983618 -5.932994 -2.001618 0
M  V30 30 C -1.923184 -6.012411 -3.394067 0
M  V30 31 C -2.493523 -4.982702 -4.104582 0
M  V30 32 C -3.114646 -3.888255 -3.545128 0
M  V30 33 C -3.126342 -3.895323 -2.165577 0
M  V30 34 H 1.521666 -1.965000 -0.788631 0
M  V30 35 H 3.320428 -0.732070 -1.201830 0
M  V30 36 H 5.309192 0.519505 -1.717509 0
M  V30 37 H 4.708554 4.499669 0.724175 0
M  V30 38 H 3.127658 5.480602 2.152118 0
M  V30 39 H 1.311707 5.630183 0.755062 0
M  V30 40 H 1.324781 3.903723 0.319007 0
M  V30 41 H -0.209332 5.258496 2.377017 0
M  V30 42 H -0.205322 3.525314 2.059885 0
M  V30 43 H 1.409323 5.146479 4.067720 0
M  V30 44 H -0.307549 3.436620 4.431552 0
M  V30 45 H 2.595793 2.572005 2.895401 0
M  V30 46 H 3.369111 3.923910 3.855107 0
M  V30 47 H 0.072020 1.167776 1.709577 0
M  V30 48 H -1.851693 -1.407127 2.754943 0
M  V30 49 H -2.115994 0.362162 2.285097 0
M  V30 50 H -3.972819 -0.565316 1.095348 0
M  V30 51 H -2.733542 -1.035203 -0.064183 0
M  V30 52 H -4.322676 -2.871931 0.786291 0
M  V30 53 H -3.309294 -2.911706 2.286055 0
M  V30 54 H -3.714671 -4.963131 0.473098 0
M  V30 55 H -0.818009 -5.978166 0.310604 0
M  V30 56 H -2.361813 -6.821600 0.424770 0
M  V30 57 H -1.854776 -6.758540 2.460939 0
M  V30 58 H -1.545326 -6.724549 -1.443043 0
M  V30 59 H -1.439926 -6.863562 -3.846601 0
M  V30 60 H -2.427443 -5.078421 -5.188025 0
M  V30 61 H -3.539022 -3.120369 -4.156383 0
M  V30 62 H -3.608545 -3.047169 -1.659630 0
M  V30 END ATOM
M  V30 BEGIN BOND
M  V30 1 2 1 2
M  V30 2 1 2 3
M  V30 3 2 3 4
M  V30 4 1 4 5
M  V30 5 1 5 6
M  V30 6 2 6 7
M  V30 7 1 7 8
M  V30 8 2 8 9
M  V30 9 1 9 10
M  V30 10 1 10 11
M  V30 11 1 11 12
M  V30 12 1 12 13
M  V30 13 1 13 14
M  V30 14 1 14 15
M  V30 15 1 15 16
M  V30 16 1 15 17
M  V30 17 2 10 18
M  V30 18 2 5 19
M  V30 19 1 19 20
M  V30 20 1 20 21
M  V30 21 1 21 22
M  V30 22 1 22 23
M  V30 23 1 23 24
M  V30 24 1 24 25
M  V30 25 1 25 26
M  V30 26 1 26 27
M  V30 27 1 25 28
M  V30 28 2 28 29
M  V30 29 1 29 30
M  V30 30 2 30 31
M  V30 31 1 31 32
M  V30 32 2 32 33
M  V30 33 1 24 2
M  V30 34 1 33 28
M  V30 35 1 20 3
M  V30 36 1 18 6
M  V30 37 1 17 12
M  V30 38 1 4 34
M  V30 39 1 7 35
M  V30 40 1 8 36
M  V30 41 1 11 37
M  V30 42 1 12 38 CFG=1
M  V30 43 1 13 39
M  V30 44 1 13 40
M  V30 45 1 14 41
M  V30 46 1 14 42
M  V30 47 1 15 43 CFG=1
M  V30 48 1 16 44
M  V30 49 1 17 45
M  V30 50 1 17 46
M  V30 51 1 19 47
M  V30 52 1 21 48
M  V30 53 1 21 49
M  V30 54 1 22 50
M  V30 55 1 22 51
M  V30 56 1 23 52
M  V30 57 1 23 53
M  V30 58 1 25 54 CFG=3
M  V30 59 1 26 55
M  V30 60 1 26 56
M  V30 61 1 27 57
M  V30 62 1 29 58
M  V30 63 1 30 59
M  V30 64 1 31 60
M  V30 65 1 32 61
M  V30 66 1 33 62
M  V30 END BOND
M  V30 END CTAB
M  END
>  <Dataset>  (57) 
ChEMBL_Kinases

>  <Ligand_Instance>  (57) 
nan

>  <PDB_ID>  (57) 
nan

>  <Standardized_SMILES>  (57) 
O=C1c2cc(-c3ccnc(N[C@H]4CC[C@@H](O)C4)n3)cn2CCCN1[C@H](CO)c1ccccc1

>  <Name>  (57) 
nan

>  <Pocket>  (57) 
nan

>  <ATP_Site>  (57) 
nan

>  <Peripheral>  (57) 
nan

>  <Num_H_Atoms_ProtBoundConf>  (57) 
nan

>  <Num_Resolved_Atoms>  (57) 
nan

>  <Num_Not_Resolved_Atoms>  (57) 
nan

$$$$
CHEMBL3608459
     RDKit          3D

  0  0  0  0  0  0  0  0  0  0999 V3000
M  V30 BEGIN CTAB
M  V30 COUNTS 62 66 0 0 0
M  V30 BEGIN ATOM
M  V30 1 O 0.547471 -3.497619 -1.180292 0
M  V30 2 C -0.216901 -3.657676 -0.192342 0
M  V30 3 C -0.211180 -2.766794 0.970423 0
M  V30 4 C 0.468288 -1.567680 0.887474 0
M  V30 5 C 0.280056 -0.981813 2.124497 0
M  V30 6 C 0.802581 0.315136 2.556117 0
M  V30 7 C 0.551751 0.793698 3.804381 0
M  V30 8 C 1.061292 2.025468 4.181184 0
M  V30 9 N 1.808553 2.735716 3.285178 0
M  V30 10 C 2.049356 2.251262 2.053742 0
M  V30 11 N 2.828410 2.999460 1.129865 0
M  V30 12 C 3.333927 4.293809 1.599444 0 CFG=2
M  V30 13 C 2.219652 5.211891 1.983770 0
M  V30 14 C 2.397678 6.451009 1.132354 0 CFG=2
M  V30 15 O 1.162091 7.045430 0.855130 0
M  V30 16 C 3.053808 5.911852 -0.106030 0
M  V30 17 F 3.625601 6.922774 -0.835611 0
M  V30 18 F 2.192099 5.163670 -0.877375 0
M  V30 19 C 4.116354 4.990881 0.507723 0
M  V30 20 N 1.545217 1.053592 1.708719 0
M  V30 21 C -0.490528 -1.825865 2.900710 0
M  V30 22 N -0.786683 -2.921976 2.178511 0
M  V30 23 C -1.575354 -4.113918 2.538999 0
M  V30 24 C -0.921213 -5.340639 2.005132 0
M  V30 25 C -1.334881 -5.782916 0.652277 0
M  V30 26 N -1.034187 -4.806514 -0.421494 0
M  V30 27 C -1.686374 -5.189495 -1.615942 0 CFG=2
M  V30 28 C -0.958066 -5.239140 -2.896707 0
M  V30 29 O -0.420132 -4.086267 -3.393447 0
M  V30 30 C -2.831545 -4.211349 -1.837697 0
M  V30 31 C -4.088388 -4.704801 -2.219988 0
M  V30 32 C -5.222899 -3.970540 -2.460924 0
M  V30 33 C -5.102377 -2.609854 -2.308319 0
M  V30 34 C -3.909087 -2.043940 -1.936783 0
M  V30 35 Cl -3.726976 -0.314369 -1.735025 0
M  V30 36 C -2.815037 -2.843422 -1.712528 0
M  V30 37 H 1.016327 -1.178661 0.056032 0
M  V30 38 H -0.053191 0.157782 4.449290 0
M  V30 39 H 0.839352 2.374620 5.187434 0
M  V30 40 H 3.009602 2.614801 0.176556 0
M  V30 41 H 4.001555 4.062440 2.454798 0
M  V30 42 H 2.314376 5.563349 3.037487 0
M  V30 43 H 1.211020 4.805964 1.805284 0
M  V30 44 H 3.090233 7.198428 1.582883 0
M  V30 45 H 0.464101 6.365840 1.048502 0
M  V30 46 H 4.543519 4.307023 -0.230951 0
M  V30 47 H 4.922550 5.622605 0.938054 0
M  V30 48 H -0.844264 -1.715596 3.915176 0
M  V30 49 H -2.589192 -3.996619 2.113544 0
M  V30 50 H -1.667519 -4.168520 3.657684 0
M  V30 51 H -0.989142 -6.213750 2.676998 0
M  V30 52 H 0.180855 -5.103551 1.943448 0
M  V30 53 H -2.418504 -6.011650 0.661866 0
M  V30 54 H -0.814861 -6.702429 0.383877 0
M  V30 55 H -2.220347 -6.181754 -1.496439 0
M  V30 56 H -1.718605 -5.559488 -3.677978 0
M  V30 57 H -0.216908 -6.101417 -2.944186 0
M  V30 58 H -0.395636 -4.084157 -4.383075 0
M  V30 59 H -4.198915 -5.779301 -2.345005 0
M  V30 60 H -6.142944 -4.441358 -2.750417 0
M  V30 61 H -5.948105 -1.960851 -2.478934 0
M  V30 62 H -1.888916 -2.385053 -1.423345 0
M  V30 END ATOM
M  V30 BEGIN BOND
M  V30 1 2 1 2
M  V30 2 1 2 3
M  V30 3 2 3 4
M  V30 4 1 4 5
M  V30 5 1 5 6
M  V30 6 2 6 7
M  V30 7 1 7 8
M  V30 8 2 8 9
M  V30 9 1 9 10
M  V30 10 1 10 11
M  V30 11 1 11 12
M  V30 12 1 12 13
M  V30 13 1 13 14
M  V30 14 1 14 15
M  V30 15 1 14 16
M  V30 16 1 16 17
M  V30 17 1 16 18
M  V30 18 1 16 19
M  V30 19 2 10 20
M  V30 20 2 5 21
M  V30 21 1 21 22
M  V30 22 1 22 23
M  V30 23 1 23 24
M  V30 24 1 24 25
M  V30 25 1 25 26
M  V30 26 1 26 27
M  V30 27 1 27 28
M  V30 28 1 28 29
M  V30 29 1 27 30
M  V30 30 2 30 31
M  V30 31 1 31 32
M  V30 32 2 32 33
M  V30 33 1 33 34
M  V30 34 1 34 35
M  V30 35 2 34 36
M  V30 36 1 26 2
M  V30 37 1 36 30
M  V30 38 1 22 3
M  V30 39 1 20 6
M  V30 40 1 19 12
M  V30 41 1 4 37
M  V30 42 1 7 38
M  V30 43 1 8 39
M  V30 44 1 11 40
M  V30 45 1 12 41 CFG=1
M  V30 46 1 13 42
M  V30 47 1 13 43
M  V30 48 1 14 44 CFG=1
M  V30 49 1 15 45
M  V30 50 1 19 46
M  V30 51 1 19 47
M  V30 52 1 21 48
M  V30 53 1 23 49
M  V30 54 1 23 50
M  V30 55 1 24 51
M  V30 56 1 24 52
M  V30 57 1 25 53
M  V30 58 1 25 54
M  V30 59 1 27 55 CFG=1
M  V30 60 1 28 56
M  V30 61 1 28 57
M  V30 62 1 29 58
M  V30 63 1 31 59
M  V30 64 1 32 60
M  V30 65 1 33 61
M  V30 66 1 36 62
M  V30 END BOND
M  V30 END CTAB
M  END
>  <Dataset>  (58) 
ChEMBL_Kinases

>  <Ligand_Instance>  (58) 
nan

>  <PDB_ID>  (58) 
nan

>  <Standardized_SMILES>  (58) 
O=C1c2cc(-c3ccnc(N[C@@H]4C[C@H](O)C(F)(F)C4)n3)cn2CCCN1[C@H](CO)c1cccc(Cl)c1

>  <Name>  (58) 
nan

>  <Pocket>  (58) 
nan

>  <ATP_Site>  (58) 
nan

>  <Peripheral>  (58) 
nan

>  <Num_H_Atoms_ProtBoundConf>  (58) 
nan

>  <Num_Resolved_Atoms>  (58) 
nan

>  <Num_Not_Resolved_Atoms>  (58) 
nan

$$$$
CHEMBL3608458
     RDKit          3D

  0  0  0  0  0  0  0  0  0  0999 V3000
M  V30 BEGIN CTAB
M  V30 COUNTS 62 66 0 0 0
M  V30 BEGIN ATOM
M  V30 1 O 0.178418 -4.435348 -0.082568 0
M  V30 2 C -0.829144 -3.897884 0.438091 0
M  V30 3 C -0.611682 -2.547474 1.000493 0
M  V30 4 C 0.411520 -1.695073 0.593535 0
M  V30 5 C 0.260838 -0.554444 1.358422 0
M  V30 6 C 1.111395 0.637096 1.289305 0
M  V30 7 C 2.167473 0.676544 0.402967 0
M  V30 8 C 2.929723 1.825724 0.387901 0
M  V30 9 N 2.613571 2.832002 1.220423 0
M  V30 10 C 1.596891 2.822022 2.089045 0
M  V30 11 N 1.342511 3.932736 2.925901 0
M  V30 12 C 2.215831 5.085925 2.814858 0 CFG=2
M  V30 13 C 2.210505 5.696225 1.457211 0
M  V30 14 C 3.626702 5.946783 1.023884 0 CFG=2
M  V30 15 O 3.805704 5.533779 -0.292881 0
M  V30 16 C 4.506707 5.205653 1.979747 0 CFG=1
M  V30 17 F 5.526677 6.035672 2.454692 0
M  V30 18 C 3.635858 4.763906 3.130394 0
M  V30 19 N 0.858629 1.697185 2.097321 0
M  V30 20 C -0.821928 -0.715064 2.201936 0
M  V30 21 N -1.358715 -1.952512 1.975498 0
M  V30 22 C -2.523781 -2.517254 2.667604 0
M  V30 23 C -3.425396 -3.233515 1.686935 0
M  V30 24 C -3.035739 -4.682177 1.494093 0
M  V30 25 N -2.037980 -4.671693 0.410077 0
M  V30 26 C -2.267121 -5.465902 -0.768026 0 CFG=2
M  V30 27 C -1.315902 -6.582113 -1.006315 0
M  V30 28 O -1.367092 -7.460248 0.088129 0
M  V30 29 C -2.624515 -4.676605 -1.976813 0
M  V30 30 C -2.086039 -3.483177 -2.403395 0
M  V30 31 C -2.473475 -2.829641 -3.540063 0
M  V30 32 C -3.446284 -3.340369 -4.339693 0
M  V30 33 C -4.041009 -4.519862 -4.000649 0
M  V30 34 C -3.620803 -5.136466 -2.856141 0
M  V30 35 H 1.131620 -1.932321 -0.158140 0
M  V30 36 H 2.392616 -0.149016 -0.249311 0
M  V30 37 H 3.782303 1.952969 -0.273062 0
M  V30 38 H 0.532030 3.858332 3.583122 0
M  V30 39 H 1.816460 5.825900 3.546296 0
M  V30 40 H 1.710801 6.697350 1.489048 0
M  V30 41 H 1.646027 5.077748 0.721117 0
M  V30 42 H 3.900991 7.021714 1.061248 0
M  V30 43 H 3.029812 4.962142 -0.542050 0
M  V30 44 H 4.995808 4.353556 1.467186 0
M  V30 45 H 3.944559 5.317258 4.050804 0
M  V30 46 H 3.699144 3.663355 3.282975 0
M  V30 47 H -1.208819 -0.006265 2.930536 0
M  V30 48 H -3.133056 -1.693521 3.101232 0
M  V30 49 H -2.202454 -3.227506 3.453099 0
M  V30 50 H -4.502317 -3.133691 1.949144 0
M  V30 51 H -3.320746 -2.657205 0.726476 0
M  V30 52 H -3.893573 -5.302533 1.163423 0
M  V30 53 H -2.593102 -5.043043 2.438827 0
M  V30 54 H -3.258498 -5.993919 -0.530261 0
M  V30 55 H -0.292886 -6.331405 -1.273115 0
M  V30 56 H -1.708899 -7.192751 -1.881946 0
M  V30 57 H -1.385752 -8.400315 -0.227867 0
M  V30 58 H -1.328703 -3.041328 -1.814261 0
M  V30 59 H -1.993368 -1.885823 -3.805025 0
M  V30 60 H -3.748259 -2.818906 -5.237211 0
M  V30 61 H -4.813477 -4.957694 -4.604990 0
M  V30 62 H -4.111793 -6.079757 -2.605503 0
M  V30 END ATOM
M  V30 BEGIN BOND
M  V30 1 2 1 2
M  V30 2 1 2 3
M  V30 3 2 3 4
M  V30 4 1 4 5
M  V30 5 1 5 6
M  V30 6 2 6 7
M  V30 7 1 7 8
M  V30 8 2 8 9
M  V30 9 1 9 10
M  V30 10 1 10 11
M  V30 11 1 11 12
M  V30 12 1 12 13
M  V30 13 1 13 14
M  V30 14 1 14 15
M  V30 15 1 14 16
M  V30 16 1 16 17
M  V30 17 1 16 18
M  V30 18 2 10 19
M  V30 19 2 5 20
M  V30 20 1 20 21
M  V30 21 1 21 22
M  V30 22 1 22 23
M  V30 23 1 23 24
M  V30 24 1 24 25
M  V30 25 1 25 26
M  V30 26 1 26 27
M  V30 27 1 27 28
M  V30 28 1 26 29
M  V30 29 2 29 30
M  V30 30 1 30 31
M  V30 31 2 31 32
M  V30 32 1 32 33
M  V30 33 2 33 34
M  V30 34 1 25 2
M  V30 35 1 34 29
M  V30 36 1 21 3
M  V30 37 1 19 6
M  V30 38 1 18 12
M  V30 39 1 4 35
M  V30 40 1 7 36
M  V30 41 1 8 37
M  V30 42 1 11 38
M  V30 43 1 12 39 CFG=1
M  V30 44 1 13 40
M  V30 45 1 13 41
M  V30 46 1 14 42 CFG=3
M  V30 47 1 15 43
M  V30 48 1 16 44 CFG=3
M  V30 49 1 18 45
M  V30 50 1 18 46
M  V30 51 1 20 47
M  V30 52 1 22 48
M  V30 53 1 22 49
M  V30 54 1 23 50
M  V30 55 1 23 51
M  V30 56 1 24 52
M  V30 57 1 24 53
M  V30 58 1 26 54 CFG=1
M  V30 59 1 27 55
M  V30 60 1 27 56
M  V30 61 1 28 57
M  V30 62 1 30 58
M  V30 63 1 31 59
M  V30 64 1 32 60
M  V30 65 1 33 61
M  V30 66 1 34 62
M  V30 END BOND
M  V30 END CTAB
M  END
>  <Dataset>  (59) 
ChEMBL_Kinases

>  <Ligand_Instance>  (59) 
nan

>  <PDB_ID>  (59) 
nan

>  <Standardized_SMILES>  (59) 
O=C1c2cc(-c3ccnc(N[C@@H]4C[C@H](O)[C@@H](F)C4)n3)cn2CCCN1[C@H](CO)c1ccccc1

>  <Name>  (59) 
nan

>  <Pocket>  (59) 
nan

>  <ATP_Site>  (59) 
nan

>  <Peripheral>  (59) 
nan

>  <Num_H_Atoms_ProtBoundConf>  (59) 
nan

>  <Num_Resolved_Atoms>  (59) 
nan

>  <Num_Not_Resolved_Atoms>  (59) 
nan

$$$$
CHEMBL360691
     RDKit          3D

  0  0  0  0  0  0  0  0  0  0999 V3000
M  V30 BEGIN CTAB
M  V30 COUNTS 59 61 0 0 0
M  V30 BEGIN ATOM
M  V30 1 C 2.225031 1.306781 -3.051700 0
M  V30 2 C 1.589424 0.803931 -1.762491 0
M  V30 3 C 1.880553 -0.637560 -1.519092 0
M  V30 4 C 3.295322 -1.026823 -1.384209 0
M  V30 5 C 4.095095 -0.508716 -0.249327 0
M  V30 6 C 3.660157 -0.921398 1.113827 0
M  V30 7 O 2.421886 -0.515658 1.540659 0
M  V30 8 C 1.898926 0.704788 1.800018 0
M  V30 9 C 2.382203 1.996583 1.756659 0
M  V30 10 C 1.624031 3.098654 2.082207 0
M  V30 11 C 0.315887 2.905035 2.471629 0
M  V30 12 C -0.235401 1.645525 2.538882 0
M  V30 13 O -1.555055 1.580367 2.942523 0
M  V30 14 C 0.564036 0.545761 2.200657 0
M  V30 15 C -0.196218 -0.716452 2.333059 0
M  V30 16 C -0.911252 -1.194482 1.254952 0
M  V30 17 C -1.647203 -2.365409 1.303121 0
M  V30 18 C -2.437746 -2.973006 0.235493 0
M  V30 19 C -3.862556 -2.667321 0.133856 0
M  V30 20 C -4.077750 -1.171996 0.021042 0
M  V30 21 N -3.305761 -0.640757 -1.093033 0
M  V30 22 C -2.658769 -1.656463 -1.855698 0
M  V30 23 C -1.836004 -2.636838 -1.106455 0
M  V30 24 C -1.594119 -3.012528 2.546715 0
M  V30 25 C -2.324246 -4.257098 2.735730 0
M  V30 26 N -2.920395 -5.259705 2.871348 0
M  V30 27 C -0.864217 -2.497085 3.600211 0
M  V30 28 N -0.872209 -3.236142 4.838501 0
M  V30 29 N -0.170908 -1.368621 3.511910 0
M  V30 30 H 3.192129 0.815466 -3.275144 0
M  V30 31 H 2.305404 2.412681 -3.033768 0
M  V30 32 H 1.572368 1.059093 -3.937982 0
M  V30 33 H 0.478405 0.861506 -1.970743 0
M  V30 34 H 1.751496 1.494368 -0.932046 0
M  V30 35 H 1.472725 -1.182739 -2.424754 0
M  V30 36 H 1.248665 -0.954802 -0.657841 0
M  V30 37 H 3.847286 -0.907531 -2.370549 0
M  V30 38 H 3.298125 -2.161663 -1.268325 0
M  V30 39 H 4.232881 0.595296 -0.267767 0
M  V30 40 H 5.147721 -0.906716 -0.366945 0
M  V30 41 H 4.405388 -0.498110 1.870846 0
M  V30 42 H 3.811589 -2.042743 1.267675 0
M  V30 43 H 3.406800 2.014547 1.443932 0
M  V30 44 H 2.152355 4.045341 1.996322 0
M  V30 45 H -0.214386 3.819329 2.711118 0
M  V30 46 H -2.320581 1.657058 2.276047 0
M  V30 47 H -0.915865 -0.666614 0.335811 0
M  V30 48 H -2.332166 -4.091292 0.365734 0
M  V30 49 H -4.532884 -3.150903 0.849107 0
M  V30 50 H -4.217776 -3.084928 -0.837386 0
M  V30 51 H -3.775025 -0.610551 0.916144 0
M  V30 52 H -5.134333 -0.891837 -0.177573 0
M  V30 53 H -2.778425 0.208825 -0.890621 0
M  V30 54 H -3.457558 -2.160703 -2.477912 0
M  V30 55 H -2.066041 -1.105821 -2.647733 0
M  V30 56 H -1.861081 -3.591021 -1.715326 0
M  V30 57 H -0.761098 -2.397384 -1.051197 0
M  V30 58 H -1.491267 -2.808614 5.572861 0
M  V30 59 H -0.278723 -4.107844 4.896571 0
M  V30 END ATOM
M  V30 BEGIN BOND
M  V30 1 1 1 2
M  V30 2 1 2 3
M  V30 3 1 3 4
M  V30 4 1 4 5
M  V30 5 1 5 6
M  V30 6 1 6 7
M  V30 7 1 7 8
M  V30 8 2 8 9
M  V30 9 1 9 10
M  V30 10 2 10 11
M  V30 11 1 11 12
M  V30 12 1 12 13
M  V30 13 2 12 14
M  V30 14 1 14 15
M  V30 15 2 15 16
M  V30 16 1 16 17
M  V30 17 1 17 18
M  V30 18 1 18 19
M  V30 19 1 19 20
M  V30 20 1 20 21
M  V30 21 1 21 22
M  V30 22 1 22 23
M  V30 23 2 17 24
M  V30 24 1 24 25
M  V30 25 3 25 26
M  V30 26 1 24 27
M  V30 27 1 27 28
M  V30 28 2 27 29
M  V30 29 1 14 8
M  V30 30 1 29 15
M  V30 31 1 23 18
M  V30 32 1 1 30
M  V30 33 1 1 31
M  V30 34 1 1 32
M  V30 35 1 2 33
M  V30 36 1 2 34
M  V30 37 1 3 35
M  V30 38 1 3 36
M  V30 39 1 4 37
M  V30 40 1 4 38
M  V30 41 1 5 39
M  V30 42 1 5 40
M  V30 43 1 6 41
M  V30 44 1 6 42
M  V30 45 1 9 43
M  V30 46 1 10 44
M  V30 47 1 11 45
M  V30 48 1 13 46
M  V30 49 1 16 47
M  V30 50 1 18 48
M  V30 51 1 19 49
M  V30 52 1 19 50
M  V30 53 1 20 51
M  V30 54 1 20 52
M  V30 55 1 21 53
M  V30 56 1 22 54
M  V30 57 1 22 55
M  V30 58 1 23 56
M  V30 59 1 23 57
M  V30 60 1 28 58
M  V30 61 1 28 59
M  V30 END BOND
M  V30 END CTAB
M  END
>  <Dataset>  (60) 
ChEMBL_Kinases

>  <Ligand_Instance>  (60) 
nan

>  <PDB_ID>  (60) 
nan

>  <Standardized_SMILES>  (60) 
CCCCCCOc1cccc(O)c1-c1cc(C2CCNCC2)c(C#N)c(N)n1

>  <Name>  (60) 
nan

>  <Pocket>  (60) 
nan

>  <ATP_Site>  (60) 
nan

>  <Peripheral>  (60) 
nan

>  <Num_H_Atoms_ProtBoundConf>  (60) 
nan

>  <Num_Resolved_Atoms>  (60) 
nan

>  <Num_Not_Resolved_Atoms>  (60) 
nan

$$$$
CHEMBL3596909
     RDKit          3D

  0  0  0  0  0  0  0  0  0  0999 V3000
M  V30 BEGIN CTAB
M  V30 COUNTS 53 57 0 0 0
M  V30 BEGIN ATOM
M  V30 1 O 2.702244 1.024955 5.275433 0
M  V30 2 C 2.396965 1.336165 4.094474 0
M  V30 3 C 3.096796 0.730595 2.939857 0
M  V30 4 C 3.145629 1.450971 1.738937 0
M  V30 5 C 3.756014 0.971395 0.601863 0
M  V30 6 C 4.352649 -0.274495 0.628135 0
M  V30 7 C 5.059358 -0.919564 -0.522933 0
M  V30 8 O 6.411386 -0.569866 -0.422832 0
M  V30 9 C 4.313503 -1.006063 1.814548 0
M  V30 10 C 3.695442 -0.509568 2.950598 0
M  V30 11 C 1.331351 2.314731 3.782853 0
M  V30 12 C 1.005313 3.592409 4.179032 0
M  V30 13 N -0.092566 3.978350 3.511911 0
M  V30 14 C -0.525174 3.003820 2.673938 0
M  V30 15 N -1.568880 2.916637 1.818839 0
M  V30 16 C -1.762368 1.794870 1.107258 0
M  V30 17 C -0.938729 0.694361 1.196716 0
M  V30 18 C -1.100089 -0.561803 0.458479 0
M  V30 19 C -0.014481 -1.357009 0.071640 0
M  V30 20 N -0.485482 -2.429156 -0.570451 0
M  V30 21 N -1.803702 -2.387396 -0.628166 0
M  V30 22 C -2.637235 -3.391677 -1.255567 0
M  V30 23 C -3.754548 -3.737659 -0.331792 0
M  V30 24 C -4.930237 -4.373964 -1.008134 0
M  V30 25 N -5.390831 -3.476426 -2.049559 0
M  V30 26 C -4.347551 -3.507069 -3.085287 0
M  V30 27 C -3.086796 -2.853056 -2.584295 0
M  V30 28 C -2.198179 -1.254461 -0.005513 0
M  V30 29 C 0.136603 0.801786 2.084904 0
M  V30 30 C 0.359816 1.959877 2.837609 0
M  V30 31 H 2.690826 2.433129 1.675417 0
M  V30 32 H 3.801105 1.515406 -0.330399 0
M  V30 33 H 4.940547 -2.018487 -0.491102 0
M  V30 34 H 4.648552 -0.539349 -1.484027 0
M  V30 35 H 6.451276 0.421554 -0.607864 0
M  V30 36 H 4.763332 -1.997502 1.900939 0
M  V30 37 H 3.618257 -1.003387 3.900739 0
M  V30 38 H 1.635612 4.068466 4.917604 0
M  V30 39 H -0.524709 4.912535 3.646714 0
M  V30 40 H -2.593961 1.720686 0.422653 0
M  V30 41 H 1.055153 -1.166712 0.243776 0
M  V30 42 H -2.031737 -4.319728 -1.410254 0
M  V30 43 H -4.153419 -2.856827 0.238007 0
M  V30 44 H -3.384587 -4.447407 0.454591 0
M  V30 45 H -5.710659 -4.553767 -0.244979 0
M  V30 46 H -4.561088 -5.348280 -1.432925 0
M  V30 47 H -5.331120 -2.512736 -1.655735 0
M  V30 48 H -4.713844 -2.952133 -3.968361 0
M  V30 49 H -4.203838 -4.558254 -3.404009 0
M  V30 50 H -2.290460 -3.068376 -3.325247 0
M  V30 51 H -3.230368 -1.753876 -2.586085 0
M  V30 52 H -3.192754 -0.894381 0.139441 0
M  V30 53 H 0.777725 -0.056245 2.166215 0
M  V30 END ATOM
M  V30 BEGIN BOND
M  V30 1 2 1 2
M  V30 2 1 2 3
M  V30 3 2 3 4
M  V30 4 1 4 5
M  V30 5 2 5 6
M  V30 6 1 6 7
M  V30 7 1 7 8
M  V30 8 1 6 9
M  V30 9 2 9 10
M  V30 10 1 2 11
M  V30 11 2 11 12
M  V30 12 1 12 13
M  V30 13 1 13 14
M  V30 14 2 14 15
M  V30 15 1 15 16
M  V30 16 2 16 17
M  V30 17 1 17 18
M  V30 18 1 18 19
M  V30 19 2 19 20
M  V30 20 1 20 21
M  V30 21 1 21 22
M  V30 22 1 22 23
M  V30 23 1 23 24
M  V30 24 1 24 25
M  V30 25 1 25 26
M  V30 26 1 26 27
M  V30 27 1 21 28
M  V30 28 1 17 29
M  V30 29 2 29 30
M  V30 30 1 10 3
M  V30 31 1 30 11
M  V30 32 1 30 14
M  V30 33 2 28 18
M  V30 34 1 27 22
M  V30 35 1 4 31
M  V30 36 1 5 32
M  V30 37 1 7 33
M  V30 38 1 7 34
M  V30 39 1 8 35
M  V30 40 1 9 36
M  V30 41 1 10 37
M  V30 42 1 12 38
M  V30 43 1 13 39
M  V30 44 1 16 40
M  V30 45 1 19 41
M  V30 46 1 22 42
M  V30 47 1 23 43
M  V30 48 1 23 44
M  V30 49 1 24 45
M  V30 50 1 24 46
M  V30 51 1 25 47
M  V30 52 1 26 48
M  V30 53 1 26 49
M  V30 54 1 27 50
M  V30 55 1 27 51
M  V30 56 1 28 52
M  V30 57 1 29 53
M  V30 END BOND
M  V30 END CTAB
M  END
>  <Dataset>  (61) 
ChEMBL_Kinases

>  <Ligand_Instance>  (61) 
nan

>  <PDB_ID>  (61) 
nan

>  <Standardized_SMILES>  (61) 
O=C(c1ccc(CO)cc1)c1c[nH]c2ncc(-c3cnn(C4CCNCC4)c3)cc12

>  <Name>  (61) 
nan

>  <Pocket>  (61) 
nan

>  <ATP_Site>  (61) 
nan

>  <Peripheral>  (61) 
nan

>  <Num_H_Atoms_ProtBoundConf>  (61) 
nan

>  <Num_Resolved_Atoms>  (61) 
nan

>  <Num_Not_Resolved_Atoms>  (61) 
nan

$$$$
CHEMBL3604842
     RDKit          3D

  0  0  0  0  0  0  0  0  0  0999 V3000
M  V30 BEGIN CTAB
M  V30 COUNTS 33 35 0 0 0
M  V30 BEGIN ATOM
M  V30 1 C -2.192931 -1.477294 2.819032 0
M  V30 2 C -1.436832 -2.630580 2.319427 0
M  V30 3 O -1.283289 -3.711390 2.960673 0
M  V30 4 N -0.808195 -2.627418 1.060075 0
M  V30 5 C -0.064685 -3.776172 0.581622 0
M  V30 6 C 0.297343 -3.559737 -0.875495 0
M  V30 7 C 1.040285 -2.268645 -0.930869 0
M  V30 8 N 2.227417 -1.838298 -1.406129 0
M  V30 9 N 2.370267 -0.528490 -1.165287 0
M  V30 10 C 1.279681 -0.066094 -0.525477 0
M  V30 11 C 0.944765 1.274474 -0.045069 0
M  V30 12 C 1.853673 2.060912 0.640163 0
M  V30 13 C 1.505159 3.319660 1.078847 0
M  V30 14 C 0.234716 3.793570 0.828265 0
M  V30 15 F -0.157030 5.032375 1.242200 0
M  V30 16 C -0.685369 3.038248 0.152942 0
M  V30 17 C -0.339156 1.760801 -0.294986 0
M  V30 18 C 0.442999 -1.154150 -0.376428 0
M  V30 19 C -0.914105 -1.427028 0.218768 0
M  V30 20 H -1.485683 -0.626836 2.991986 0
M  V30 21 H -3.049223 -1.199698 2.202924 0
M  V30 22 H -2.587843 -1.737645 3.838123 0
M  V30 23 H 0.897347 -3.761677 1.135734 0
M  V30 24 H -0.614845 -4.724369 0.733858 0
M  V30 25 H -0.680140 -3.389108 -1.392278 0
M  V30 26 H 0.862096 -4.392254 -1.290806 0
M  V30 27 H 2.919052 -2.466775 -1.891310 0
M  V30 28 H 2.857114 1.679489 0.834889 0
M  V30 29 H 2.193401 3.958782 1.617326 0
M  V30 30 H -1.685505 3.420679 -0.040122 0
M  V30 31 H -1.107081 1.223266 -0.816862 0
M  V30 32 H -1.225828 -0.553543 0.792617 0
M  V30 33 H -1.666596 -1.627131 -0.563246 0
M  V30 END ATOM
M  V30 BEGIN BOND
M  V30 1 1 1 2
M  V30 2 2 2 3
M  V30 3 1 2 4
M  V30 4 1 4 5
M  V30 5 1 5 6
M  V30 6 1 6 7
M  V30 7 1 7 8
M  V30 8 1 8 9
M  V30 9 2 9 10
M  V30 10 1 10 11
M  V30 11 2 11 12
M  V30 12 1 12 13
M  V30 13 2 13 14
M  V30 14 1 14 15
M  V30 15 1 14 16
M  V30 16 2 16 17
M  V30 17 1 10 18
M  V30 18 1 18 19
M  V30 19 1 19 4
M  V30 20 2 18 7
M  V30 21 1 17 11
M  V30 22 1 1 20
M  V30 23 1 1 21
M  V30 24 1 1 22
M  V30 25 1 5 23
M  V30 26 1 5 24
M  V30 27 1 6 25
M  V30 28 1 6 26
M  V30 29 1 8 27
M  V30 30 1 12 28
M  V30 31 1 13 29
M  V30 32 1 16 30
M  V30 33 1 17 31
M  V30 34 1 19 32
M  V30 35 1 19 33
M  V30 END BOND
M  V30 END CTAB
M  END
>  <Dataset>  (62) 
ChEMBL_Kinases

>  <Ligand_Instance>  (62) 
nan

>  <PDB_ID>  (62) 
nan

>  <Standardized_SMILES>  (62) 
CC(=O)N1CCc2[nH]nc(-c3ccc(F)cc3)c2C1

>  <Name>  (62) 
nan

>  <Pocket>  (62) 
nan

>  <ATP_Site>  (62) 
nan

>  <Peripheral>  (62) 
nan

>  <Num_H_Atoms_ProtBoundConf>  (62) 
nan

>  <Num_Resolved_Atoms>  (62) 
nan

>  <Num_Not_Resolved_Atoms>  (62) 
nan

$$$$
CHEMBL3604843
     RDKit          3D

  0  0  0  0  0  0  0  0  0  0999 V3000
M  V30 BEGIN CTAB
M  V30 COUNTS 37 40 0 0 0
M  V30 BEGIN ATOM
M  V30 1 F 3.466177 -4.168270 4.128936 0
M  V30 2 C 3.157282 -3.379026 3.073995 0
M  V30 3 C 2.398535 -3.857126 2.014154 0
M  V30 4 C 2.139821 -2.956106 0.978438 0
M  V30 5 C 2.622319 -1.659860 1.023580 0
M  V30 6 C 2.297698 -0.796504 -0.106439 0
M  V30 7 N 3.030920 0.061477 -0.837994 0
M  V30 8 N 2.292576 0.630034 -1.776591 0
M  V30 9 C 1.029663 0.159676 -1.694682 0
M  V30 10 C 1.027438 -0.742707 -0.640223 0
M  V30 11 C -0.325641 -1.367299 -0.411325 0
M  V30 12 N -1.244788 -0.250639 -0.496095 0
M  V30 13 C -1.919455 0.327500 0.612233 0
M  V30 14 C -1.760061 -0.116779 1.906420 0
M  V30 15 C -2.426808 0.456695 2.987963 0
M  V30 16 C -3.287141 1.526236 2.717728 0
M  V30 17 C -3.430171 1.952746 1.415697 0
M  V30 18 N -2.757483 1.357404 0.409208 0
M  V30 19 C -1.450137 0.271043 -1.828405 0
M  V30 20 C -0.148155 0.519029 -2.551579 0
M  V30 21 C 3.382007 -1.219152 2.108798 0
M  V30 22 C 3.655454 -2.084366 3.148294 0
M  V30 23 H 2.062072 -4.881130 2.058716 0
M  V30 24 H 1.546294 -3.367372 0.172956 0
M  V30 25 H 2.750611 1.332058 -2.427807 0
M  V30 26 H -0.465188 -2.024256 -1.317036 0
M  V30 27 H -0.369976 -1.938692 0.509705 0
M  V30 28 H -1.097290 -0.942369 2.125039 0
M  V30 29 H -2.318086 0.128467 3.997870 0
M  V30 30 H -3.844614 2.030777 3.495327 0
M  V30 31 H -4.081930 2.784002 1.104747 0
M  V30 32 H -2.107550 1.154166 -1.817381 0
M  V30 33 H -2.000450 -0.517627 -2.404700 0
M  V30 34 H -0.126775 1.601703 -2.800506 0
M  V30 35 H -0.070959 -0.039915 -3.506787 0
M  V30 36 H 3.734706 -0.201457 2.097333 0
M  V30 37 H 4.236731 -1.738784 3.973384 0
M  V30 END ATOM
M  V30 BEGIN BOND
M  V30 1 1 1 2
M  V30 2 2 2 3
M  V30 3 1 3 4
M  V30 4 2 4 5
M  V30 5 1 5 6
M  V30 6 2 6 7
M  V30 7 1 7 8
M  V30 8 1 8 9
M  V30 9 2 9 10
M  V30 10 1 10 11
M  V30 11 1 11 12
M  V30 12 1 12 13
M  V30 13 2 13 14
M  V30 14 1 14 15
M  V30 15 2 15 16
M  V30 16 1 16 17
M  V30 17 2 17 18
M  V30 18 1 12 19
M  V30 19 1 19 20
M  V30 20 1 5 21
M  V30 21 2 21 22
M  V30 22 1 22 2
M  V30 23 1 10 6
M  V30 24 1 18 13
M  V30 25 1 20 9
M  V30 26 1 3 23
M  V30 27 1 4 24
M  V30 28 1 8 25
M  V30 29 1 11 26
M  V30 30 1 11 27
M  V30 31 1 14 28
M  V30 32 1 15 29
M  V30 33 1 16 30
M  V30 34 1 17 31
M  V30 35 1 19 32
M  V30 36 1 19 33
M  V30 37 1 20 34
M  V30 38 1 20 35
M  V30 39 1 21 36
M  V30 40 1 22 37
M  V30 END BOND
M  V30 END CTAB
M  END
>  <Dataset>  (63) 
ChEMBL_Kinases

>  <Ligand_Instance>  (63) 
nan

>  <PDB_ID>  (63) 
nan

>  <Standardized_SMILES>  (63) 
Fc1ccc(-c2n[nH]c3c2CN(c2ccccn2)CC3)cc1

>  <Name>  (63) 
nan

>  <Pocket>  (63) 
nan

>  <ATP_Site>  (63) 
nan

>  <Peripheral>  (63) 
nan

>  <Num_H_Atoms_ProtBoundConf>  (63) 
nan

>  <Num_Resolved_Atoms>  (63) 
nan

>  <Num_Not_Resolved_Atoms>  (63) 
nan

$$$$
CHEMBL3604844
     RDKit          3D

  0  0  0  0  0  0  0  0  0  0999 V3000
M  V30 BEGIN CTAB
M  V30 COUNTS 51 55 0 0 0
M  V30 BEGIN ATOM
M  V30 1 O -0.560795 -4.703304 2.650148 0
M  V30 2 C -0.660044 -3.542021 2.205431 0
M  V30 3 C 0.494957 -2.822230 1.963946 0
M  V30 4 C 0.470818 -1.533584 1.472854 0
M  V30 5 N 1.633121 -0.758155 1.209826 0
M  V30 6 C 2.977373 -1.202327 1.407711 0
M  V30 7 C 3.880199 -0.839286 0.220921 0
M  V30 8 C 3.943679 0.636715 0.056721 0
M  V30 9 N 4.809568 1.614926 -0.264957 0
M  V30 10 N 4.182811 2.783741 -0.220123 0
M  V30 11 C 2.883476 2.597451 0.134172 0
M  V30 12 C 2.051625 3.793832 0.229308 0
M  V30 13 C 2.548347 4.916868 0.876596 0
M  V30 14 C 1.810614 6.077746 0.999251 0
M  V30 15 C 0.526767 6.113254 0.452091 0
M  V30 16 F -0.274081 7.224626 0.528177 0
M  V30 17 C 0.030930 4.979227 -0.199023 0
M  V30 18 C 0.777661 3.818359 -0.317739 0
M  V30 19 C 2.722290 1.224433 0.313351 0
M  V30 20 C 1.464693 0.589512 0.701866 0
M  V30 21 C -0.790876 -1.025523 1.244101 0
M  V30 22 C -1.942295 -1.751085 1.487884 0
M  V30 23 N -1.870074 -3.007091 1.967864 0
M  V30 24 C -3.095580 -3.744168 2.213549 0
M  V30 25 C -3.500594 -4.511560 0.982440 0
M  V30 26 C -3.102145 -5.804580 0.698345 0
M  V30 27 C -3.531151 -6.411461 -0.455798 0
M  V30 28 C -4.364741 -5.777936 -1.374436 0
M  V30 29 C -4.778993 -4.474602 -1.108964 0
M  V30 30 C -4.326130 -3.882949 0.073599 0
M  V30 31 H 1.437620 -3.290152 2.168821 0
M  V30 32 H 3.090433 -2.299725 1.519906 0
M  V30 33 H 3.440155 -0.748605 2.321697 0
M  V30 34 H 3.539172 -1.339448 -0.695593 0
M  V30 35 H 4.916137 -1.164036 0.515072 0
M  V30 36 H 5.789194 1.336197 -0.490145 0
M  V30 37 H 3.547617 4.932311 1.318996 0
M  V30 38 H 2.174148 6.976152 1.502215 0
M  V30 39 H -0.976484 4.968069 -0.643359 0
M  V30 40 H 0.369734 2.939023 -0.832936 0
M  V30 41 H 0.910657 1.138570 1.489875 0
M  V30 42 H 0.763085 0.491563 -0.173337 0
M  V30 43 H -0.943127 -0.033002 0.862187 0
M  V30 44 H -2.937965 -1.327696 1.298864 0
M  V30 45 H -3.890144 -3.049857 2.504629 0
M  V30 46 H -2.898842 -4.493228 3.010505 0
M  V30 47 H -2.454525 -6.292173 1.415328 0
M  V30 48 H -3.230658 -7.425524 -0.698577 0
M  V30 49 H -4.708718 -6.253465 -2.291860 0
M  V30 50 H -5.433624 -3.904504 -1.777370 0
M  V30 51 H -4.667591 -2.866006 0.250628 0
M  V30 END ATOM
M  V30 BEGIN BOND
M  V30 1 2 1 2
M  V30 2 1 2 3
M  V30 3 2 3 4
M  V30 4 1 4 5
M  V30 5 1 5 6
M  V30 6 1 6 7
M  V30 7 1 7 8
M  V30 8 1 8 9
M  V30 9 1 9 10
M  V30 10 2 10 11
M  V30 11 1 11 12
M  V30 12 2 12 13
M  V30 13 1 13 14
M  V30 14 2 14 15
M  V30 15 1 15 16
M  V30 16 1 15 17
M  V30 17 2 17 18
M  V30 18 1 11 19
M  V30 19 1 19 20
M  V30 20 1 4 21
M  V30 21 2 21 22
M  V30 22 1 22 23
M  V30 23 1 23 24
M  V30 24 1 24 25
M  V30 25 2 25 26
M  V30 26 1 26 27
M  V30 27 2 27 28
M  V30 28 1 28 29
M  V30 29 2 29 30
M  V30 30 1 23 2
M  V30 31 1 30 25
M  V30 32 1 20 5
M  V30 33 2 19 8
M  V30 34 1 18 12
M  V30 35 1 3 31
M  V30 36 1 6 32
M  V30 37 1 6 33
M  V30 38 1 7 34
M  V30 39 1 7 35
M  V30 40 1 9 36
M  V30 41 1 13 37
M  V30 42 1 14 38
M  V30 43 1 17 39
M  V30 44 1 18 40
M  V30 45 1 20 41
M  V30 46 1 20 42
M  V30 47 1 21 43
M  V30 48 1 22 44
M  V30 49 1 24 45
M  V30 50 1 24 46
M  V30 51 1 26 47
M  V30 52 1 27 48
M  V30 53 1 28 49
M  V30 54 1 29 50
M  V30 55 1 30 51
M  V30 END BOND
M  V30 END CTAB
M  END
>  <Dataset>  (64) 
ChEMBL_Kinases

>  <Ligand_Instance>  (64) 
nan

>  <PDB_ID>  (64) 
nan

>  <Standardized_SMILES>  (64) 
O=c1cc(N2CCc3[nH]nc(-c4ccc(F)cc4)c3C2)ccn1Cc1ccccc1

>  <Name>  (64) 
nan

>  <Pocket>  (64) 
nan

>  <ATP_Site>  (64) 
nan

>  <Peripheral>  (64) 
nan

>  <Num_H_Atoms_ProtBoundConf>  (64) 
nan

>  <Num_Resolved_Atoms>  (64) 
nan

>  <Num_Not_Resolved_Atoms>  (64) 
nan

$$$$
CHEMBL3604845
     RDKit          3D

  0  0  0  0  0  0  0  0  0  0999 V3000
M  V30 BEGIN CTAB
M  V30 COUNTS 50 54 0 0 0
M  V30 BEGIN ATOM
M  V30 1 O 5.316499 -2.355514 3.112970 0
M  V30 2 C 5.631757 -1.666645 2.123772 0
M  V30 3 N 6.919295 -1.762322 1.704418 0
M  V30 4 C 7.303278 -1.023343 0.624155 0
M  V30 5 C 6.378404 -0.228113 0.021218 0
M  V30 6 C 5.059465 -0.093354 0.405027 0
M  V30 7 C 4.111391 0.769109 -0.273155 0
M  V30 8 N 4.529626 1.484098 -1.336706 0
M  V30 9 N 3.572328 2.217612 -1.850006 0
M  V30 10 C 2.507153 1.966733 -1.093948 0
M  V30 11 C 2.784283 1.053921 -0.074571 0
M  V30 12 C 1.837181 0.545619 0.944637 0
M  V30 13 N 0.547472 1.183286 0.772429 0
M  V30 14 C -0.611388 0.466811 1.150756 0
M  V30 15 C -1.907054 0.865618 0.915282 0
M  V30 16 C -3.026994 0.156834 1.297898 0
M  V30 17 N -2.883099 -1.011021 1.949170 0
M  V30 18 C -4.073274 -1.728086 2.335153 0
M  V30 19 C -4.514856 -2.669965 1.279789 0
M  V30 20 C -5.387275 -2.202804 0.325103 0
M  V30 21 C -5.871548 -2.980308 -0.708071 0
M  V30 22 C -5.487541 -4.298981 -0.828051 0
M  V30 23 C -4.609234 -4.782696 0.126596 0
M  V30 24 C -4.124670 -4.005827 1.159830 0
M  V30 25 C -1.641109 -1.456522 2.210093 0
M  V30 26 O -1.585277 -2.551583 2.819927 0
M  V30 27 C -0.528366 -0.734745 1.820231 0
M  V30 28 C 0.514348 2.525098 0.229176 0
M  V30 29 C 1.113926 2.500409 -1.169615 0
M  V30 30 N 4.784927 -0.856800 1.470036 0
M  V30 31 H 8.317768 -1.075197 0.264437 0
M  V30 32 H 6.741962 0.346866 -0.846303 0
M  V30 33 H 3.583698 2.870040 -2.666167 0
M  V30 34 H 2.136268 0.751409 1.987357 0
M  V30 35 H 1.779056 -0.551873 0.806567 0
M  V30 36 H -2.101190 1.787216 0.398843 0
M  V30 37 H -4.033992 0.522473 1.083951 0
M  V30 38 H -4.904457 -1.037023 2.541353 0
M  V30 39 H -3.857509 -2.362778 3.241097 0
M  V30 40 H -5.733158 -1.172587 0.356776 0
M  V30 41 H -6.566419 -2.539169 -1.435088 0
M  V30 42 H -5.857517 -4.910873 -1.626004 0
M  V30 43 H -4.300081 -5.818393 0.042767 0
M  V30 44 H -3.438854 -4.367351 1.913415 0
M  V30 45 H 0.380054 -1.203070 2.093340 0
M  V30 46 H 1.107704 3.234428 0.871884 0
M  V30 47 H -0.491051 2.961116 0.179694 0
M  V30 48 H 1.178634 3.537777 -1.547800 0
M  V30 49 H 0.459922 1.931289 -1.839812 0
M  V30 50 H 3.841035 -0.872256 1.885418 0
M  V30 END ATOM
M  V30 BEGIN BOND
M  V30 1 2 1 2
M  V30 2 1 2 3
M  V30 3 2 3 4
M  V30 4 1 4 5
M  V30 5 2 5 6
M  V30 6 1 6 7
M  V30 7 2 7 8
M  V30 8 1 8 9
M  V30 9 1 9 10
M  V30 10 2 10 11
M  V30 11 1 11 12
M  V30 12 1 12 13
M  V30 13 1 13 14
M  V30 14 1 14 15
M  V30 15 2 15 16
M  V30 16 1 16 17
M  V30 17 1 17 18
M  V30 18 1 18 19
M  V30 19 2 19 20
M  V30 20 1 20 21
M  V30 21 2 21 22
M  V30 22 1 22 23
M  V30 23 2 23 24
M  V30 24 1 17 25
M  V30 25 2 25 26
M  V30 26 1 25 27
M  V30 27 1 13 28
M  V30 28 1 28 29
M  V30 29 1 6 30
M  V30 30 1 30 2
M  V30 31 1 11 7
M  V30 32 2 27 14
M  V30 33 1 29 10
M  V30 34 1 24 19
M  V30 35 1 4 31
M  V30 36 1 5 32
M  V30 37 1 9 33
M  V30 38 1 12 34
M  V30 39 1 12 35
M  V30 40 1 15 36
M  V30 41 1 16 37
M  V30 42 1 18 38
M  V30 43 1 18 39
M  V30 44 1 20 40
M  V30 45 1 21 41
M  V30 46 1 22 42
M  V30 47 1 23 43
M  V30 48 1 24 44
M  V30 49 1 27 45
M  V30 50 1 28 46
M  V30 51 1 28 47
M  V30 52 1 29 48
M  V30 53 1 29 49
M  V30 54 1 30 50
M  V30 END BOND
M  V30 END CTAB
M  END
>  <Dataset>  (65) 
ChEMBL_Kinases

>  <Ligand_Instance>  (65) 
nan

>  <PDB_ID>  (65) 
nan

>  <Standardized_SMILES>  (65) 
O=c1nccc(-c2n[nH]c3c2CN(c2ccn(Cc4ccccc4)c(=O)c2)CC3)[nH]1

>  <Name>  (65) 
nan

>  <Pocket>  (65) 
nan

>  <ATP_Site>  (65) 
nan

>  <Peripheral>  (65) 
nan

>  <Num_H_Atoms_ProtBoundConf>  (65) 
nan

>  <Num_Resolved_Atoms>  (65) 
nan

>  <Num_Not_Resolved_Atoms>  (65) 
nan

$$$$
CHEMBL3604846
     RDKit          3D

  0  0  0  0  0  0  0  0  0  0999 V3000
M  V30 BEGIN CTAB
M  V30 COUNTS 54 58 0 0 0
M  V30 BEGIN ATOM
M  V30 1 C -1.333333 -3.742725 2.913753 0
M  V30 2 N -0.613021 -4.502010 1.905056 0
M  V30 3 C -0.070657 -3.912339 0.825710 0
M  V30 4 C 0.608873 -4.654532 -0.118731 0
M  V30 5 C 1.175393 -4.001471 -1.256326 0
M  V30 6 N 1.072948 -4.459233 -2.531879 0
M  V30 7 N 1.716654 -3.607838 -3.347485 0
M  V30 8 C 2.217384 -2.629598 -2.604077 0
M  V30 9 C 1.898058 -2.839872 -1.274627 0
M  V30 10 C 2.359289 -1.873269 -0.304086 0
M  V30 11 N 2.019961 -0.540994 -0.774495 0
M  V30 12 C 1.353361 0.505479 -0.063984 0
M  V30 13 C 1.059970 1.740419 -0.556139 0
M  V30 14 C 0.409919 2.649733 0.252430 0
M  V30 15 N 0.032552 2.409694 1.520056 0
M  V30 16 C -0.648606 3.457358 2.268748 0
M  V30 17 C -2.123903 3.394485 2.108158 0
M  V30 18 C -2.713537 4.111056 1.061244 0
M  V30 19 C -4.076158 4.099095 0.851820 0
M  V30 20 C -4.917169 3.375949 1.670927 0
M  V30 21 C -4.347241 2.658980 2.715111 0
M  V30 22 C -2.971951 2.671479 2.925919 0
M  V30 23 C 0.313515 1.197861 2.021718 0
M  V30 24 O -0.050027 0.999725 3.208491 0
M  V30 25 C 0.957925 0.263302 1.254605 0
M  V30 26 C 2.393991 -0.199195 -2.139860 0
M  V30 27 C 3.025731 -1.384164 -2.859501 0
M  V30 28 C 0.765736 -6.029193 -0.005331 0
M  V30 29 C 0.199678 -6.623704 1.115404 0
M  V30 30 C -0.475090 -5.845280 2.041814 0
M  V30 31 O -0.990997 -6.364550 3.057034 0
M  V30 32 H -2.341852 -4.182152 3.113372 0
M  V30 33 H -1.563308 -2.745676 2.452778 0
M  V30 34 H -0.764932 -3.635889 3.849268 0
M  V30 35 H -0.182008 -2.855606 0.722911 0
M  V30 36 H 1.816512 -3.687755 -4.398554 0
M  V30 37 H 2.201737 -2.056632 0.738440 0
M  V30 38 H 3.491006 -1.865790 -0.395085 0
M  V30 39 H 1.349039 1.960207 -1.564495 0
M  V30 40 H 0.193196 3.620051 -0.171499 0
M  V30 41 H -0.398676 3.347672 3.344990 0
M  V30 42 H -0.309835 4.423460 1.853719 0
M  V30 43 H -2.115614 4.714323 0.360775 0
M  V30 44 H -4.530015 4.665513 0.026297 0
M  V30 45 H -5.990579 3.315433 1.573644 0
M  V30 46 H -4.942230 2.059894 3.410516 0
M  V30 47 H -2.526884 2.121414 3.728315 0
M  V30 48 H 1.124085 -0.670470 1.776971 0
M  V30 49 H 1.478759 0.054782 -2.707629 0
M  V30 50 H 3.093070 0.630519 -2.225380 0
M  V30 51 H 4.081033 -1.536179 -2.600776 0
M  V30 52 H 2.927477 -1.171549 -3.948576 0
M  V30 53 H 1.287549 -6.658778 -0.714151 0
M  V30 54 H 0.264184 -7.694893 1.301373 0
M  V30 END ATOM
M  V30 BEGIN BOND
M  V30 1 1 1 2
M  V30 2 1 2 3
M  V30 3 2 3 4
M  V30 4 1 4 5
M  V30 5 2 5 6
M  V30 6 1 6 7
M  V30 7 1 7 8
M  V30 8 2 8 9
M  V30 9 1 9 10
M  V30 10 1 10 11
M  V30 11 1 11 12
M  V30 12 1 12 13
M  V30 13 2 13 14
M  V30 14 1 14 15
M  V30 15 1 15 16
M  V30 16 1 16 17
M  V30 17 2 17 18
M  V30 18 1 18 19
M  V30 19 2 19 20
M  V30 20 1 20 21
M  V30 21 2 21 22
M  V30 22 1 15 23
M  V30 23 2 23 24
M  V30 24 1 23 25
M  V30 25 1 11 26
M  V30 26 1 26 27
M  V30 27 1 4 28
M  V30 28 2 28 29
M  V30 29 1 29 30
M  V30 30 2 30 31
M  V30 31 1 30 2
M  V30 32 1 9 5
M  V30 33 2 25 12
M  V30 34 1 27 8
M  V30 35 1 22 17
M  V30 36 1 1 32
M  V30 37 1 1 33
M  V30 38 1 1 34
M  V30 39 1 3 35
M  V30 40 1 7 36
M  V30 41 1 10 37
M  V30 42 1 10 38
M  V30 43 1 13 39
M  V30 44 1 14 40
M  V30 45 1 16 41
M  V30 46 1 16 42
M  V30 47 1 18 43
M  V30 48 1 19 44
M  V30 49 1 20 45
M  V30 50 1 21 46
M  V30 51 1 22 47
M  V30 52 1 25 48
M  V30 53 1 26 49
M  V30 54 1 26 50
M  V30 55 1 27 51
M  V30 56 1 27 52
M  V30 57 1 28 53
M  V30 58 1 29 54
M  V30 END BOND
M  V30 END CTAB
M  END
>  <Dataset>  (66) 
ChEMBL_Kinases

>  <Ligand_Instance>  (66) 
nan

>  <PDB_ID>  (66) 
nan

>  <Standardized_SMILES>  (66) 
Cn1cc(-c2n[nH]c3c2CN(c2ccn(Cc4ccccc4)c(=O)c2)CC3)ccc1=O

>  <Name>  (66) 
nan

>  <Pocket>  (66) 
nan

>  <ATP_Site>  (66) 
nan

>  <Peripheral>  (66) 
nan

>  <Num_H_Atoms_ProtBoundConf>  (66) 
nan

>  <Num_Resolved_Atoms>  (66) 
nan

>  <Num_Not_Resolved_Atoms>  (66) 
nan

$$$$
CHEMBL3604847
     RDKit          3D

  0  0  0  0  0  0  0  0  0  0999 V3000
M  V30 BEGIN CTAB
M  V30 COUNTS 50 54 0 0 0
M  V30 BEGIN ATOM
M  V30 1 O -1.483027 -2.401560 2.576674 0
M  V30 2 C -1.515891 -1.799573 1.449454 0
M  V30 3 C -0.404249 -1.058172 1.106905 0
M  V30 4 C -0.307962 -0.364653 -0.069940 0
M  V30 5 N 0.795195 0.412057 -0.484334 0
M  V30 6 C 0.903400 1.142844 -1.721523 0
M  V30 7 C 2.373569 1.145511 -2.165515 0
M  V30 8 C 3.044056 2.089615 -1.218489 0
M  V30 9 N 3.814411 3.191250 -1.169670 0
M  V30 10 N 4.053744 3.513104 0.100028 0
M  V30 11 C 3.444860 2.628537 0.912785 0
M  V30 12 C 3.447211 2.608011 2.384434 0
M  V30 13 C 3.653179 1.442656 3.110678 0
M  V30 14 C 3.629394 1.570084 4.486160 0
M  V30 15 N 3.423265 2.729576 5.138479 0
M  V30 16 C 3.220200 3.878288 4.463727 0
M  V30 17 C 3.235879 3.796656 3.076524 0
M  V30 18 C 2.784610 1.696893 0.099825 0
M  V30 19 C 1.952572 0.501180 0.407692 0
M  V30 20 C -1.425636 -0.468951 -0.894267 0
M  V30 21 C -2.540371 -1.209587 -0.555922 0
M  V30 22 N -2.581281 -1.875003 0.619956 0
M  V30 23 C -3.734977 -2.659249 1.002380 0
M  V30 24 C -3.656899 -4.068855 0.557216 0
M  V30 25 C -3.102107 -5.092856 1.296836 0
M  V30 26 C -3.089594 -6.369703 0.769455 0
M  V30 27 C -3.620092 -6.632690 -0.476804 0
M  V30 28 C -4.189111 -5.616708 -1.250265 0
M  V30 29 C -4.194608 -4.332449 -0.704696 0
M  V30 30 H 0.433405 -1.014883 1.788256 0
M  V30 31 H 0.657356 2.203994 -1.505197 0
M  V30 32 H 0.245915 0.799356 -2.531236 0
M  V30 33 H 2.479570 1.445067 -3.211370 0
M  V30 34 H 2.752896 0.133405 -1.943215 0
M  V30 35 H 4.105321 3.622238 -2.072191 0
M  V30 36 H 3.818060 0.515146 2.595077 0
M  V30 37 H 3.793489 0.641752 5.046934 0
M  V30 38 H 3.046352 4.856648 4.916693 0
M  V30 39 H 3.079686 4.680580 2.487673 0
M  V30 40 H 2.591643 -0.402598 0.349601 0
M  V30 41 H 1.587032 0.635601 1.462390 0
M  V30 42 H -1.508882 0.013616 -1.849510 0
M  V30 43 H -3.411215 -1.304142 -1.173971 0
M  V30 44 H -3.768810 -2.668906 2.131430 0
M  V30 45 H -4.690141 -2.161862 0.719206 0
M  V30 46 H -2.694507 -4.863733 2.266083 0
M  V30 47 H -2.653295 -7.182506 1.347874 0
M  V30 48 H -3.634062 -7.614936 -0.932866 0
M  V30 49 H -4.614010 -5.799174 -2.236219 0
M  V30 50 H -4.644025 -3.572353 -1.333959 0
M  V30 END ATOM
M  V30 BEGIN BOND
M  V30 1 2 1 2
M  V30 2 1 2 3
M  V30 3 2 3 4
M  V30 4 1 4 5
M  V30 5 1 5 6
M  V30 6 1 6 7
M  V30 7 1 7 8
M  V30 8 1 8 9
M  V30 9 1 9 10
M  V30 10 2 10 11
M  V30 11 1 11 12
M  V30 12 2 12 13
M  V30 13 1 13 14
M  V30 14 2 14 15
M  V30 15 1 15 16
M  V30 16 2 16 17
M  V30 17 1 11 18
M  V30 18 1 18 19
M  V30 19 1 4 20
M  V30 20 2 20 21
M  V30 21 1 21 22
M  V30 22 1 22 23
M  V30 23 1 23 24
M  V30 24 2 24 25
M  V30 25 1 25 26
M  V30 26 2 26 27
M  V30 27 1 27 28
M  V30 28 2 28 29
M  V30 29 1 22 2
M  V30 30 1 29 24
M  V30 31 1 19 5
M  V30 32 2 18 8
M  V30 33 1 17 12
M  V30 34 1 3 30
M  V30 35 1 6 31
M  V30 36 1 6 32
M  V30 37 1 7 33
M  V30 38 1 7 34
M  V30 39 1 9 35
M  V30 40 1 13 36
M  V30 41 1 14 37
M  V30 42 1 16 38
M  V30 43 1 17 39
M  V30 44 1 19 40
M  V30 45 1 19 41
M  V30 46 1 20 42
M  V30 47 1 21 43
M  V30 48 1 23 44
M  V30 49 1 23 45
M  V30 50 1 25 46
M  V30 51 1 26 47
M  V30 52 1 27 48
M  V30 53 1 28 49
M  V30 54 1 29 50
M  V30 END BOND
M  V30 END CTAB
M  END
>  <Dataset>  (67) 
ChEMBL_Kinases

>  <Ligand_Instance>  (67) 
nan

>  <PDB_ID>  (67) 
nan

>  <Standardized_SMILES>  (67) 
O=c1cc(N2CCc3[nH]nc(-c4ccncc4)c3C2)ccn1Cc1ccccc1

>  <Name>  (67) 
nan

>  <Pocket>  (67) 
nan

>  <ATP_Site>  (67) 
nan

>  <Peripheral>  (67) 
nan

>  <Num_H_Atoms_ProtBoundConf>  (67) 
nan

>  <Num_Resolved_Atoms>  (67) 
nan

>  <Num_Not_Resolved_Atoms>  (67) 
nan

$$$$
CHEMBL3604848
     RDKit          3D

  0  0  0  0  0  0  0  0  0  0999 V3000
M  V30 BEGIN CTAB
M  V30 COUNTS 50 54 0 0 0
M  V30 BEGIN ATOM
M  V30 1 O -1.676833 -2.133513 2.567761 0
M  V30 2 C -1.607045 -1.628766 1.419126 0
M  V30 3 C -0.461061 -0.925977 1.084174 0
M  V30 4 C -0.305655 -0.341239 -0.156625 0
M  V30 5 N 0.850712 0.383304 -0.532050 0
M  V30 6 C 1.020384 0.995865 -1.825830 0
M  V30 7 C 2.514914 0.982541 -2.151949 0
M  V30 8 C 3.136469 1.960194 -1.218207 0
M  V30 9 N 3.926554 3.047022 -1.231828 0
M  V30 10 N 4.117620 3.471556 0.009967 0
M  V30 11 C 3.458628 2.675015 0.867947 0
M  V30 12 C 3.365895 2.738535 2.340711 0
M  V30 13 C 3.515415 1.552522 3.067795 0
M  V30 14 C 3.414472 1.696728 4.455811 0
M  V30 15 C 3.181430 2.947812 5.032457 0
M  V30 16 N 3.045114 4.066640 4.262105 0
M  V30 17 C 3.135505 3.978231 2.902635 0
M  V30 18 C 2.819566 1.694557 0.098444 0
M  V30 19 C 1.939532 0.525735 0.435325 0
M  V30 20 C -1.361154 -0.514789 -1.005179 0
M  V30 21 C -2.515347 -1.215858 -0.684316 0
M  V30 22 N -2.625728 -1.775841 0.550296 0
M  V30 23 C -3.824566 -2.506144 0.888734 0
M  V30 24 C -3.704678 -3.946907 0.540509 0
M  V30 25 C -3.213643 -4.887495 1.419932 0
M  V30 26 C -3.140364 -6.201738 1.005574 0
M  V30 27 C -3.538846 -6.612546 -0.253800 0
M  V30 28 C -4.032836 -5.672491 -1.141394 0
M  V30 29 C -4.104592 -4.346265 -0.717381 0
M  V30 30 H 0.323256 -0.841911 1.824331 0
M  V30 31 H 0.742584 2.066838 -1.739975 0
M  V30 32 H 0.461551 0.507831 -2.644017 0
M  V30 33 H 2.693445 1.284513 -3.207520 0
M  V30 34 H 2.946259 -0.031084 -1.950204 0
M  V30 35 H 4.289958 3.430916 -2.131296 0
M  V30 36 H 3.691673 0.621444 2.588321 0
M  V30 37 H 3.523277 0.802819 5.073129 0
M  V30 38 H 3.109636 3.025755 6.090066 0
M  V30 39 H 3.032396 4.846353 2.257422 0
M  V30 40 H 2.562784 -0.395096 0.474499 0
M  V30 41 H 1.538833 0.756058 1.464239 0
M  V30 42 H -1.371009 -0.113151 -1.997997 0
M  V30 43 H -3.338545 -1.346470 -1.357703 0
M  V30 44 H -3.951274 -2.382402 2.001887 0
M  V30 45 H -4.724925 -2.113457 0.373664 0
M  V30 46 H -2.895167 -4.593970 2.410265 0
M  V30 47 H -2.745666 -6.931760 1.724573 0
M  V30 48 H -3.463331 -7.668766 -0.542252 0
M  V30 49 H -4.357732 -5.965806 -2.148845 0
M  V30 50 H -4.496349 -3.606775 -1.424068 0
M  V30 END ATOM
M  V30 BEGIN BOND
M  V30 1 2 1 2
M  V30 2 1 2 3
M  V30 3 2 3 4
M  V30 4 1 4 5
M  V30 5 1 5 6
M  V30 6 1 6 7
M  V30 7 1 7 8
M  V30 8 1 8 9
M  V30 9 1 9 10
M  V30 10 2 10 11
M  V30 11 1 11 12
M  V30 12 2 12 13
M  V30 13 1 13 14
M  V30 14 2 14 15
M  V30 15 1 15 16
M  V30 16 2 16 17
M  V30 17 1 11 18
M  V30 18 1 18 19
M  V30 19 1 4 20
M  V30 20 2 20 21
M  V30 21 1 21 22
M  V30 22 1 22 23
M  V30 23 1 23 24
M  V30 24 2 24 25
M  V30 25 1 25 26
M  V30 26 2 26 27
M  V30 27 1 27 28
M  V30 28 2 28 29
M  V30 29 1 22 2
M  V30 30 1 29 24
M  V30 31 1 19 5
M  V30 32 2 18 8
M  V30 33 1 17 12
M  V30 34 1 3 30
M  V30 35 1 6 31
M  V30 36 1 6 32
M  V30 37 1 7 33
M  V30 38 1 7 34
M  V30 39 1 9 35
M  V30 40 1 13 36
M  V30 41 1 14 37
M  V30 42 1 15 38
M  V30 43 1 17 39
M  V30 44 1 19 40
M  V30 45 1 19 41
M  V30 46 1 20 42
M  V30 47 1 21 43
M  V30 48 1 23 44
M  V30 49 1 23 45
M  V30 50 1 25 46
M  V30 51 1 26 47
M  V30 52 1 27 48
M  V30 53 1 28 49
M  V30 54 1 29 50
M  V30 END BOND
M  V30 END CTAB
M  END
>  <Dataset>  (68) 
ChEMBL_Kinases

>  <Ligand_Instance>  (68) 
nan

>  <PDB_ID>  (68) 
nan

>  <Standardized_SMILES>  (68) 
O=c1cc(N2CCc3[nH]nc(-c4cccnc4)c3C2)ccn1Cc1ccccc1

>  <Name>  (68) 
nan

>  <Pocket>  (68) 
nan

>  <ATP_Site>  (68) 
nan

>  <Peripheral>  (68) 
nan

>  <Num_H_Atoms_ProtBoundConf>  (68) 
nan

>  <Num_Resolved_Atoms>  (68) 
nan

>  <Num_Not_Resolved_Atoms>  (68) 
nan

$$$$
CHEMBL360534
     RDKit          3D

  0  0  0  0  0  0  0  0  0  0999 V3000
M  V30 BEGIN CTAB
M  V30 COUNTS 34 37 0 0 0
M  V30 BEGIN ATOM
M  V30 1 O -1.403627 -3.714692 0.853452 0
M  V30 2 C -1.945634 -2.879993 1.640149 0
M  V30 3 N -1.113449 -2.010004 2.413472 0
M  V30 4 C 0.307927 -2.011104 2.365015 0
M  V30 5 N 1.021934 -2.795285 3.192610 0
M  V30 6 C 2.377396 -2.815734 3.167500 0
M  V30 7 N 2.999654 -2.014440 2.274627 0
M  V30 8 C 2.298687 -1.225268 1.441148 0
M  V30 9 O 2.718457 -0.398403 0.527546 0
M  V30 10 C 1.707582 0.188986 -0.075737 0
M  V30 11 C 1.796700 1.173557 -1.149245 0
M  V30 12 C 0.687035 1.747206 -1.734162 0
M  V30 13 C 0.731911 2.680752 -2.750656 0
M  V30 14 C 1.983930 3.050154 -3.195970 0
M  V30 15 C 3.116588 2.499758 -2.637140 0
M  V30 16 C 3.031430 1.568184 -1.621383 0
M  V30 17 C 0.532310 -0.279022 0.474117 0
M  V30 18 C 0.920137 -1.184979 1.445498 0
M  V30 19 C -3.416335 -2.815630 1.748506 0
M  V30 20 C -3.978074 -1.402988 1.804451 0
M  V30 21 C -4.127866 -2.329887 2.931540 0
M  V30 22 H -1.549656 -1.315811 3.067259 0
M  V30 23 H 2.885583 -3.467056 3.857858 0
M  V30 24 H -0.304476 1.471437 -1.399744 0
M  V30 25 H -0.165922 3.108278 -3.184104 0
M  V30 26 H 2.072917 3.789904 -4.003311 0
M  V30 27 H 4.096270 2.813753 -3.012705 0
M  V30 28 H 3.965289 1.158114 -1.208171 0
M  V30 29 H -0.480657 -0.043755 0.253722 0
M  V30 30 H -3.926840 -3.548925 1.090357 0
M  V30 31 H -4.800538 -1.220944 1.064312 0
M  V30 32 H -3.270054 -0.562583 1.832960 0
M  V30 33 H -3.622583 -2.020790 3.869355 0
M  V30 34 H -5.147632 -2.736275 3.115119 0
M  V30 END ATOM
M  V30 BEGIN BOND
M  V30 1 2 1 2
M  V30 2 1 2 3
M  V30 3 1 3 4
M  V30 4 2 4 5
M  V30 5 1 5 6
M  V30 6 2 6 7
M  V30 7 1 7 8
M  V30 8 1 8 9
M  V30 9 1 9 10
M  V30 10 1 10 11
M  V30 11 2 11 12
M  V30 12 1 12 13
M  V30 13 2 13 14
M  V30 14 1 14 15
M  V30 15 2 15 16
M  V30 16 2 10 17
M  V30 17 1 17 18
M  V30 18 1 2 19
M  V30 19 1 19 20
M  V30 20 1 20 21
M  V30 21 1 18 4
M  V30 22 1 21 19
M  V30 23 2 18 8
M  V30 24 1 16 11
M  V30 25 1 3 22
M  V30 26 1 6 23
M  V30 27 1 12 24
M  V30 28 1 13 25
M  V30 29 1 14 26
M  V30 30 1 15 27
M  V30 31 1 16 28
M  V30 32 1 17 29
M  V30 33 1 19 30
M  V30 34 1 20 31
M  V30 35 1 20 32
M  V30 36 1 21 33
M  V30 37 1 21 34
M  V30 END BOND
M  V30 END CTAB
M  END
>  <Dataset>  (69) 
ChEMBL_Kinases

>  <Ligand_Instance>  (69) 
nan

>  <PDB_ID>  (69) 
nan

>  <Standardized_SMILES>  (69) 
O=C(Nc1ncnc2oc(-c3ccccc3)cc12)C1CC1

>  <Name>  (69) 
nan

>  <Pocket>  (69) 
nan

>  <ATP_Site>  (69) 
nan

>  <Peripheral>  (69) 
nan

>  <Num_H_Atoms_ProtBoundConf>  (69) 
nan

>  <Num_Resolved_Atoms>  (69) 
nan

>  <Num_Not_Resolved_Atoms>  (69) 
nan

$$$$
CHEMBL3604850
     RDKit          3D

  0  0  0  0  0  0  0  0  0  0999 V3000
M  V30 BEGIN CTAB
M  V30 COUNTS 50 54 0 0 0
M  V30 BEGIN ATOM
M  V30 1 O -0.194302 -4.510701 2.487947 0
M  V30 2 C -0.385696 -3.346635 2.018494 0
M  V30 3 C 0.682852 -2.511350 1.766179 0
M  V30 4 C 0.549564 -1.229574 1.254612 0
M  V30 5 N 1.647540 -0.366705 0.989932 0
M  V30 6 C 2.943209 -0.964396 1.216314 0
M  V30 7 C 4.091368 -0.220946 0.584796 0
M  V30 8 C 3.796374 1.226310 0.474922 0
M  V30 9 N 4.661631 2.249573 0.378560 0
M  V30 10 N 3.972105 3.397675 0.298512 0
M  V30 11 C 2.637497 3.100507 0.344819 0
M  V30 12 C 1.759765 4.226049 0.269759 0
M  V30 13 C 1.965590 5.242577 -0.659191 0
M  V30 14 C 1.147050 6.368336 -0.785450 0
M  V30 15 N 0.087380 6.469995 0.053301 0
M  V30 16 C -0.166065 5.521995 0.972668 0
M  V30 17 C 0.657543 4.413107 1.082073 0
M  V30 18 C 2.520183 1.753613 0.454407 0
M  V30 19 C 1.305182 0.978268 0.537652 0
M  V30 20 C -0.780859 -0.874175 1.022092 0
M  V30 21 C -1.853338 -1.679108 1.262295 0
M  V30 22 N -1.637347 -2.923826 1.765099 0
M  V30 23 C -2.769528 -3.788477 2.024505 0
M  V30 24 C -3.140920 -4.631758 0.873368 0
M  V30 25 C -4.060960 -4.196160 -0.077818 0
M  V30 26 C -4.469474 -4.921786 -1.191948 0
M  V30 27 C -3.910569 -6.174389 -1.357785 0
M  V30 28 C -2.989392 -6.673501 -0.452816 0
M  V30 29 Cl -2.310095 -8.266120 -0.707168 0
M  V30 30 C -2.637471 -5.890301 0.625953 0
M  V30 31 H 1.643193 -2.900656 1.987487 0
M  V30 32 H 3.002517 -1.997025 0.788916 0
M  V30 33 H 3.091581 -0.968628 2.318523 0
M  V30 34 H 4.369692 -0.636728 -0.405357 0
M  V30 35 H 4.975264 -0.344313 1.257747 0
M  V30 36 H 5.721067 2.181824 0.366065 0
M  V30 37 H 2.811827 5.177961 -1.341273 0
M  V30 38 H 1.361055 7.108344 -1.517054 0
M  V30 39 H -1.023508 5.643653 1.622227 0
M  V30 40 H 0.419801 3.690801 1.821049 0
M  V30 41 H 0.924398 0.820932 -0.498005 0
M  V30 42 H 0.460771 1.408480 1.078378 0
M  V30 43 H -1.010333 0.084855 0.629287 0
M  V30 44 H -2.869687 -1.379476 1.073665 0
M  V30 45 H -2.630386 -4.415269 2.934766 0
M  V30 46 H -3.640622 -3.124645 2.253899 0
M  V30 47 H -4.501871 -3.209262 0.052116 0
M  V30 48 H -5.187597 -4.496348 -1.870091 0
M  V30 49 H -4.214254 -6.762742 -2.222848 0
M  V30 50 H -1.920203 -6.301294 1.313684 0
M  V30 END ATOM
M  V30 BEGIN BOND
M  V30 1 2 1 2
M  V30 2 1 2 3
M  V30 3 2 3 4
M  V30 4 1 4 5
M  V30 5 1 5 6
M  V30 6 1 6 7
M  V30 7 1 7 8
M  V30 8 1 8 9
M  V30 9 1 9 10
M  V30 10 2 10 11
M  V30 11 1 11 12
M  V30 12 2 12 13
M  V30 13 1 13 14
M  V30 14 2 14 15
M  V30 15 1 15 16
M  V30 16 2 16 17
M  V30 17 1 11 18
M  V30 18 1 18 19
M  V30 19 1 4 20
M  V30 20 2 20 21
M  V30 21 1 21 22
M  V30 22 1 22 23
M  V30 23 1 23 24
M  V30 24 2 24 25
M  V30 25 1 25 26
M  V30 26 2 26 27
M  V30 27 1 27 28
M  V30 28 1 28 29
M  V30 29 2 28 30
M  V30 30 1 22 2
M  V30 31 1 30 24
M  V30 32 1 19 5
M  V30 33 2 18 8
M  V30 34 1 17 12
M  V30 35 1 3 31
M  V30 36 1 6 32
M  V30 37 1 6 33
M  V30 38 1 7 34
M  V30 39 1 7 35
M  V30 40 1 9 36
M  V30 41 1 13 37
M  V30 42 1 14 38
M  V30 43 1 16 39
M  V30 44 1 17 40
M  V30 45 1 19 41
M  V30 46 1 19 42
M  V30 47 1 20 43
M  V30 48 1 21 44
M  V30 49 1 23 45
M  V30 50 1 23 46
M  V30 51 1 25 47
M  V30 52 1 26 48
M  V30 53 1 27 49
M  V30 54 1 30 50
M  V30 END BOND
M  V30 END CTAB
M  END
>  <Dataset>  (70) 
ChEMBL_Kinases

>  <Ligand_Instance>  (70) 
nan

>  <PDB_ID>  (70) 
nan

>  <Standardized_SMILES>  (70) 
O=c1cc(N2CCc3[nH]nc(-c4ccncc4)c3C2)ccn1Cc1cccc(Cl)c1

>  <Name>  (70) 
nan

>  <Pocket>  (70) 
nan

>  <ATP_Site>  (70) 
nan

>  <Peripheral>  (70) 
nan

>  <Num_H_Atoms_ProtBoundConf>  (70) 
nan

>  <Num_Resolved_Atoms>  (70) 
nan

>  <Num_Not_Resolved_Atoms>  (70) 
nan

$$$$
CHEMBL3604851
     RDKit          3D

  0  0  0  0  0  0  0  0  0  0999 V3000
M  V30 BEGIN CTAB
M  V30 COUNTS 50 54 0 0 0
M  V30 BEGIN ATOM
M  V30 1 O -0.386209 -4.377459 2.631608 0
M  V30 2 C -0.532820 -3.246534 2.058487 0
M  V30 3 C 0.558723 -2.434483 1.829889 0
M  V30 4 C 0.484865 -1.191086 1.213024 0
M  V30 5 N 1.616773 -0.362027 0.976873 0
M  V30 6 C 2.902867 -0.940569 1.306075 0
M  V30 7 C 4.074924 -0.218984 0.677453 0
M  V30 8 C 3.825527 1.237264 0.591193 0
M  V30 9 N 4.723335 2.209498 0.603406 0
M  V30 10 N 4.031788 3.346914 0.502193 0
M  V30 11 C 2.694104 3.087620 0.426138 0
M  V30 12 C 1.821712 4.209719 0.313733 0
M  V30 13 C 2.140964 5.236061 -0.580476 0
M  V30 14 C 1.373260 6.386965 -0.785785 0
M  V30 15 N 0.234939 6.501519 -0.054019 0
M  V30 16 C -0.137911 5.551967 0.828162 0
M  V30 17 C 0.640765 4.423897 1.010864 0
M  V30 18 C 2.547014 1.743300 0.481849 0
M  V30 19 C 1.327814 0.957075 0.440609 0
M  V30 20 C -0.813403 -0.852878 0.849874 0
M  V30 21 C -1.907101 -1.638030 1.065132 0
M  V30 22 N -1.753709 -2.834655 1.671322 0
M  V30 23 C -2.903471 -3.676879 1.905855 0
M  V30 24 C -3.208158 -4.609590 0.820127 0
M  V30 25 C -4.067571 -4.225127 -0.212607 0
M  V30 26 C -4.409486 -5.040594 -1.275332 0
M  V30 27 C -3.856348 -6.315511 -1.302265 0
M  V30 28 C -3.002634 -6.765801 -0.322410 0
M  V30 29 Br -2.254400 -8.528772 -0.384523 0
M  V30 30 C -2.709514 -5.893614 0.705163 0
M  V30 31 H 1.501231 -2.816324 2.162059 0
M  V30 32 H 2.958546 -2.013719 1.018476 0
M  V30 33 H 3.022916 -0.817351 2.418344 0
M  V30 34 H 4.281080 -0.615328 -0.341983 0
M  V30 35 H 4.966957 -0.439931 1.326016 0
M  V30 36 H 5.778647 2.186157 0.674549 0
M  V30 37 H 3.066096 5.125232 -1.163654 0
M  V30 38 H 1.726602 7.093438 -1.495928 0
M  V30 39 H -1.038198 5.620605 1.421225 0
M  V30 40 H 0.357599 3.653254 1.713075 0
M  V30 41 H 1.069384 0.769776 -0.626879 0
M  V30 42 H 0.430092 1.407767 0.866742 0
M  V30 43 H -1.005039 0.073546 0.367668 0
M  V30 44 H -2.911812 -1.355399 0.773936 0
M  V30 45 H -2.832170 -4.203822 2.882800 0
M  V30 46 H -3.787865 -2.994726 2.029233 0
M  V30 47 H -4.480578 -3.217773 -0.155172 0
M  V30 48 H -5.081702 -4.647433 -2.020962 0
M  V30 49 H -4.129546 -6.949328 -2.139410 0
M  V30 50 H -2.047358 -6.239287 1.467518 0
M  V30 END ATOM
M  V30 BEGIN BOND
M  V30 1 2 1 2
M  V30 2 1 2 3
M  V30 3 2 3 4
M  V30 4 1 4 5
M  V30 5 1 5 6
M  V30 6 1 6 7
M  V30 7 1 7 8
M  V30 8 1 8 9
M  V30 9 1 9 10
M  V30 10 2 10 11
M  V30 11 1 11 12
M  V30 12 2 12 13
M  V30 13 1 13 14
M  V30 14 2 14 15
M  V30 15 1 15 16
M  V30 16 2 16 17
M  V30 17 1 11 18
M  V30 18 1 18 19
M  V30 19 1 4 20
M  V30 20 2 20 21
M  V30 21 1 21 22
M  V30 22 1 22 23
M  V30 23 1 23 24
M  V30 24 2 24 25
M  V30 25 1 25 26
M  V30 26 2 26 27
M  V30 27 1 27 28
M  V30 28 1 28 29
M  V30 29 2 28 30
M  V30 30 1 22 2
M  V30 31 1 30 24
M  V30 32 1 19 5
M  V30 33 2 18 8
M  V30 34 1 17 12
M  V30 35 1 3 31
M  V30 36 1 6 32
M  V30 37 1 6 33
M  V30 38 1 7 34
M  V30 39 1 7 35
M  V30 40 1 9 36
M  V30 41 1 13 37
M  V30 42 1 14 38
M  V30 43 1 16 39
M  V30 44 1 17 40
M  V30 45 1 19 41
M  V30 46 1 19 42
M  V30 47 1 20 43
M  V30 48 1 21 44
M  V30 49 1 23 45
M  V30 50 1 23 46
M  V30 51 1 25 47
M  V30 52 1 26 48
M  V30 53 1 27 49
M  V30 54 1 30 50
M  V30 END BOND
M  V30 END CTAB
M  END
>  <Dataset>  (71) 
ChEMBL_Kinases

>  <Ligand_Instance>  (71) 
nan

>  <PDB_ID>  (71) 
nan

>  <Standardized_SMILES>  (71) 
O=c1cc(N2CCc3[nH]nc(-c4ccncc4)c3C2)ccn1Cc1cccc(Br)c1

>  <Name>  (71) 
nan

>  <Pocket>  (71) 
nan

>  <ATP_Site>  (71) 
nan

>  <Peripheral>  (71) 
nan

>  <Num_H_Atoms_ProtBoundConf>  (71) 
nan

>  <Num_Resolved_Atoms>  (71) 
nan

>  <Num_Not_Resolved_Atoms>  (71) 
nan

$$$$
CHEMBL3604852
     RDKit          3D

  0  0  0  0  0  0  0  0  0  0999 V3000
M  V30 BEGIN CTAB
M  V30 COUNTS 56 60 0 0 0
M  V30 BEGIN ATOM
M  V30 1 C 6.252589 -0.021701 5.048567 0
M  V30 2 S 4.592319 -0.543900 4.756059 0
M  V30 3 O 3.620852 0.587453 5.018712 0
M  V30 4 O 4.222901 -1.695116 5.656047 0
M  V30 5 C 4.455771 -1.006040 3.071597 0
M  V30 6 C 4.723906 -2.330029 2.801665 0
M  V30 7 C 4.621743 -2.722011 1.467135 0
M  V30 8 C 4.269591 -1.810862 0.494565 0
M  V30 9 C 4.003113 -0.487531 0.774872 0
M  V30 10 C 3.620354 0.538080 -0.226744 0
M  V30 11 N 2.160093 0.562664 -0.356267 0
M  V30 12 C 1.456866 1.393795 0.450945 0
M  V30 13 C 0.061422 1.446236 0.357562 0
M  V30 14 C -0.609459 0.675319 -0.532523 0
M  V30 15 N -2.029551 0.761393 -0.594353 0
M  V30 16 C -2.663386 1.692413 0.285836 0
M  V30 17 C -4.125759 1.891345 0.029547 0
M  V30 18 C -4.847848 0.605285 -0.062897 0
M  V30 19 N -5.975979 0.014273 0.362715 0
M  V30 20 N -6.025630 -1.225545 -0.106669 0
M  V30 21 C -4.927086 -1.483075 -0.856166 0
M  V30 22 C -4.679118 -2.772915 -1.520955 0
M  V30 23 C -4.238468 -2.932111 -2.823291 0
M  V30 24 C -4.062488 -4.225951 -3.273824 0
M  V30 25 N -4.294491 -5.315629 -2.521628 0
M  V30 26 C -4.721926 -5.170966 -1.257750 0
M  V30 27 C -4.917518 -3.900632 -0.747646 0
M  V30 28 C -4.171826 -0.315480 -0.830647 0
M  V30 29 C -2.866691 -0.025239 -1.481393 0
M  V30 30 C 0.153261 -0.151645 -1.328901 0
M  V30 31 C 1.526798 -0.222130 -1.256996 0
M  V30 32 O 2.169206 -0.996733 -2.010563 0
M  V30 33 C 4.104078 -0.088462 2.112366 0
M  V30 34 H 6.350702 1.060902 5.269125 0
M  V30 35 H 6.920184 -0.218377 4.178405 0
M  V30 36 H 6.714750 -0.545146 5.917728 0
M  V30 37 H 4.999737 -3.046153 3.560139 0
M  V30 38 H 4.820613 -3.743793 1.202909 0
M  V30 39 H 4.194486 -2.129401 -0.535245 0
M  V30 40 H 4.041209 0.291936 -1.234265 0
M  V30 41 H 3.983458 1.513617 0.132982 0
M  V30 42 H 2.022598 2.001450 1.156581 0
M  V30 43 H -0.379066 2.145639 1.053277 0
M  V30 44 H -2.182903 2.703779 0.293416 0
M  V30 45 H -2.556580 1.292513 1.315097 0
M  V30 46 H -4.257391 2.428331 -0.944221 0
M  V30 47 H -4.544242 2.572532 0.796982 0
M  V30 48 H -6.657608 0.536690 0.973481 0
M  V30 49 H -4.067980 -2.040535 -3.381075 0
M  V30 50 H -3.713250 -4.268683 -4.310532 0
M  V30 51 H -4.894967 -6.088879 -0.691090 0
M  V30 52 H -5.268610 -3.802093 0.291546 0
M  V30 53 H -2.994611 0.598554 -2.413094 0
M  V30 54 H -2.349039 -0.924772 -1.807311 0
M  V30 55 H -0.336043 -0.782089 -2.050688 0
M  V30 56 H 3.920417 0.913559 2.449722 0
M  V30 END ATOM
M  V30 BEGIN BOND
M  V30 1 1 1 2
M  V30 2 2 2 3
M  V30 3 2 2 4
M  V30 4 1 2 5
M  V30 5 2 5 6
M  V30 6 1 6 7
M  V30 7 2 7 8
M  V30 8 1 8 9
M  V30 9 1 9 10
M  V30 10 1 10 11
M  V30 11 1 11 12
M  V30 12 2 12 13
M  V30 13 1 13 14
M  V30 14 1 14 15
M  V30 15 1 15 16
M  V30 16 1 16 17
M  V30 17 1 17 18
M  V30 18 1 18 19
M  V30 19 1 19 20
M  V30 20 2 20 21
M  V30 21 1 21 22
M  V30 22 2 22 23
M  V30 23 1 23 24
M  V30 24 2 24 25
M  V30 25 1 25 26
M  V30 26 2 26 27
M  V30 27 1 21 28
M  V30 28 1 28 29
M  V30 29 2 14 30
M  V30 30 1 30 31
M  V30 31 2 31 32
M  V30 32 2 9 33
M  V30 33 1 33 5
M  V30 34 1 31 11
M  V30 35 1 29 15
M  V30 36 2 28 18
M  V30 37 1 27 22
M  V30 38 1 1 34
M  V30 39 1 1 35
M  V30 40 1 1 36
M  V30 41 1 6 37
M  V30 42 1 7 38
M  V30 43 1 8 39
M  V30 44 1 10 40
M  V30 45 1 10 41
M  V30 46 1 12 42
M  V30 47 1 13 43
M  V30 48 1 16 44
M  V30 49 1 16 45
M  V30 50 1 17 46
M  V30 51 1 17 47
M  V30 52 1 19 48
M  V30 53 1 23 49
M  V30 54 1 24 50
M  V30 55 1 26 51
M  V30 56 1 27 52
M  V30 57 1 29 53
M  V30 58 1 29 54
M  V30 59 1 30 55
M  V30 60 1 33 56
M  V30 END BOND
M  V30 END CTAB
M  END
>  <Dataset>  (72) 
ChEMBL_Kinases

>  <Ligand_Instance>  (72) 
nan

>  <PDB_ID>  (72) 
nan

>  <Standardized_SMILES>  (72) 
CS(=O)(=O)c1cccc(Cn2ccc(N3CCc4[nH]nc(-c5ccncc5)c4C3)cc2=O)c1

>  <Name>  (72) 
nan

>  <Pocket>  (72) 
nan

>  <ATP_Site>  (72) 
nan

>  <Peripheral>  (72) 
nan

>  <Num_H_Atoms_ProtBoundConf>  (72) 
nan

>  <Num_Resolved_Atoms>  (72) 
nan

>  <Num_Not_Resolved_Atoms>  (72) 
nan

$$$$
CHEMBL3604853
     RDKit          3D

  0  0  0  0  0  0  0  0  0  0999 V3000
M  V30 BEGIN CTAB
M  V30 COUNTS 53 57 0 0 0
M  V30 BEGIN ATOM
M  V30 1 C 0.689098 -3.121303 6.027455 0
M  V30 2 C 1.725703 -2.338934 5.304732 0
M  V30 3 C 2.332014 -1.245926 5.876758 0
M  V30 4 C 3.279832 -0.545336 5.192896 0
M  V30 5 C 3.637414 -0.926173 3.924779 0
M  V30 6 C 3.051043 -2.031089 3.296708 0
M  V30 7 C 3.500529 -2.364890 1.931097 0
M  V30 8 N 2.675040 -1.655312 0.975469 0
M  V30 9 C 3.066548 -0.414651 0.573088 0
M  V30 10 C 2.298976 0.296066 -0.343205 0
M  V30 11 C 1.143175 -0.186774 -0.880446 0
M  V30 12 N 0.364325 0.540626 -1.811048 0
M  V30 13 C 0.678362 1.875904 -2.272244 0
M  V30 14 C -0.412469 2.831928 -1.848474 0
M  V30 15 C -1.690440 2.165666 -1.589177 0
M  V30 16 N -2.807914 2.689043 -1.073423 0
M  V30 17 N -3.732023 1.768775 -1.000560 0
M  V30 18 C -3.236157 0.607818 -1.472116 0
M  V30 19 C -3.958645 -0.631202 -1.552106 0
M  V30 20 C -5.254357 -0.505904 -2.068979 0
M  V30 21 C -6.080736 -1.595803 -2.211408 0
M  V30 22 N -5.665571 -2.838479 -1.853324 0
M  V30 23 C -4.414171 -2.986594 -1.349752 0
M  V30 24 C -3.570473 -1.905583 -1.199234 0
M  V30 25 C -1.951264 0.856166 -1.842958 0
M  V30 26 C -0.851373 0.052071 -2.426991 0
M  V30 27 C 0.791189 -1.435869 -0.446101 0
M  V30 28 C 1.539236 -2.153807 0.460622 0
M  V30 29 O 1.222863 -3.300099 0.863815 0
M  V30 30 C 2.104878 -2.697397 4.031204 0
M  V30 31 H 1.075182 -3.780412 6.803929 0
M  V30 32 H 0.125506 -3.744433 5.282311 0
M  V30 33 H -0.077642 -2.443376 6.499782 0
M  V30 34 H 2.034455 -0.957696 6.887457 0
M  V30 35 H 3.750857 0.317834 5.659564 0
M  V30 36 H 4.400713 -0.356032 3.383059 0
M  V30 37 H 3.389699 -3.445805 1.700913 0
M  V30 38 H 4.538946 -2.022681 1.807702 0
M  V30 39 H 3.985431 -0.022042 0.995574 0
M  V30 40 H 2.701236 1.249365 -0.581719 0
M  V30 41 H 1.664663 2.230315 -1.988216 0
M  V30 42 H 0.670066 1.838179 -3.401087 0
M  V30 43 H -0.090439 3.349588 -0.923805 0
M  V30 44 H -0.522752 3.606854 -2.662319 0
M  V30 45 H -3.020872 3.660663 -0.747157 0
M  V30 46 H -5.692553 0.444284 -2.389132 0
M  V30 47 H -7.076084 -1.571629 -2.596972 0
M  V30 48 H -4.006457 -3.945155 -1.039935 0
M  V30 49 H -2.565134 -1.955902 -0.804742 0
M  V30 50 H -0.775246 0.249829 -3.520872 0
M  V30 51 H -0.956994 -1.019667 -2.312203 0
M  V30 52 H -0.081470 -1.948095 -0.769768 0
M  V30 53 H 1.640323 -3.550906 3.568161 0
M  V30 END ATOM
M  V30 BEGIN BOND
M  V30 1 1 1 2
M  V30 2 2 2 3
M  V30 3 1 3 4
M  V30 4 2 4 5
M  V30 5 1 5 6
M  V30 6 1 6 7
M  V30 7 1 7 8
M  V30 8 1 8 9
M  V30 9 2 9 10
M  V30 10 1 10 11
M  V30 11 1 11 12
M  V30 12 1 12 13
M  V30 13 1 13 14
M  V30 14 1 14 15
M  V30 15 1 15 16
M  V30 16 1 16 17
M  V30 17 2 17 18
M  V30 18 1 18 19
M  V30 19 2 19 20
M  V30 20 1 20 21
M  V30 21 2 21 22
M  V30 22 1 22 23
M  V30 23 2 23 24
M  V30 24 1 18 25
M  V30 25 1 25 26
M  V30 26 2 11 27
M  V30 27 1 27 28
M  V30 28 2 28 29
M  V30 29 2 6 30
M  V30 30 1 30 2
M  V30 31 1 28 8
M  V30 32 1 26 12
M  V30 33 2 25 15
M  V30 34 1 24 19
M  V30 35 1 1 31
M  V30 36 1 1 32
M  V30 37 1 1 33
M  V30 38 1 3 34
M  V30 39 1 4 35
M  V30 40 1 5 36
M  V30 41 1 7 37
M  V30 42 1 7 38
M  V30 43 1 9 39
M  V30 44 1 10 40
M  V30 45 1 13 41
M  V30 46 1 13 42
M  V30 47 1 14 43
M  V30 48 1 14 44
M  V30 49 1 16 45
M  V30 50 1 20 46
M  V30 51 1 21 47
M  V30 52 1 23 48
M  V30 53 1 24 49
M  V30 54 1 26 50
M  V30 55 1 26 51
M  V30 56 1 27 52
M  V30 57 1 30 53
M  V30 END BOND
M  V30 END CTAB
M  END
>  <Dataset>  (73) 
ChEMBL_Kinases

>  <Ligand_Instance>  (73) 
nan

>  <PDB_ID>  (73) 
nan

>  <Standardized_SMILES>  (73) 
Cc1cccc(Cn2ccc(N3CCc4[nH]nc(-c5ccncc5)c4C3)cc2=O)c1

>  <Name>  (73) 
nan

>  <Pocket>  (73) 
nan

>  <ATP_Site>  (73) 
nan

>  <Peripheral>  (73) 
nan

>  <Num_H_Atoms_ProtBoundConf>  (73) 
nan

>  <Num_Resolved_Atoms>  (73) 
nan

>  <Num_Not_Resolved_Atoms>  (73) 
nan

$$$$
CHEMBL3604854
     RDKit          3D

  0  0  0  0  0  0  0  0  0  0999 V3000
M  V30 BEGIN CTAB
M  V30 COUNTS 50 54 0 0 0
M  V30 BEGIN ATOM
M  V30 1 O -1.016433 -3.738003 2.843183 0
M  V30 2 C -0.883767 -2.768088 2.033832 0
M  V30 3 C 0.370841 -2.192443 1.837633 0
M  V30 4 C 0.516752 -1.143689 0.963076 0
M  V30 5 N 1.793951 -0.586683 0.788431 0
M  V30 6 C 2.890050 -1.154200 1.541870 0
M  V30 7 C 4.231031 -0.581559 1.131340 0
M  V30 8 C 4.082732 0.905677 1.333095 0
M  V30 9 N 4.710166 1.922540 1.968214 0
M  V30 10 N 4.037859 3.046886 1.738901 0
M  V30 11 C 2.971997 2.789149 0.959525 0
M  V30 12 C 1.990627 3.759715 0.487910 0
M  V30 13 C 2.546222 4.923913 0.010043 0
M  V30 14 C 1.677492 5.909324 -0.461881 0
M  V30 15 N 0.318910 5.786135 -0.476787 0
M  V30 16 C -0.191196 4.626480 0.001401 0
M  V30 17 C 0.617665 3.625248 0.477194 0
M  V30 18 C 2.982385 1.435966 0.690787 0
M  V30 19 C 2.111062 0.519105 -0.090773 0
M  V30 20 C -0.630495 -0.726503 0.323918 0
M  V30 21 C -1.866395 -1.304266 0.526473 0
M  V30 22 N -1.980038 -2.329940 1.388807 0
M  V30 23 C -3.302780 -2.898955 1.562843 0
M  V30 24 C -3.568025 -4.007265 0.607046 0
M  V30 25 C -3.259543 -5.328524 0.924870 0
M  V30 26 C -3.536208 -6.301630 -0.016784 0
M  V30 27 C -4.100087 -5.969395 -1.231480 0
M  V30 28 F -4.398937 -6.884209 -2.207217 0
M  V30 29 C -4.415107 -4.657584 -1.567426 0
M  V30 30 C -4.132487 -3.697718 -0.615904 0
M  V30 31 H 1.191166 -2.624144 2.410369 0
M  V30 32 H 2.955276 -2.253201 1.428006 0
M  V30 33 H 2.743224 -0.845816 2.599218 0
M  V30 34 H 4.460071 -0.751263 0.069937 0
M  V30 35 H 4.977330 -0.997282 1.834731 0
M  V30 36 H 5.579610 1.703829 2.516542 0
M  V30 37 H 3.577261 5.211159 -0.062828 0
M  V30 38 H 1.979941 6.883416 -0.869904 0
M  V30 39 H -1.247460 4.412687 0.041092 0
M  V30 40 H 0.245737 2.687101 0.866348 0
M  V30 41 H 2.758016 0.070429 -0.900954 0
M  V30 42 H 1.251828 1.019693 -0.533891 0
M  V30 43 H -0.557457 0.096549 -0.372479 0
M  V30 44 H -2.717831 -0.901461 -0.028713 0
M  V30 45 H -3.435467 -3.271906 2.619648 0
M  V30 46 H -4.067498 -2.115312 1.382911 0
M  V30 47 H -2.818295 -5.577725 1.878749 0
M  V30 48 H -3.322669 -7.333323 0.167591 0
M  V30 49 H -4.857095 -4.379902 -2.514271 0
M  V30 50 H -4.362410 -2.654448 -0.834977 0
M  V30 END ATOM
M  V30 BEGIN BOND
M  V30 1 2 1 2
M  V30 2 1 2 3
M  V30 3 2 3 4
M  V30 4 1 4 5
M  V30 5 1 5 6
M  V30 6 1 6 7
M  V30 7 1 7 8
M  V30 8 1 8 9
M  V30 9 1 9 10
M  V30 10 2 10 11
M  V30 11 1 11 12
M  V30 12 2 12 13
M  V30 13 1 13 14
M  V30 14 2 14 15
M  V30 15 1 15 16
M  V30 16 2 16 17
M  V30 17 1 11 18
M  V30 18 1 18 19
M  V30 19 1 4 20
M  V30 20 2 20 21
M  V30 21 1 21 22
M  V30 22 1 22 23
M  V30 23 1 23 24
M  V30 24 2 24 25
M  V30 25 1 25 26
M  V30 26 2 26 27
M  V30 27 1 27 28
M  V30 28 1 27 29
M  V30 29 2 29 30
M  V30 30 1 22 2
M  V30 31 1 30 24
M  V30 32 1 19 5
M  V30 33 2 18 8
M  V30 34 1 17 12
M  V30 35 1 3 31
M  V30 36 1 6 32
M  V30 37 1 6 33
M  V30 38 1 7 34
M  V30 39 1 7 35
M  V30 40 1 9 36
M  V30 41 1 13 37
M  V30 42 1 14 38
M  V30 43 1 16 39
M  V30 44 1 17 40
M  V30 45 1 19 41
M  V30 46 1 19 42
M  V30 47 1 20 43
M  V30 48 1 21 44
M  V30 49 1 23 45
M  V30 50 1 23 46
M  V30 51 1 25 47
M  V30 52 1 26 48
M  V30 53 1 29 49
M  V30 54 1 30 50
M  V30 END BOND
M  V30 END CTAB
M  END
>  <Dataset>  (74) 
ChEMBL_Kinases

>  <Ligand_Instance>  (74) 
nan

>  <PDB_ID>  (74) 
nan

>  <Standardized_SMILES>  (74) 
O=c1cc(N2CCc3[nH]nc(-c4ccncc4)c3C2)ccn1Cc1ccc(F)cc1

>  <Name>  (74) 
nan

>  <Pocket>  (74) 
nan

>  <ATP_Site>  (74) 
nan

>  <Peripheral>  (74) 
nan

>  <Num_H_Atoms_ProtBoundConf>  (74) 
nan

>  <Num_Resolved_Atoms>  (74) 
nan

>  <Num_Not_Resolved_Atoms>  (74) 
nan

$$$$
CHEMBL3604855
     RDKit          3D

  0  0  0  0  0  0  0  0  0  0999 V3000
M  V30 BEGIN CTAB
M  V30 COUNTS 50 54 0 0 0
M  V30 BEGIN ATOM
M  V30 1 O -0.412062 -4.481319 2.273273 0
M  V30 2 C -0.477939 -3.319114 1.786295 0
M  V30 3 C 0.644475 -2.489181 1.677870 0
M  V30 4 C 0.509346 -1.227535 1.135980 0
M  V30 5 N 1.662301 -0.401289 1.033255 0
M  V30 6 C 2.934050 -0.948410 1.449401 0
M  V30 7 C 4.125944 -0.200219 0.886713 0
M  V30 8 C 3.957906 1.262355 0.892175 0
M  V30 9 N 4.793070 2.277778 1.038920 0
M  V30 10 N 4.079402 3.396968 0.954594 0
M  V30 11 C 2.770516 3.118091 0.751724 0
M  V30 12 C 1.854217 4.245306 0.634768 0
M  V30 13 C 2.233015 5.302537 -0.174135 0
M  V30 14 C 1.482222 6.459502 -0.398170 0
M  V30 15 N 0.298945 6.534476 0.231086 0
M  V30 16 C -0.108166 5.538184 1.021847 0
M  V30 17 C 0.627471 4.393911 1.247413 0
M  V30 18 C 2.679649 1.744480 0.709559 0
M  V30 19 C 1.459060 0.958817 0.507399 0
M  V30 20 C -0.738314 -0.822181 0.715248 0
M  V30 21 C -1.832154 -1.688071 0.844208 0
M  V30 22 N -1.719281 -2.943439 1.379143 0
M  V30 23 C -2.886480 -3.736107 1.476438 0
M  V30 24 C -3.231243 -4.610850 0.374669 0
M  V30 25 C -4.402246 -5.338164 0.632513 0
M  V30 26 C -4.925432 -6.236217 -0.271538 0
M  V30 27 C -4.316991 -6.466495 -1.487137 0
M  V30 28 C -3.164854 -5.761804 -1.760176 0
M  V30 29 C -2.652527 -4.866918 -0.847409 0
M  V30 30 Br -1.066460 -3.862024 -1.160617 0
M  V30 31 H 1.547351 -2.919867 2.039113 0
M  V30 32 H 3.077571 -1.996106 1.077905 0
M  V30 33 H 3.005495 -0.869154 2.554364 0
M  V30 34 H 4.353292 -0.590338 -0.136211 0
M  V30 35 H 5.007122 -0.470540 1.526404 0
M  V30 36 H 5.835115 2.222240 1.194701 0
M  V30 37 H 3.183981 5.260314 -0.689861 0
M  V30 38 H 1.862638 7.232337 -1.048176 0
M  V30 39 H -1.060509 5.628065 1.511688 0
M  V30 40 H 0.316458 3.577859 1.884787 0
M  V30 41 H 1.314872 0.795047 -0.598738 0
M  V30 42 H 0.557747 1.415792 0.904146 0
M  V30 43 H -0.895142 0.136767 0.291543 0
M  V30 44 H -2.807982 -1.330031 0.498382 0
M  V30 45 H -2.762248 -4.385370 2.391675 0
M  V30 46 H -3.808184 -3.131802 1.734475 0
M  V30 47 H -5.006539 -5.276392 1.542843 0
M  V30 48 H -5.825149 -6.812327 -0.104174 0
M  V30 49 H -4.605508 -7.130121 -2.285147 0
M  V30 50 H -2.566296 -5.830881 -2.675764 0
M  V30 END ATOM
M  V30 BEGIN BOND
M  V30 1 2 1 2
M  V30 2 1 2 3
M  V30 3 2 3 4
M  V30 4 1 4 5
M  V30 5 1 5 6
M  V30 6 1 6 7
M  V30 7 1 7 8
M  V30 8 1 8 9
M  V30 9 1 9 10
M  V30 10 2 10 11
M  V30 11 1 11 12
M  V30 12 2 12 13
M  V30 13 1 13 14
M  V30 14 2 14 15
M  V30 15 1 15 16
M  V30 16 2 16 17
M  V30 17 1 11 18
M  V30 18 1 18 19
M  V30 19 1 4 20
M  V30 20 2 20 21
M  V30 21 1 21 22
M  V30 22 1 22 23
M  V30 23 1 23 24
M  V30 24 2 24 25
M  V30 25 1 25 26
M  V30 26 2 26 27
M  V30 27 1 27 28
M  V30 28 2 28 29
M  V30 29 1 29 30
M  V30 30 1 22 2
M  V30 31 1 29 24
M  V30 32 1 19 5
M  V30 33 2 18 8
M  V30 34 1 17 12
M  V30 35 1 3 31
M  V30 36 1 6 32
M  V30 37 1 6 33
M  V30 38 1 7 34
M  V30 39 1 7 35
M  V30 40 1 9 36
M  V30 41 1 13 37
M  V30 42 1 14 38
M  V30 43 1 16 39
M  V30 44 1 17 40
M  V30 45 1 19 41
M  V30 46 1 19 42
M  V30 47 1 20 43
M  V30 48 1 21 44
M  V30 49 1 23 45
M  V30 50 1 23 46
M  V30 51 1 25 47
M  V30 52 1 26 48
M  V30 53 1 27 49
M  V30 54 1 28 50
M  V30 END BOND
M  V30 END CTAB
M  END
>  <Dataset>  (75) 
ChEMBL_Kinases

>  <Ligand_Instance>  (75) 
nan

>  <PDB_ID>  (75) 
nan

>  <Standardized_SMILES>  (75) 
O=c1cc(N2CCc3[nH]nc(-c4ccncc4)c3C2)ccn1Cc1ccccc1Br

>  <Name>  (75) 
nan

>  <Pocket>  (75) 
nan

>  <ATP_Site>  (75) 
nan

>  <Peripheral>  (75) 
nan

>  <Num_H_Atoms_ProtBoundConf>  (75) 
nan

>  <Num_Resolved_Atoms>  (75) 
nan

>  <Num_Not_Resolved_Atoms>  (75) 
nan

$$$$
CHEMBL3604856
     RDKit          3D

  0  0  0  0  0  0  0  0  0  0999 V3000
M  V30 BEGIN CTAB
M  V30 COUNTS 37 40 0 0 0
M  V30 BEGIN ATOM
M  V30 1 O -1.022095 -1.642507 4.797127 0
M  V30 2 C -0.289544 -2.249109 3.957393 0
M  V30 3 C -0.403537 -1.860874 2.641076 0
M  V30 4 C 0.361452 -2.477846 1.682938 0
M  V30 5 N 0.342692 -2.176273 0.293542 0
M  V30 6 C 1.208077 -2.892355 -0.654473 0
M  V30 7 C 1.339325 -2.164071 -1.948083 0
M  V30 8 C 1.337889 -0.675700 -1.766297 0
M  V30 9 N 2.082890 0.303331 -2.266225 0
M  V30 10 N 1.641723 1.434597 -1.762496 0
M  V30 11 C 0.606866 1.213035 -0.929881 0
M  V30 12 C -0.219096 2.115066 -0.134499 0
M  V30 13 C -0.669018 3.274374 -0.782906 0
M  V30 14 C -1.459364 4.163355 -0.063232 0
M  V30 15 N -1.821048 3.969117 1.239696 0
M  V30 16 C -1.369694 2.844848 1.827433 0
M  V30 17 C -0.581724 1.913748 1.182481 0
M  V30 18 C 0.372886 -0.146568 -0.900584 0
M  V30 19 C -0.512788 -1.160599 -0.288226 0
M  V30 20 C 1.212984 -3.469967 2.120044 0
M  V30 21 C 1.298570 -3.832812 3.459760 0
M  V30 22 N 0.538702 -3.215558 4.389779 0
M  V30 23 H -1.070692 -1.091343 2.337068 0
M  V30 24 H 2.218397 -3.049192 -0.227089 0
M  V30 25 H 0.766438 -3.897675 -0.809747 0
M  V30 26 H 0.506080 -2.483949 -2.620550 0
M  V30 27 H 2.279795 -2.477107 -2.457313 0
M  V30 28 H 2.874821 0.179485 -2.939012 0
M  V30 29 H -0.442070 3.526335 -1.811175 0
M  V30 30 H -1.836925 5.084852 -0.524119 0
M  V30 31 H -1.582482 2.561531 2.867775 0
M  V30 32 H -0.193706 1.011420 1.583967 0
M  V30 33 H -1.015601 -1.682250 -1.155070 0
M  V30 34 H -1.306038 -0.789736 0.337125 0
M  V30 35 H 1.874090 -4.048675 1.515053 0
M  V30 36 H 1.953376 -4.606485 3.848837 0
M  V30 37 H 0.576016 -3.460867 5.402854 0
M  V30 END ATOM
M  V30 BEGIN BOND
M  V30 1 2 1 2
M  V30 2 1 2 3
M  V30 3 2 3 4
M  V30 4 1 4 5
M  V30 5 1 5 6
M  V30 6 1 6 7
M  V30 7 1 7 8
M  V30 8 1 8 9
M  V30 9 1 9 10
M  V30 10 2 10 11
M  V30 11 1 11 12
M  V30 12 2 12 13
M  V30 13 1 13 14
M  V30 14 2 14 15
M  V30 15 1 15 16
M  V30 16 2 16 17
M  V30 17 1 11 18
M  V30 18 1 18 19
M  V30 19 1 4 20
M  V30 20 2 20 21
M  V30 21 1 21 22
M  V30 22 1 22 2
M  V30 23 1 19 5
M  V30 24 2 18 8
M  V30 25 1 17 12
M  V30 26 1 3 23
M  V30 27 1 6 24
M  V30 28 1 6 25
M  V30 29 1 7 26
M  V30 30 1 7 27
M  V30 31 1 9 28
M  V30 32 1 13 29
M  V30 33 1 14 30
M  V30 34 1 16 31
M  V30 35 1 17 32
M  V30 36 1 19 33
M  V30 37 1 19 34
M  V30 38 1 20 35
M  V30 39 1 21 36
M  V30 40 1 22 37
M  V30 END BOND
M  V30 END CTAB
M  END
>  <Dataset>  (76) 
ChEMBL_Kinases

>  <Ligand_Instance>  (76) 
nan

>  <PDB_ID>  (76) 
nan

>  <Standardized_SMILES>  (76) 
O=c1cc(N2CCc3[nH]nc(-c4ccncc4)c3C2)cc[nH]1

>  <Name>  (76) 
nan

>  <Pocket>  (76) 
nan

>  <ATP_Site>  (76) 
nan

>  <Peripheral>  (76) 
nan

>  <Num_H_Atoms_ProtBoundConf>  (76) 
nan

>  <Num_Resolved_Atoms>  (76) 
nan

>  <Num_Not_Resolved_Atoms>  (76) 
nan

$$$$
CHEMBL3604928
     RDKit          3D

  0  0  0  0  0  0  0  0  0  0999 V3000
M  V30 BEGIN CTAB
M  V30 COUNTS 52 55 0 0 0
M  V30 BEGIN ATOM
M  V30 1 C -3.261939 -1.512097 3.156541 0
M  V30 2 C -2.203713 -2.511866 2.847611 0
M  V30 3 C -0.905579 -1.956785 2.774011 0
M  V30 4 C 0.016718 -2.931671 2.485538 0
M  V30 5 N 1.450813 -2.863723 2.269002 0
M  V30 6 C 1.522663 -1.711795 1.389857 0
M  V30 7 C 1.817181 -0.386842 1.617856 0
M  V30 8 C 1.796395 0.503069 0.570654 0
M  V30 9 N 2.005794 1.874399 0.898243 0
M  V30 10 C 2.835736 3.053252 0.888715 0
M  V30 11 C 2.060658 4.124838 0.123912 0
M  V30 12 N 0.955500 4.608310 0.929809 0
M  V30 13 C -0.140545 4.981194 0.061785 0
M  V30 14 C 0.548980 3.627123 1.916343 0
M  V30 15 C 0.736333 2.208844 1.524760 0
M  V30 16 N 1.495247 0.107642 -0.679677 0
M  V30 17 C 1.194841 -1.199995 -0.941757 0
M  V30 18 O 0.855981 -1.732576 -2.207659 0
M  V30 19 C 0.414898 -3.079657 -2.153879 0
M  V30 20 C -0.944103 -2.841896 -1.854575 0
M  V30 21 C -1.884800 -3.876878 -1.675360 0
M  V30 22 C -1.419432 -5.179843 -1.809308 0
M  V30 23 N -2.270092 -6.306237 -1.646245 0 CHG=1 VAL=4
M  V30 24 O -1.900780 -7.477895 -1.776041 0
M  V30 25 O -3.605325 -6.084787 -1.326713 0 CHG=-1 VAL=1
M  V30 26 C -0.095326 -5.398608 -2.104850 0
M  V30 27 C 0.801370 -4.389458 -2.274378 0
M  V30 28 N 1.238358 -1.982233 0.117048 0
M  V30 29 N -0.700775 -4.065482 2.386023 0
M  V30 30 N -1.998506 -3.824540 2.594901 0
M  V30 31 H -3.326972 -0.731987 2.340607 0
M  V30 32 H -2.985746 -0.938174 4.074685 0
M  V30 33 H -4.249613 -1.974426 3.225580 0
M  V30 34 H -0.499228 -0.949637 2.909964 0
M  V30 35 H 2.125673 -3.539337 2.708835 0
M  V30 36 H 2.043292 -0.203598 2.670098 0
M  V30 37 H 2.912508 3.464256 1.929307 0
M  V30 38 H 3.813535 2.924046 0.420945 0
M  V30 39 H 2.774806 4.938192 -0.089356 0
M  V30 40 H 1.651038 3.729309 -0.832903 0
M  V30 41 H -1.015664 5.332347 0.623564 0
M  V30 42 H 0.225857 5.832101 -0.549594 0
M  V30 43 H -0.388124 4.158387 -0.648690 0
M  V30 44 H -0.565633 3.786321 2.028551 0
M  V30 45 H 0.994055 3.855358 2.892800 0
M  V30 46 H -0.143729 1.810806 0.939400 0
M  V30 47 H 0.704640 1.614741 2.491748 0
M  V30 48 H -1.530821 -1.919701 -1.698143 0
M  V30 49 H -2.943506 -3.808165 -1.438279 0
M  V30 50 H 0.380496 -6.373717 -2.234469 0
M  V30 51 H 1.858296 -4.324238 -2.500281 0
M  V30 52 H -2.887371 -4.353234 2.617151 0
M  V30 END ATOM
M  V30 BEGIN BOND
M  V30 1 1 1 2
M  V30 2 2 2 3
M  V30 3 1 3 4
M  V30 4 1 4 5
M  V30 5 1 5 6
M  V30 6 2 6 7
M  V30 7 1 7 8
M  V30 8 1 8 9
M  V30 9 1 9 10
M  V30 10 1 10 11
M  V30 11 1 11 12
M  V30 12 1 12 13
M  V30 13 1 12 14
M  V30 14 1 14 15
M  V30 15 2 8 16
M  V30 16 1 16 17
M  V30 17 1 17 18
M  V30 18 1 18 19
M  V30 19 2 19 20
M  V30 20 1 20 21
M  V30 21 2 21 22
M  V30 22 1 22 23
M  V30 23 2 23 24
M  V30 24 1 23 25
M  V30 25 1 22 26
M  V30 26 2 26 27
M  V30 27 2 17 28
M  V30 28 2 4 29
M  V30 29 1 29 30
M  V30 30 1 30 2
M  V30 31 1 28 6
M  V30 32 1 15 9
M  V30 33 1 27 19
M  V30 34 1 1 31
M  V30 35 1 1 32
M  V30 36 1 1 33
M  V30 37 1 3 34
M  V30 38 1 5 35
M  V30 39 1 7 36
M  V30 40 1 10 37
M  V30 41 1 10 38
M  V30 42 1 11 39
M  V30 43 1 11 40
M  V30 44 1 13 41
M  V30 45 1 13 42
M  V30 46 1 13 43
M  V30 47 1 14 44
M  V30 48 1 14 45
M  V30 49 1 15 46
M  V30 50 1 15 47
M  V30 51 1 20 48
M  V30 52 1 21 49
M  V30 53 1 26 50
M  V30 54 1 27 51
M  V30 55 1 30 52
M  V30 END BOND
M  V30 END CTAB
M  END
>  <Dataset>  (77) 
ChEMBL_Kinases

>  <Ligand_Instance>  (77) 
nan

>  <PDB_ID>  (77) 
nan

>  <Standardized_SMILES>  (77) 
Cc1cc(Nc2cc(N3CCN(C)CC3)nc(Oc3ccc([N+](=O)[O-])cc3)n2)n[nH]1

>  <Name>  (77) 
nan

>  <Pocket>  (77) 
nan

>  <ATP_Site>  (77) 
nan

>  <Peripheral>  (77) 
nan

>  <Num_H_Atoms_ProtBoundConf>  (77) 
nan

>  <Num_Resolved_Atoms>  (77) 
nan

>  <Num_Not_Resolved_Atoms>  (77) 
nan

$$$$
CHEMBL3604849
     RDKit          3D

  0  0  0  0  0  0  0  0  0  0999 V3000
M  V30 BEGIN CTAB
M  V30 COUNTS 50 54 0 0 0
M  V30 BEGIN ATOM
M  V30 1 O -0.328733 -4.383677 2.732181 0
M  V30 2 C -0.466606 -3.253286 2.161671 0
M  V30 3 C 0.627160 -2.455695 1.906651 0
M  V30 4 C 0.547181 -1.222585 1.292823 0
M  V30 5 N 1.669691 -0.392827 1.022358 0
M  V30 6 C 3.014804 -0.776392 1.322173 0
M  V30 7 C 4.030036 -0.265422 0.298057 0
M  V30 8 C 3.907277 1.213136 0.225925 0
M  V30 9 N 4.761597 2.267824 0.112867 0
M  V30 10 N 4.028018 3.365331 0.101014 0
M  V30 11 C 2.710030 3.058655 0.203553 0
M  V30 12 C 1.741978 4.175469 0.205733 0
M  V30 13 C 2.041463 5.283461 1.008874 0
M  V30 14 C 1.121256 6.317619 0.994738 0
M  V30 15 N 0.007235 6.242451 0.244143 0
M  V30 16 C -0.264258 5.170240 -0.521817 0
M  V30 17 C 0.602644 4.083841 -0.570471 0
M  V30 18 C 2.610084 1.666291 0.285875 0
M  V30 19 C 1.365686 0.906686 0.408426 0
M  V30 20 C -0.746445 -0.877132 0.963510 0
M  V30 21 C -1.850171 -1.655668 1.208047 0
M  V30 22 N -1.690304 -2.846590 1.810973 0
M  V30 23 C -2.872563 -3.642502 2.053793 0
M  V30 24 C -3.182165 -4.558376 0.916885 0
M  V30 25 C -4.006596 -4.117585 -0.111078 0
M  V30 26 C -4.329362 -4.915240 -1.187202 0
M  V30 27 C -3.815938 -6.206385 -1.252882 0
M  V30 28 C -2.995935 -6.661396 -0.241963 0
M  V30 29 F -2.522513 -7.925316 -0.353366 0
M  V30 30 C -2.685521 -5.832154 0.836092 0
M  V30 31 H 1.577445 -2.845759 2.216409 0
M  V30 32 H 3.102539 -1.874344 1.315413 0
M  V30 33 H 3.306186 -0.351014 2.310343 0
M  V30 34 H 3.836616 -0.706492 -0.700490 0
M  V30 35 H 5.031800 -0.570597 0.707148 0
M  V30 36 H 5.811603 2.168336 0.049720 0
M  V30 37 H 2.936402 5.329837 1.604447 0
M  V30 38 H 1.299160 7.214820 1.604010 0
M  V30 39 H -1.168072 5.111936 -1.129567 0
M  V30 40 H 0.427782 3.194895 -1.173431 0
M  V30 41 H 0.961501 0.706299 -0.604988 0
M  V30 42 H 0.585965 1.431274 0.995557 0
M  V30 43 H -0.922755 0.087909 0.469146 0
M  V30 44 H -2.817745 -1.315934 0.921655 0
M  V30 45 H -2.815025 -4.278187 2.953406 0
M  V30 46 H -3.750003 -2.968541 2.159854 0
M  V30 47 H -4.428274 -3.114209 -0.097163 0
M  V30 48 H -4.971466 -4.588130 -1.999544 0
M  V30 49 H -4.087616 -6.817740 -2.116891 0
M  V30 50 H -2.043552 -6.218573 1.606646 0
M  V30 END ATOM
M  V30 BEGIN BOND
M  V30 1 2 1 2
M  V30 2 1 2 3
M  V30 3 2 3 4
M  V30 4 1 4 5
M  V30 5 1 5 6
M  V30 6 1 6 7
M  V30 7 1 7 8
M  V30 8 1 8 9
M  V30 9 1 9 10
M  V30 10 2 10 11
M  V30 11 1 11 12
M  V30 12 2 12 13
M  V30 13 1 13 14
M  V30 14 2 14 15
M  V30 15 1 15 16
M  V30 16 2 16 17
M  V30 17 1 11 18
M  V30 18 1 18 19
M  V30 19 1 4 20
M  V30 20 2 20 21
M  V30 21 1 21 22
M  V30 22 1 22 23
M  V30 23 1 23 24
M  V30 24 2 24 25
M  V30 25 1 25 26
M  V30 26 2 26 27
M  V30 27 1 27 28
M  V30 28 1 28 29
M  V30 29 2 28 30
M  V30 30 1 22 2
M  V30 31 1 30 24
M  V30 32 1 19 5
M  V30 33 2 18 8
M  V30 34 1 17 12
M  V30 35 1 3 31
M  V30 36 1 6 32
M  V30 37 1 6 33
M  V30 38 1 7 34
M  V30 39 1 7 35
M  V30 40 1 9 36
M  V30 41 1 13 37
M  V30 42 1 14 38
M  V30 43 1 16 39
M  V30 44 1 17 40
M  V30 45 1 19 41
M  V30 46 1 19 42
M  V30 47 1 20 43
M  V30 48 1 21 44
M  V30 49 1 23 45
M  V30 50 1 23 46
M  V30 51 1 25 47
M  V30 52 1 26 48
M  V30 53 1 27 49
M  V30 54 1 30 50
M  V30 END BOND
M  V30 END CTAB
M  END
>  <Dataset>  (78) 
ChEMBL_Kinases

>  <Ligand_Instance>  (78) 
nan

>  <PDB_ID>  (78) 
nan

>  <Standardized_SMILES>  (78) 
O=c1cc(N2CCc3[nH]nc(-c4ccncc4)c3C2)ccn1Cc1cccc(F)c1

>  <Name>  (78) 
nan

>  <Pocket>  (78) 
nan

>  <ATP_Site>  (78) 
nan

>  <Peripheral>  (78) 
nan

>  <Num_H_Atoms_ProtBoundConf>  (78) 
nan

>  <Num_Resolved_Atoms>  (78) 
nan

>  <Num_Not_Resolved_Atoms>  (78) 
nan

$$$$
CHEMBL3613600
     RDKit          3D

  0  0  0  0  0  0  0  0  0  0999 V3000
M  V30 BEGIN CTAB
M  V30 COUNTS 63 66 0 0 0
M  V30 BEGIN ATOM
M  V30 1 C 7.008734 -0.210262 3.995034 0
M  V30 2 O 5.829214 0.241838 3.343353 0
M  V30 3 C 5.724243 1.600513 3.069531 0
M  V30 4 O 6.649699 2.390811 3.393638 0
M  V30 5 C 4.545819 2.144950 2.402962 0
M  V30 6 C 4.506657 3.499783 2.163072 0
M  V30 7 C 3.388898 3.984022 1.536585 0
M  V30 8 C 2.377540 3.122839 1.181395 0
M  V30 9 C 2.388969 1.769333 1.407651 0
M  V30 10 N 1.383201 0.831217 1.069613 0
M  V30 11 C 0.132078 1.019786 0.432419 0
M  V30 12 O -0.166374 2.195868 0.099005 0
M  V30 13 C -0.795242 -0.105603 0.161908 0
M  V30 14 C -1.224332 -0.834746 1.405544 0
M  V30 15 N -1.919579 -0.067376 2.383288 0
M  V30 16 C -1.141973 0.921366 3.085001 0
M  V30 17 C -2.462984 -0.982466 3.370046 0
M  V30 18 C -0.201958 -1.026579 -0.863584 0
M  V30 19 C -0.992944 -1.184010 -2.122020 0
M  V30 20 N -2.406101 -1.428637 -1.931678 0
M  V30 21 C -3.377448 -2.255630 -2.553201 0
M  V30 22 N -4.326390 -1.508659 -3.172512 0
M  V30 23 C -5.343880 -2.093525 -3.844261 0
M  V30 24 N -5.454096 -3.431164 -3.923926 0
M  V30 25 C -4.538156 -4.212700 -3.326061 0
M  V30 26 N -4.300668 -5.538769 -3.173747 0
M  V30 27 C -3.194274 -5.761750 -2.444944 0
M  V30 28 C -2.638809 -4.530993 -2.074718 0
M  V30 29 C -1.421462 -4.287242 -1.261209 0
M  V30 30 C -3.500621 -3.622688 -2.640868 0
M  V30 31 C -2.993339 -0.637773 -0.846587 0
M  V30 32 C -2.059530 0.484281 -0.445240 0
M  V30 33 C 3.526324 1.320282 2.037865 0
M  V30 34 H 7.789267 -0.558848 3.313004 0
M  V30 35 H 7.449944 0.580537 4.650962 0
M  V30 36 H 6.746656 -1.091359 4.652050 0
M  V30 37 H 5.308074 4.161211 2.448294 0
M  V30 38 H 3.318652 5.036665 1.330059 0
M  V30 39 H 1.529798 3.564774 0.694399 0
M  V30 40 H 1.551977 -0.174706 1.311741 0
M  V30 41 H -1.712886 -1.804811 1.176878 0
M  V30 42 H -0.253339 -1.150011 1.903583 0
M  V30 43 H -0.156277 0.448352 3.335551 0
M  V30 44 H -1.080978 1.902671 2.626564 0
M  V30 45 H -1.588018 1.122033 4.113246 0
M  V30 46 H -2.731082 -1.957639 2.940717 0
M  V30 47 H -1.693304 -1.174948 4.156657 0
M  V30 48 H -3.407277 -0.571721 3.816107 0
M  V30 49 H 0.778680 -0.559894 -1.192980 0
M  V30 50 H 0.126852 -1.995963 -0.415754 0
M  V30 51 H -0.525764 -1.915855 -2.809941 0
M  V30 52 H -0.958757 -0.208365 -2.700141 0
M  V30 53 H -6.134580 -1.564265 -4.361049 0
M  V30 54 H -4.927179 -6.285219 -3.589091 0
M  V30 55 H -2.791120 -6.728321 -2.181835 0
M  V30 56 H -1.214893 -5.263622 -0.727536 0
M  V30 57 H -1.636751 -3.585188 -0.424863 0
M  V30 58 H -0.516592 -4.084981 -1.827318 0
M  V30 59 H -3.342312 -1.228760 -0.005728 0
M  V30 60 H -3.879273 -0.125027 -1.299193 0
M  V30 61 H -2.609811 1.145759 0.227094 0
M  V30 62 H -1.741455 1.077331 -1.324716 0
M  V30 63 H 3.645067 0.251285 2.270175 0
M  V30 END ATOM
M  V30 BEGIN BOND
M  V30 1 1 1 2
M  V30 2 1 2 3
M  V30 3 2 3 4
M  V30 4 1 3 5
M  V30 5 2 5 6
M  V30 6 1 6 7
M  V30 7 2 7 8
M  V30 8 1 8 9
M  V30 9 1 9 10
M  V30 10 1 10 11
M  V30 11 2 11 12
M  V30 12 1 11 13
M  V30 13 1 13 14
M  V30 14 1 14 15
M  V30 15 1 15 16
M  V30 16 1 15 17
M  V30 17 1 13 18
M  V30 18 1 18 19
M  V30 19 1 19 20
M  V30 20 1 20 21
M  V30 21 2 21 22
M  V30 22 1 22 23
M  V30 23 2 23 24
M  V30 24 1 24 25
M  V30 25 1 25 26
M  V30 26 1 26 27
M  V30 27 2 27 28
M  V30 28 1 28 29
M  V30 29 1 28 30
M  V30 30 1 20 31
M  V30 31 1 31 32
M  V30 32 2 9 33
M  V30 33 1 33 5
M  V30 34 1 32 13
M  V30 35 1 30 21
M  V30 36 2 30 25
M  V30 37 1 1 34
M  V30 38 1 1 35
M  V30 39 1 1 36
M  V30 40 1 6 37
M  V30 41 1 7 38
M  V30 42 1 8 39
M  V30 43 1 10 40
M  V30 44 1 14 41
M  V30 45 1 14 42
M  V30 46 1 16 43
M  V30 47 1 16 44
M  V30 48 1 16 45
M  V30 49 1 17 46
M  V30 50 1 17 47
M  V30 51 1 17 48
M  V30 52 1 18 49
M  V30 53 1 18 50
M  V30 54 1 19 51
M  V30 55 1 19 52
M  V30 56 1 23 53
M  V30 57 1 26 54
M  V30 58 1 27 55
M  V30 59 1 29 56
M  V30 60 1 29 57
M  V30 61 1 29 58
M  V30 62 1 31 59
M  V30 63 1 31 60
M  V30 64 1 32 61
M  V30 65 1 32 62
M  V30 66 1 33 63
M  V30 END BOND
M  V30 END CTAB
M  END
>  <Dataset>  (79) 
ChEMBL_Kinases

>  <Ligand_Instance>  (79) 
nan

>  <PDB_ID>  (79) 
nan

>  <Standardized_SMILES>  (79) 
COC(=O)c1cccc(NC(=O)C2(CN(C)C)CCN(c3ncnc4[nH]cc(C)c34)CC2)c1

>  <Name>  (79) 
nan

>  <Pocket>  (79) 
nan

>  <ATP_Site>  (79) 
nan

>  <Peripheral>  (79) 
nan

>  <Num_H_Atoms_ProtBoundConf>  (79) 
nan

>  <Num_Resolved_Atoms>  (79) 
nan

>  <Num_Not_Resolved_Atoms>  (79) 
nan

$$$$
CHEMBL3613599
     RDKit          3D

  0  0  0  0  0  0  0  0  0  0999 V3000
M  V30 BEGIN CTAB
M  V30 COUNTS 68 71 0 0 0
M  V30 BEGIN ATOM
M  V30 1 C 4.485508 1.141347 1.625891 0
M  V30 2 C 5.295204 1.750518 0.557986 0
M  V30 3 C 6.599769 2.212970 0.715058 0
M  V30 4 N 6.979135 2.669252 -0.475987 0
M  V30 5 C 6.063676 2.568410 -1.446838 0
M  V30 6 N 5.882682 2.827252 -2.741972 0
M  V30 7 C 4.721417 2.529972 -3.348962 0
M  V30 8 N 3.700656 1.966112 -2.688142 0
M  V30 9 C 3.792996 1.665326 -1.358081 0
M  V30 10 N 2.587606 1.119784 -0.847354 0
M  V30 11 C 1.641350 1.909069 -0.037045 0
M  V30 12 C 0.212942 1.590453 -0.488628 0
M  V30 13 C -0.132815 0.301195 0.279100 0
M  V30 14 C -0.626536 0.774212 1.624416 0
M  V30 15 N -1.035819 -0.232236 2.532766 0
M  V30 16 C -0.058561 -1.085328 3.102466 0
M  V30 17 C -1.864403 0.310970 3.590462 0
M  V30 18 C -1.290535 -0.394736 -0.311674 0
M  V30 19 O -1.281647 -1.608083 -0.743391 0
M  V30 20 N -2.578348 0.178843 -0.487525 0
M  V30 21 C -3.389208 -0.846384 -1.083792 0
M  V30 22 C -3.563887 -1.096735 -2.444551 0
M  V30 23 C -4.380806 -2.149144 -2.774564 0
M  V30 24 C -4.986891 -2.906264 -1.800387 0
M  V30 25 C -4.821629 -2.668957 -0.434408 0
M  V30 26 O -5.512083 -3.541930 0.380814 0
M  V30 27 C -4.989831 -4.581257 1.108036 0
M  V30 28 O -5.268216 -3.569482 0.359108 0
M  V30 29 N -4.064111 -5.470931 1.668295 0
M  V30 30 C -2.617154 -5.554190 1.537307 0
M  V30 31 C -4.789145 -6.419261 2.499770 0
M  V30 32 C -4.000092 -1.609669 -0.113586 0
M  V30 33 C 1.124685 -0.480527 0.281897 0
M  V30 34 C 2.008585 -0.187881 -0.948788 0
M  V30 35 C 4.999815 1.983035 -0.769472 0
M  V30 36 H 3.983132 0.192107 1.263781 0
M  V30 37 H 3.840921 1.807299 2.191707 0
M  V30 38 H 5.202144 0.732650 2.398594 0
M  V30 39 H 7.169203 2.189828 1.632809 0
M  V30 40 H 7.939541 3.086092 -0.658699 0
M  V30 41 H 4.613374 2.760640 -4.405587 0
M  V30 42 H 1.807571 2.966423 -0.312963 0
M  V30 43 H 1.763789 1.780283 1.034835 0
M  V30 44 H 0.213488 1.429546 -1.571192 0
M  V30 45 H -0.425687 2.398300 -0.144486 0
M  V30 46 H 0.068293 1.486702 2.111049 0
M  V30 47 H -1.544672 1.409359 1.426067 0
M  V30 48 H 0.860239 -0.557819 3.444861 0
M  V30 49 H -0.514299 -1.677520 3.932581 0
M  V30 50 H 0.254552 -1.844139 2.362148 0
M  V30 51 H -1.330889 1.073066 4.200184 0
M  V30 52 H -2.064217 -0.549470 4.283874 0
M  V30 53 H -2.830977 0.673833 3.175396 0
M  V30 54 H -2.732898 1.165879 -0.189878 0
M  V30 55 H -3.028579 -0.424348 -3.095890 0
M  V30 56 H -4.515791 -2.336287 -3.847509 0
M  V30 57 H -5.611574 -3.715377 -2.179348 0
M  V30 58 H -2.235633 -6.559576 1.749367 0
M  V30 59 H -2.288738 -5.214738 0.518305 0
M  V30 60 H -2.179955 -4.847115 2.266160 0
M  V30 61 H -4.079276 -7.022627 3.113053 0
M  V30 62 H -5.413788 -5.858257 3.197345 0
M  V30 63 H -5.350458 -7.076645 1.811029 0
M  V30 64 H -3.909568 -1.479523 0.958719 0
M  V30 65 H 1.709449 -0.466384 1.194731 0
M  V30 66 H 0.862147 -1.569398 0.087364 0
M  V30 67 H 2.728084 -1.017776 -1.072998 0
M  V30 68 H 1.379542 -0.211597 -1.858865 0
M  V30 END ATOM
M  V30 BEGIN BOND
M  V30 1 1 1 2
M  V30 2 2 2 3
M  V30 3 1 3 4
M  V30 4 1 4 5
M  V30 5 2 5 6
M  V30 6 1 6 7
M  V30 7 2 7 8
M  V30 8 1 8 9
M  V30 9 1 9 10
M  V30 10 1 10 11
M  V30 11 1 11 12
M  V30 12 1 12 13
M  V30 13 1 13 14
M  V30 14 1 14 15
M  V30 15 1 15 16
M  V30 16 1 15 17
M  V30 17 1 13 18
M  V30 18 2 18 19
M  V30 19 1 18 20
M  V30 20 1 20 21
M  V30 21 2 21 22
M  V30 22 1 22 23
M  V30 23 2 23 24
M  V30 24 1 24 25
M  V30 25 1 25 26
M  V30 26 1 26 27
M  V30 27 2 27 28
M  V30 28 1 27 29
M  V30 29 1 29 30
M  V30 30 1 29 31
M  V30 31 2 25 32
M  V30 32 1 13 33
M  V30 33 1 33 34
M  V30 34 2 9 35
M  V30 35 1 35 2
M  V30 36 1 35 5
M  V30 37 1 34 10
M  V30 38 1 32 21
M  V30 39 1 1 36
M  V30 40 1 1 37
M  V30 41 1 1 38
M  V30 42 1 3 39
M  V30 43 1 4 40
M  V30 44 1 7 41
M  V30 45 1 11 42
M  V30 46 1 11 43
M  V30 47 1 12 44
M  V30 48 1 12 45
M  V30 49 1 14 46
M  V30 50 1 14 47
M  V30 51 1 16 48
M  V30 52 1 16 49
M  V30 53 1 16 50
M  V30 54 1 17 51
M  V30 55 1 17 52
M  V30 56 1 17 53
M  V30 57 1 20 54
M  V30 58 1 22 55
M  V30 59 1 23 56
M  V30 60 1 24 57
M  V30 61 1 30 58
M  V30 62 1 30 59
M  V30 63 1 30 60
M  V30 64 1 31 61
M  V30 65 1 31 62
M  V30 66 1 31 63
M  V30 67 1 32 64
M  V30 68 1 33 65
M  V30 69 1 33 66
M  V30 70 1 34 67
M  V30 71 1 34 68
M  V30 END BOND
M  V30 END CTAB
M  END
>  <Dataset>  (80) 
ChEMBL_Kinases

>  <Ligand_Instance>  (80) 
nan

>  <PDB_ID>  (80) 
nan

>  <Standardized_SMILES>  (80) 
Cc1c[nH]c2ncnc(N3CCC(CN(C)C)(C(=O)Nc4cccc(OC(=O)N(C)C)c4)CC3)c12

>  <Name>  (80) 
nan

>  <Pocket>  (80) 
nan

>  <ATP_Site>  (80) 
nan

>  <Peripheral>  (80) 
nan

>  <Num_H_Atoms_ProtBoundConf>  (80) 
nan

>  <Num_Resolved_Atoms>  (80) 
nan

>  <Num_Not_Resolved_Atoms>  (80) 
nan

$$$$
CHEMBL3613594
     RDKit          3D

  0  0  0  0  0  0  0  0  0  0999 V3000
M  V30 BEGIN CTAB
M  V30 COUNTS 33 35 0 0 0
M  V30 BEGIN ATOM
M  V30 1 C -1.439091 -2.427592 2.570977 0
M  V30 2 C -0.872699 -2.917826 1.265842 0
M  V30 3 C -1.800506 -2.847251 0.093196 0
M  V30 4 C 0.509984 -2.494222 1.001343 0
M  V30 5 N 1.623717 -3.280684 1.111476 0
M  V30 6 N 2.678294 -2.576202 0.766028 0
M  V30 7 C 4.025674 -3.109309 0.769252 0
M  V30 8 C 2.255436 -1.350734 0.437075 0
M  V30 9 C 0.863329 -1.236023 0.569894 0
M  V30 10 C 0.153859 0.003231 0.310960 0
M  V30 11 N 0.742640 1.093139 -0.219657 0
M  V30 12 C -0.142073 2.084790 -0.364630 0
M  V30 13 C 0.054118 3.360136 -0.868598 0
M  V30 14 C -1.085993 4.171991 -0.888438 0
M  V30 15 Br -0.887084 5.944566 -1.571308 0
M  V30 16 C -2.328412 3.724827 -0.432497 0
M  V30 17 N -2.430037 2.450786 0.048511 0
M  V30 18 C -1.363416 1.634052 0.087584 0
M  V30 19 N -1.107805 0.374513 0.478476 0
M  V30 20 H -2.538736 -2.345913 2.526569 0
M  V30 21 H -0.932488 -1.451673 2.828661 0
M  V30 22 H -1.200509 -3.077957 3.439182 0
M  V30 23 H -0.783632 -4.051059 1.443126 0
M  V30 24 H -1.396267 -2.147807 -0.691679 0
M  V30 25 H -2.746758 -2.366752 0.463985 0
M  V30 26 H -2.049085 -3.796773 -0.385313 0
M  V30 27 H 4.645706 -2.561639 0.012570 0
M  V30 28 H 4.541016 -2.929159 1.758076 0
M  V30 29 H 4.001015 -4.186110 0.585058 0
M  V30 30 H 2.990620 -0.607618 0.117664 0
M  V30 31 H 1.009060 3.712557 -1.222167 0
M  V30 32 H -3.175624 4.396327 -0.471701 0
M  V30 33 H -1.873271 -0.170685 0.865594 0
M  V30 END ATOM
M  V30 BEGIN BOND
M  V30 1 1 1 2
M  V30 2 1 2 3
M  V30 3 1 2 4
M  V30 4 2 4 5
M  V30 5 1 5 6
M  V30 6 1 6 7
M  V30 7 1 6 8
M  V30 8 2 8 9
M  V30 9 1 9 10
M  V30 10 2 10 11
M  V30 11 1 11 12
M  V30 12 2 12 13
M  V30 13 1 13 14
M  V30 14 1 14 15
M  V30 15 2 14 16
M  V30 16 1 16 17
M  V30 17 2 17 18
M  V30 18 1 18 19
M  V30 19 1 9 4
M  V30 20 1 19 10
M  V30 21 1 18 12
M  V30 22 1 1 20
M  V30 23 1 1 21
M  V30 24 1 1 22
M  V30 25 1 2 23
M  V30 26 1 3 24
M  V30 27 1 3 25
M  V30 28 1 3 26
M  V30 29 1 7 27
M  V30 30 1 7 28
M  V30 31 1 7 29
M  V30 32 1 8 30
M  V30 33 1 13 31
M  V30 34 1 16 32
M  V30 35 1 19 33
M  V30 END BOND
M  V30 END CTAB
M  END
>  <Dataset>  (81) 
ChEMBL_Kinases

>  <Ligand_Instance>  (81) 
nan

>  <PDB_ID>  (81) 
nan

>  <Standardized_SMILES>  (81) 
CC(C)c1nn(C)cc1-c1nc2cc(Br)cnc2[nH]1

>  <Name>  (81) 
nan

>  <Pocket>  (81) 
nan

>  <ATP_Site>  (81) 
nan

>  <Peripheral>  (81) 
nan

>  <Num_H_Atoms_ProtBoundConf>  (81) 
nan

>  <Num_Resolved_Atoms>  (81) 
nan

>  <Num_Not_Resolved_Atoms>  (81) 
nan

$$$$
CHEMBL361348
     RDKit          3D

  0  0  0  0  0  0  0  0  0  0999 V3000
M  V30 BEGIN CTAB
M  V30 COUNTS 66 69 0 0 0
M  V30 BEGIN ATOM
M  V30 1 C 2.058411 -0.976714 4.493858 0
M  V30 2 C 3.144267 -1.036847 3.417991 0
M  V30 3 C 4.406689 -0.422817 3.968147 0
M  V30 4 C 2.753489 -0.190108 2.240777 0
M  V30 5 C 3.050813 1.155399 2.068552 0
M  V30 6 N 2.495774 1.490381 0.865842 0
M  V30 7 N 1.907669 0.397541 0.366094 0
M  V30 8 C 1.244876 0.302273 -0.801895 0
M  V30 9 N 1.046870 1.349380 -1.745380 0
M  V30 10 C -0.018706 2.273999 -1.596954 0
M  V30 11 C -0.832546 2.226573 -0.469718 0
M  V30 12 C -1.864177 3.131548 -0.328474 0
M  V30 13 C -2.082605 4.085716 -1.316368 0
M  V30 14 S -3.403980 5.215363 -1.076961 0
M  V30 15 O -3.090804 6.418488 -1.943669 0
M  V30 16 O -3.568961 5.616016 0.347396 0
M  V30 17 N -4.885969 4.538708 -1.693297 0
M  V30 18 C -5.176411 3.314425 -0.941422 0
M  V30 19 C -5.964892 5.483777 -1.647293 0
M  V30 20 C -1.273971 4.113802 -2.411446 0
M  V30 21 C -0.248410 3.224892 -2.566109 0
M  V30 22 C 0.675124 -0.889777 -1.212106 0
M  V30 23 C 0.808874 -2.001366 -0.371771 0
M  V30 24 N 0.263616 -3.295651 -0.699579 0
M  V30 25 C 0.323378 -4.499283 0.057553 0 CFG=1
M  V30 26 C -0.352248 -5.672897 -0.644605 0
M  V30 27 C -0.678638 -6.647040 0.464936 0
M  V30 28 C 0.447085 -6.905922 1.401069 0 CFG=2
M  V30 29 N -0.014618 -6.642746 2.762313 0
M  V30 30 C 1.717466 -6.221234 1.159390 0
M  V30 31 C 1.718029 -4.982401 0.345513 0
M  V30 32 N 1.481906 -1.845021 0.783478 0
M  V30 33 C 2.030173 -0.675765 1.166760 0
M  V30 34 H 2.251109 -1.811651 5.184942 0
M  V30 35 H 2.067425 -0.017455 5.041560 0
M  V30 36 H 1.090209 -1.146196 3.976161 0
M  V30 37 H 3.254915 -2.072464 3.083875 0
M  V30 38 H 4.818365 -1.048261 4.774828 0
M  V30 39 H 5.139194 -0.273083 3.138216 0
M  V30 40 H 4.105899 0.584382 4.382090 0
M  V30 41 H 3.606771 1.801139 2.747547 0
M  V30 42 H 1.695528 1.430198 -2.550460 0
M  V30 43 H -0.636852 1.472478 0.279513 0
M  V30 44 H -2.460321 3.037191 0.577708 0
M  V30 45 H -4.664470 2.485320 -1.438453 0
M  V30 46 H -6.265940 3.166803 -0.984345 0
M  V30 47 H -4.826729 3.471425 0.104925 0
M  V30 48 H -6.662885 5.313354 -2.508372 0
M  V30 49 H -6.577600 5.388348 -0.704066 0
M  V30 50 H -5.613509 6.535304 -1.719360 0
M  V30 51 H -1.435112 4.862439 -3.199440 0
M  V30 52 H 0.400697 3.253538 -3.455268 0
M  V30 53 H 0.125296 -1.079911 -2.121785 0
M  V30 54 H -0.246779 -3.342750 -1.630705 0
M  V30 55 H -0.178688 -4.358003 1.060345 0
M  V30 56 H 0.385433 -6.183996 -1.305220 0
M  V30 57 H -1.283092 -5.383629 -1.131068 0
M  V30 58 H -1.069752 -7.563098 -0.023636 0
M  V30 59 H -1.548249 -6.185855 0.991186 0
M  V30 60 H 0.623528 -8.022577 1.409269 0
M  V30 61 H -0.667289 -7.401520 3.074900 0
M  V30 62 H 0.812623 -6.708048 3.416066 0
M  V30 63 H 2.475822 -6.924664 0.712740 0
M  V30 64 H 2.198251 -5.957193 2.149328 0
M  V30 65 H 2.344593 -4.164496 0.795149 0
M  V30 66 H 2.180814 -5.164063 -0.653554 0
M  V30 END ATOM
M  V30 BEGIN BOND
M  V30 1 1 1 2
M  V30 2 1 2 3
M  V30 3 1 2 4
M  V30 4 1 4 5
M  V30 5 2 5 6
M  V30 6 1 6 7
M  V30 7 1 7 8
M  V30 8 1 8 9
M  V30 9 1 9 10
M  V30 10 2 10 11
M  V30 11 1 11 12
M  V30 12 2 12 13
M  V30 13 1 13 14
M  V30 14 2 14 15
M  V30 15 2 14 16
M  V30 16 1 14 17
M  V30 17 1 17 18
M  V30 18 1 17 19
M  V30 19 1 13 20
M  V30 20 2 20 21
M  V30 21 2 8 22
M  V30 22 1 22 23
M  V30 23 1 23 24
M  V30 24 1 24 25
M  V30 25 1 25 26
M  V30 26 1 26 27
M  V30 27 1 27 28
M  V30 28 1 28 29
M  V30 29 1 28 30
M  V30 30 1 30 31
M  V30 31 2 23 32
M  V30 32 1 32 33
M  V30 33 2 33 4
M  V30 34 1 33 7
M  V30 35 1 21 10
M  V30 36 1 31 25
M  V30 37 1 1 34
M  V30 38 1 1 35
M  V30 39 1 1 36
M  V30 40 1 2 37
M  V30 41 1 3 38
M  V30 42 1 3 39
M  V30 43 1 3 40
M  V30 44 1 5 41
M  V30 45 1 9 42
M  V30 46 1 11 43
M  V30 47 1 12 44
M  V30 48 1 18 45
M  V30 49 1 18 46
M  V30 50 1 18 47
M  V30 51 1 19 48
M  V30 52 1 19 49
M  V30 53 1 19 50
M  V30 54 1 20 51
M  V30 55 1 21 52
M  V30 56 1 22 53
M  V30 57 1 24 54
M  V30 58 1 25 55 CFG=1
M  V30 59 1 26 56
M  V30 60 1 26 57
M  V30 61 1 27 58
M  V30 62 1 27 59
M  V30 63 1 28 60 CFG=1
M  V30 64 1 29 61
M  V30 65 1 29 62
M  V30 66 1 30 63
M  V30 67 1 30 64
M  V30 68 1 31 65
M  V30 69 1 31 66
M  V30 END BOND
M  V30 END CTAB
M  END
>  <Dataset>  (82) 
ChEMBL_Kinases

>  <Ligand_Instance>  (82) 
nan

>  <PDB_ID>  (82) 
nan

>  <Standardized_SMILES>  (82) 
CC(C)c1cnn2c(Nc3ccc(S(=O)(=O)N(C)C)cc3)cc(N[C@H]3CC[C@H](N)CC3)nc12

>  <Name>  (82) 
nan

>  <Pocket>  (82) 
nan

>  <ATP_Site>  (82) 
nan

>  <Peripheral>  (82) 
nan

>  <Num_H_Atoms_ProtBoundConf>  (82) 
nan

>  <Num_Resolved_Atoms>  (82) 
nan

>  <Num_Not_Resolved_Atoms>  (82) 
nan

$$$$
CHEMBL3612514
     RDKit          3D

  0  0  0  0  0  0  0  0  0  0999 V3000
M  V30 BEGIN CTAB
M  V30 COUNTS 39 42 0 0 0
M  V30 BEGIN ATOM
M  V30 1 C 0.121357 0.509119 -2.058544 0
M  V30 2 C 1.590650 0.733447 -2.070480 0
M  V30 3 C 2.339544 0.343827 -3.174723 0
M  V30 4 C 3.710829 0.515275 -3.268521 0
M  V30 5 C 4.325221 1.105206 -2.192457 0
M  V30 6 N 5.731934 1.332710 -2.176174 0 CHG=1 VAL=4
M  V30 7 O 6.498076 1.025218 -3.107322 0
M  V30 8 O 6.284152 1.930729 -1.061326 0 CHG=-1 VAL=1
M  V30 9 C 3.614528 1.494578 -1.101773 0
M  V30 10 C 2.229674 1.324004 -1.001443 0
M  V30 11 S 1.336062 1.833893 0.414316 0
M  V30 12 O 0.347826 2.893454 0.023777 0
M  V30 13 O 2.305592 2.345449 1.443013 0
M  V30 14 N 0.547612 0.468563 1.125291 0
M  V30 15 C -0.790498 0.266771 1.298223 0
M  V30 16 C -0.941980 -0.968816 1.910456 0
M  V30 17 C -2.192032 -1.619068 2.297646 0
M  V30 18 C -3.347632 -1.719979 1.535050 0
M  V30 19 N -4.230189 -2.396136 2.294721 0
M  V30 20 N -3.698338 -2.707927 3.448213 0
M  V30 21 C -4.162859 -3.370469 4.535049 0
M  V30 22 C -3.380869 -3.573861 5.659729 0
M  V30 23 C -2.077328 -3.073867 5.654861 0
M  V30 24 Cl -1.036822 -3.288076 7.024953 0
M  V30 25 N -1.604350 -2.406245 4.563879 0
M  V30 26 C -2.432099 -2.256195 3.519550 0
M  V30 27 C 0.325305 -1.483279 2.091483 0
M  V30 28 N 1.210952 -0.570512 1.596231 0
M  V30 29 H -0.428718 1.406065 -1.703607 0
M  V30 30 H -0.109291 -0.404063 -1.459387 0
M  V30 31 H -0.220741 0.320357 -3.106489 0
M  V30 32 H 1.866188 -0.126521 -4.038301 0
M  V30 33 H 4.271500 0.205292 -4.135073 0
M  V30 34 H 4.061996 1.968099 -0.222487 0
M  V30 35 H -1.569182 0.954886 1.005202 0
M  V30 36 H -3.438236 -1.309484 0.537924 0
M  V30 37 H -5.186679 -3.774574 4.564428 0
M  V30 38 H -3.786116 -4.114446 6.524058 0
M  V30 39 H 0.501927 -2.454229 2.556164 0
M  V30 END ATOM
M  V30 BEGIN BOND
M  V30 1 1 1 2
M  V30 2 2 2 3
M  V30 3 1 3 4
M  V30 4 2 4 5
M  V30 5 1 5 6
M  V30 6 2 6 7
M  V30 7 1 6 8
M  V30 8 1 5 9
M  V30 9 2 9 10
M  V30 10 1 10 11
M  V30 11 2 11 12
M  V30 12 2 11 13
M  V30 13 1 11 14
M  V30 14 1 14 15
M  V30 15 2 15 16
M  V30 16 1 16 17
M  V30 17 1 17 18
M  V30 18 2 18 19
M  V30 19 1 19 20
M  V30 20 1 20 21
M  V30 21 2 21 22
M  V30 22 1 22 23
M  V30 23 1 23 24
M  V30 24 2 23 25
M  V30 25 1 25 26
M  V30 26 1 16 27
M  V30 27 2 27 28
M  V30 28 1 10 2
M  V30 29 1 28 14
M  V30 30 2 26 17
M  V30 31 1 26 20
M  V30 32 1 1 29
M  V30 33 1 1 30
M  V30 34 1 1 31
M  V30 35 1 3 32
M  V30 36 1 4 33
M  V30 37 1 9 34
M  V30 38 1 15 35
M  V30 39 1 18 36
M  V30 40 1 21 37
M  V30 41 1 22 38
M  V30 42 1 27 39
M  V30 END BOND
M  V30 END CTAB
M  END
>  <Dataset>  (83) 
ChEMBL_Kinases

>  <Ligand_Instance>  (83) 
nan

>  <PDB_ID>  (83) 
nan

>  <Standardized_SMILES>  (83) 
Cc1ccc([N+](=O)[O-])cc1S(=O)(=O)n1cc(-c2cnn3ccc(Cl)nc23)cn1

>  <Name>  (83) 
nan

>  <Pocket>  (83) 
nan

>  <ATP_Site>  (83) 
nan

>  <Peripheral>  (83) 
nan

>  <Num_H_Atoms_ProtBoundConf>  (83) 
nan

>  <Num_Resolved_Atoms>  (83) 
nan

>  <Num_Not_Resolved_Atoms>  (83) 
nan

$$$$
CHEMBL3612507
     RDKit          3D

  0  0  0  0  0  0  0  0  0  0999 V3000
M  V30 BEGIN CTAB
M  V30 COUNTS 41 43 0 0 0
M  V30 BEGIN ATOM
M  V30 1 C -0.772915 0.785851 -3.424269 0
M  V30 2 C 0.413533 -0.024942 -3.053744 0
M  V30 3 C 1.045650 -0.839698 -4.001818 0
M  V30 4 C 2.149120 -1.608880 -3.703793 0
M  V30 5 C 2.634842 -1.564517 -2.427394 0
M  V30 6 N 3.768188 -2.321716 -2.023010 0 CHG=1 VAL=4
M  V30 7 O 4.325915 -3.044258 -2.870804 0
M  V30 8 O 4.212617 -2.241326 -0.735867 0 CHG=-1 VAL=1
M  V30 9 C 2.014349 -0.765899 -1.500103 0
M  V30 10 C 0.909403 0.022528 -1.744314 0
M  V30 11 S 0.080358 1.046589 -0.618745 0
M  V30 12 O -1.378094 0.783715 -0.495780 0
M  V30 13 O 0.201051 2.470719 -1.146127 0
M  V30 14 N 0.893462 0.943878 0.902867 0
M  V30 15 C 2.277062 1.354188 1.056929 0
M  V30 16 N 0.238183 0.459123 2.039298 0
M  V30 17 C -0.293888 1.170796 2.943644 0
M  V30 18 C -0.965408 0.591641 4.109560 0
M  V30 19 C -1.582364 1.261455 5.160806 0
M  V30 20 N -2.046438 0.285919 5.976100 0
M  V30 21 N -1.762104 -0.905330 5.506247 0
M  V30 22 C -2.028504 -2.143993 5.985446 0
M  V30 23 C -1.613145 -3.274863 5.288883 0
M  V30 24 C -0.922441 -3.071201 4.096100 0
M  V30 25 C -0.465614 -4.201043 3.327585 0
M  V30 26 N -0.100751 -5.125172 2.720652 0
M  V30 27 N -0.649289 -1.840109 3.605410 0
M  V30 28 C -1.084275 -0.778915 4.336963 0
M  V30 29 H -1.656143 0.625118 -2.808305 0
M  V30 30 H -1.075673 0.488623 -4.459217 0
M  V30 31 H -0.518825 1.876440 -3.526738 0
M  V30 32 H 0.623256 -0.841967 -5.003314 0
M  V30 33 H 2.608407 -2.223236 -4.459825 0
M  V30 34 H 2.395813 -0.733685 -0.496958 0
M  V30 35 H 2.377400 2.214799 1.751299 0
M  V30 36 H 2.819297 0.497735 1.507357 0
M  V30 37 H 2.756166 1.560001 0.073560 0
M  V30 38 H -0.245159 2.247268 2.841769 0
M  V30 39 H -1.661126 2.336166 5.278560 0
M  V30 40 H -2.567627 -2.281117 6.916243 0
M  V30 41 H -1.801454 -4.286737 5.629927 0
M  V30 END ATOM
M  V30 BEGIN BOND
M  V30 1 1 1 2
M  V30 2 2 2 3
M  V30 3 1 3 4
M  V30 4 2 4 5
M  V30 5 1 5 6
M  V30 6 2 6 7
M  V30 7 1 6 8
M  V30 8 1 5 9
M  V30 9 2 9 10
M  V30 10 1 10 11
M  V30 11 2 11 12
M  V30 12 2 11 13
M  V30 13 1 11 14
M  V30 14 1 14 15
M  V30 15 1 14 16
M  V30 16 2 16 17
M  V30 17 1 17 18
M  V30 18 1 18 19
M  V30 19 2 19 20
M  V30 20 1 20 21
M  V30 21 1 21 22
M  V30 22 2 22 23
M  V30 23 1 23 24
M  V30 24 1 24 25
M  V30 25 3 25 26
M  V30 26 2 24 27
M  V30 27 1 27 28
M  V30 28 1 10 2
M  V30 29 2 28 18
M  V30 30 1 28 21
M  V30 31 1 1 29
M  V30 32 1 1 30
M  V30 33 1 1 31
M  V30 34 1 3 32
M  V30 35 1 4 33
M  V30 36 1 9 34
M  V30 37 1 15 35
M  V30 38 1 15 36
M  V30 39 1 15 37
M  V30 40 1 17 38
M  V30 41 1 19 39
M  V30 42 1 22 40
M  V30 43 1 23 41
M  V30 END BOND
M  V30 END CTAB
M  END
>  <Dataset>  (84) 
ChEMBL_Kinases

>  <Ligand_Instance>  (84) 
nan

>  <PDB_ID>  (84) 
nan

>  <Standardized_SMILES>  (84) 
Cc1ccc([N+](=O)[O-])cc1S(=O)(=O)N(C)/N=C/c1cnn2ccc(C#N)nc12

>  <Name>  (84) 
nan

>  <Pocket>  (84) 
nan

>  <ATP_Site>  (84) 
nan

>  <Peripheral>  (84) 
nan

>  <Num_H_Atoms_ProtBoundConf>  (84) 
nan

>  <Num_Resolved_Atoms>  (84) 
nan

>  <Num_Not_Resolved_Atoms>  (84) 
nan

$$$$
CHEMBL3612503
     RDKit          3D

  0  0  0  0  0  0  0  0  0  0999 V3000
M  V30 BEGIN CTAB
M  V30 COUNTS 43 45 0 0 0
M  V30 BEGIN ATOM
M  V30 1 C -1.231920 -4.771628 -0.156919 0
M  V30 2 C -0.707996 -4.174789 -1.417613 0
M  V30 3 C -0.931446 -4.741866 -2.669756 0
M  V30 4 C -0.389616 -4.085532 -3.749483 0
M  V30 5 N 0.323507 -2.951466 -3.622959 0
M  V30 6 N 0.914729 -2.184679 -4.511206 0
M  V30 7 C 1.503807 -1.155262 -3.876296 0
M  V30 8 C 1.269960 -1.282487 -2.516714 0
M  V30 9 C 1.689449 -0.430665 -1.384557 0
M  V30 10 N 1.395369 -0.675248 -0.159187 0
M  V30 11 N 1.871929 0.239192 0.821913 0
M  V30 12 C 3.111599 -0.233194 1.384922 0
M  V30 13 S 0.909254 1.623222 1.102896 0
M  V30 14 O 1.697768 2.894011 0.804544 0
M  V30 15 O -0.256701 1.648703 0.150760 0
M  V30 16 C 0.287617 1.735645 2.726302 0
M  V30 17 C -1.099313 1.666969 2.947115 0
M  V30 18 C -1.733984 1.724160 4.164494 0
M  V30 19 N -3.145574 1.642824 4.245161 0 CHG=1 VAL=4
M  V30 20 O -3.700011 1.695747 5.345888 0
M  V30 21 O -4.087077 1.506461 3.264653 0 CHG=-1 VAL=1
M  V30 22 C -0.962430 1.860228 5.274396 0
M  V30 23 C 0.400405 1.934240 5.135308 0
M  V30 24 C 0.984440 1.873077 3.903622 0
M  V30 25 C 2.444062 1.977026 3.807902 0
M  V30 26 C 0.516130 -2.439616 -2.411806 0
M  V30 27 N 0.012173 -3.031007 -1.298374 0
M  V30 28 H -0.401999 -4.885649 0.569494 0
M  V30 29 H -1.617895 -5.800867 -0.352699 0
M  V30 30 H -2.033258 -4.133362 0.262591 0
M  V30 31 H -1.515308 -5.663672 -2.734962 0
M  V30 32 H -0.582949 -4.555772 -4.716021 0
M  V30 33 H 2.082098 -0.323748 -4.278382 0
M  V30 34 H 2.281176 0.445070 -1.653415 0
M  V30 35 H 3.680092 -0.904876 0.707371 0
M  V30 36 H 2.905618 -0.727113 2.353362 0
M  V30 37 H 3.748664 0.674604 1.610711 0
M  V30 38 H -1.746011 1.557410 2.073292 0
M  V30 39 H -1.367338 1.913643 6.267523 0
M  V30 40 H 1.032440 2.043671 6.018607 0
M  V30 41 H 2.749313 2.438322 2.857993 0
M  V30 42 H 2.784331 2.685425 4.598117 0
M  V30 43 H 2.889863 0.993467 4.000203 0
M  V30 END ATOM
M  V30 BEGIN BOND
M  V30 1 1 1 2
M  V30 2 1 2 3
M  V30 3 2 3 4
M  V30 4 1 4 5
M  V30 5 1 5 6
M  V30 6 2 6 7
M  V30 7 1 7 8
M  V30 8 1 8 9
M  V30 9 2 9 10
M  V30 10 1 10 11
M  V30 11 1 11 12
M  V30 12 1 11 13
M  V30 13 2 13 14
M  V30 14 2 13 15
M  V30 15 1 13 16
M  V30 16 2 16 17
M  V30 17 1 17 18
M  V30 18 1 18 19
M  V30 19 2 19 20
M  V30 20 1 19 21
M  V30 21 2 18 22
M  V30 22 1 22 23
M  V30 23 2 23 24
M  V30 24 1 24 25
M  V30 25 2 8 26
M  V30 26 1 26 27
M  V30 27 2 27 2
M  V30 28 1 26 5
M  V30 29 1 24 16
M  V30 30 1 1 28
M  V30 31 1 1 29
M  V30 32 1 1 30
M  V30 33 1 3 31
M  V30 34 1 4 32
M  V30 35 1 7 33
M  V30 36 1 9 34
M  V30 37 1 12 35
M  V30 38 1 12 36
M  V30 39 1 12 37
M  V30 40 1 17 38
M  V30 41 1 22 39
M  V30 42 1 23 40
M  V30 43 1 25 41
M  V30 44 1 25 42
M  V30 45 1 25 43
M  V30 END BOND
M  V30 END CTAB
M  END
>  <Dataset>  (85) 
ChEMBL_Kinases

>  <Ligand_Instance>  (85) 
nan

>  <PDB_ID>  (85) 
nan

>  <Standardized_SMILES>  (85) 
Cc1ccn2ncc(/C=N/N(C)S(=O)(=O)c3cc([N+](=O)[O-])ccc3C)c2n1

>  <Name>  (85) 
nan

>  <Pocket>  (85) 
nan

>  <ATP_Site>  (85) 
nan

>  <Peripheral>  (85) 
nan

>  <Num_H_Atoms_ProtBoundConf>  (85) 
nan

>  <Num_Resolved_Atoms>  (85) 
nan

>  <Num_Not_Resolved_Atoms>  (85) 
nan

$$$$
CHEMBL3612498
     RDKit          3D

  0  0  0  0  0  0  0  0  0  0999 V3000
M  V30 BEGIN CTAB
M  V30 COUNTS 39 41 0 0 0
M  V30 BEGIN ATOM
M  V30 1 C 3.785075 1.237924 3.152783 0
M  V30 2 C 3.781837 0.350122 1.955752 0
M  V30 3 C 4.864624 -0.520139 1.845818 0
M  V30 4 C 4.930824 -1.366266 0.772885 0
M  V30 5 C 3.974833 -1.416065 -0.230180 0
M  V30 6 C 4.068619 -2.314836 -1.346771 0
M  V30 7 N 4.140880 -3.019149 -2.246627 0
M  V30 8 C 2.918470 -0.539866 -0.086395 0
M  V30 9 C 2.812891 0.323028 0.970517 0
M  V30 10 S 1.498426 1.453844 1.203955 0
M  V30 11 O 2.011054 2.856955 1.312117 0
M  V30 12 O 0.721651 1.059890 2.441750 0
M  V30 13 N 0.389995 1.283618 -0.110514 0
M  V30 14 C 0.783976 1.540486 -1.496831 0
M  V30 15 N -0.979409 0.904651 -0.141990 0
M  V30 16 C -1.434069 -0.122965 0.415675 0
M  V30 17 C -2.243537 -1.210532 0.941095 0
M  V30 18 C -1.612328 -2.187276 1.681040 0
M  V30 19 N -2.642972 -2.993329 1.985454 0
M  V30 20 N -3.770538 -2.546091 1.481150 0
M  V30 21 C -5.042227 -3.045201 1.544613 0
M  V30 22 C -6.065469 -2.349255 0.904205 0
M  V30 23 C -5.816272 -1.171661 0.211476 0
M  V30 24 Cl -7.182111 -0.385302 -0.553527 0
M  V30 25 N -4.549178 -0.701108 0.165100 0
M  V30 26 C -3.601065 -1.404766 0.795543 0
M  V30 27 H 4.201305 0.659887 4.020240 0
M  V30 28 H 4.516339 2.060226 2.999962 0
M  V30 29 H 2.792883 1.577126 3.457942 0
M  V30 30 H 5.663887 -0.542597 2.598288 0
M  V30 31 H 5.768774 -2.047597 0.677237 0
M  V30 32 H 2.138371 -0.527737 -0.833959 0
M  V30 33 H 0.196119 2.401193 -1.910742 0
M  V30 34 H 1.845676 1.852921 -1.580756 0
M  V30 35 H 0.538049 0.685101 -2.150647 0
M  V30 36 H -1.975865 0.639269 -0.171374 0
M  V30 37 H -0.586799 -2.322777 1.968784 0
M  V30 38 H -5.207133 -3.963541 2.090633 0
M  V30 39 H -7.048620 -2.828989 1.012412 0
M  V30 END ATOM
M  V30 BEGIN BOND
M  V30 1 1 1 2
M  V30 2 2 2 3
M  V30 3 1 3 4
M  V30 4 2 4 5
M  V30 5 1 5 6
M  V30 6 3 6 7
M  V30 7 1 5 8
M  V30 8 2 8 9
M  V30 9 1 9 10
M  V30 10 2 10 11
M  V30 11 2 10 12
M  V30 12 1 10 13
M  V30 13 1 13 14
M  V30 14 1 13 15
M  V30 15 2 15 16
M  V30 16 1 16 17
M  V30 17 1 17 18
M  V30 18 2 18 19
M  V30 19 1 19 20
M  V30 20 1 20 21
M  V30 21 2 21 22
M  V30 22 1 22 23
M  V30 23 1 23 24
M  V30 24 2 23 25
M  V30 25 1 25 26
M  V30 26 1 9 2
M  V30 27 2 26 17
M  V30 28 1 26 20
M  V30 29 1 1 27
M  V30 30 1 1 28
M  V30 31 1 1 29
M  V30 32 1 3 30
M  V30 33 1 4 31
M  V30 34 1 8 32
M  V30 35 1 14 33
M  V30 36 1 14 34
M  V30 37 1 14 35
M  V30 38 1 16 36
M  V30 39 1 18 37
M  V30 40 1 21 38
M  V30 41 1 22 39
M  V30 END BOND
M  V30 END CTAB
M  END
>  <Dataset>  (86) 
ChEMBL_Kinases

>  <Ligand_Instance>  (86) 
nan

>  <PDB_ID>  (86) 
nan

>  <Standardized_SMILES>  (86) 
Cc1ccc(C#N)cc1S(=O)(=O)N(C)/N=C/c1cnn2ccc(Cl)nc12

>  <Name>  (86) 
nan

>  <Pocket>  (86) 
nan

>  <ATP_Site>  (86) 
nan

>  <Peripheral>  (86) 
nan

>  <Num_H_Atoms_ProtBoundConf>  (86) 
nan

>  <Num_Resolved_Atoms>  (86) 
nan

>  <Num_Not_Resolved_Atoms>  (86) 
nan

$$$$
CHEMBL3612485
     RDKit          3D

  0  0  0  0  0  0  0  0  0  0999 V3000
M  V30 BEGIN CTAB
M  V30 COUNTS 37 39 0 0 0
M  V30 BEGIN ATOM
M  V30 1 C 0.330743 -2.223845 3.191844 0
M  V30 2 N -0.018490 -1.015140 2.479402 0
M  V30 3 N 1.005736 -0.066014 2.304406 0
M  V30 4 C 1.176861 0.585739 1.208429 0
M  V30 5 C 2.267484 1.550471 1.121401 0
M  V30 6 C 3.163814 1.842900 2.132332 0
M  V30 7 N 4.000601 2.782070 1.635200 0
M  V30 8 N 3.669858 3.075095 0.394929 0
M  V30 9 C 4.184360 3.929467 -0.509633 0
M  V30 10 C 3.659777 4.073955 -1.783845 0
M  V30 11 C 2.551430 3.273384 -2.084331 0
M  V30 12 Cl 1.823407 3.395438 -3.683022 0
M  V30 13 N 2.026709 2.413609 -1.186875 0
M  V30 14 C 2.603567 2.336819 0.036736 0
M  V30 15 S -1.661149 -0.845872 1.907677 0
M  V30 16 O -1.806198 0.419405 1.111120 0
M  V30 17 O -2.654589 -0.931082 3.010579 0
M  V30 18 C -1.924844 -2.163688 0.775112 0
M  V30 19 C -1.649228 -2.007578 -0.580800 0
M  V30 20 C -1.859636 -3.056992 -1.479287 0
M  V30 21 C -2.346276 -4.244150 -0.980016 0
M  V30 22 C -2.614578 -4.383148 0.366828 0
M  V30 23 N -3.116359 -5.654163 0.784692 0 CHG=1 VAL=4
M  V30 24 O -3.381715 -5.846611 2.003678 0
M  V30 25 O -3.349848 -6.736820 -0.042696 0 CHG=-1 VAL=1
M  V30 26 C -2.412903 -3.351754 1.281171 0
M  V30 27 H 1.397175 -2.514839 3.001487 0
M  V30 28 H 0.178157 -2.030752 4.288468 0
M  V30 29 H -0.349559 -3.032327 2.853817 0
M  V30 30 H 0.520871 0.415484 0.373956 0
M  V30 31 H 3.142663 1.366525 3.123942 0
M  V30 32 H 5.049586 4.529611 -0.221449 0
M  V30 33 H 4.053587 4.751038 -2.526356 0
M  V30 34 H -1.265551 -1.067140 -0.965299 0
M  V30 35 H -1.649426 -2.942334 -2.522460 0
M  V30 36 H -2.503620 -5.049139 -1.693902 0
M  V30 37 H -2.644769 -3.534047 2.315735 0
M  V30 END ATOM
M  V30 BEGIN BOND
M  V30 1 1 1 2
M  V30 2 1 2 3
M  V30 3 2 3 4
M  V30 4 1 4 5
M  V30 5 1 5 6
M  V30 6 2 6 7
M  V30 7 1 7 8
M  V30 8 1 8 9
M  V30 9 2 9 10
M  V30 10 1 10 11
M  V30 11 1 11 12
M  V30 12 2 11 13
M  V30 13 1 13 14
M  V30 14 1 2 15
M  V30 15 2 15 16
M  V30 16 2 15 17
M  V30 17 1 15 18
M  V30 18 2 18 19
M  V30 19 1 19 20
M  V30 20 2 20 21
M  V30 21 1 21 22
M  V30 22 1 22 23
M  V30 23 2 23 24
M  V30 24 1 23 25
M  V30 25 2 22 26
M  V30 26 2 14 5
M  V30 27 1 26 18
M  V30 28 1 14 8
M  V30 29 1 1 27
M  V30 30 1 1 28
M  V30 31 1 1 29
M  V30 32 1 4 30
M  V30 33 1 6 31
M  V30 34 1 9 32
M  V30 35 1 10 33
M  V30 36 1 19 34
M  V30 37 1 20 35
M  V30 38 1 21 36
M  V30 39 1 26 37
M  V30 END BOND
M  V30 END CTAB
M  END
>  <Dataset>  (87) 
ChEMBL_Kinases

>  <Ligand_Instance>  (87) 
nan

>  <PDB_ID>  (87) 
nan

>  <Standardized_SMILES>  (87) 
CN(/N=C/c1cnn2ccc(Cl)nc12)S(=O)(=O)c1cccc([N+](=O)[O-])c1

>  <Name>  (87) 
nan

>  <Pocket>  (87) 
nan

>  <ATP_Site>  (87) 
nan

>  <Peripheral>  (87) 
nan

>  <Num_H_Atoms_ProtBoundConf>  (87) 
nan

>  <Num_Resolved_Atoms>  (87) 
nan

>  <Num_Not_Resolved_Atoms>  (87) 
nan

$$$$
CHEMBL3612482
     RDKit          3D

  0  0  0  0  0  0  0  0  0  0999 V3000
M  V30 BEGIN CTAB
M  V30 COUNTS 40 42 0 0 0
M  V30 BEGIN ATOM
M  V30 1 C 1.052530 -1.565945 -0.574221 0
M  V30 2 C 2.514241 -1.242175 -0.456296 0
M  V30 3 C 3.371541 -2.312230 -0.427250 0
M  V30 4 C 4.732661 -2.075087 -0.319487 0
M  V30 5 C 5.251146 -0.800485 -0.240730 0
M  V30 6 N 6.636405 -0.505535 -0.129353 0 CHG=1 VAL=4
M  V30 7 O 7.480497 -1.421306 -0.096345 0
M  V30 8 O 6.993261 0.811945 -0.061147 0 CHG=-1 VAL=1
M  V30 9 C 4.346556 0.245778 -0.274018 0
M  V30 10 C 2.971225 0.041691 -0.381773 0
M  V30 11 S 1.882148 1.380221 -0.419340 0
M  V30 12 O 1.161599 1.444695 -1.759944 0
M  V30 13 O 2.651246 2.679935 -0.319256 0
M  V30 14 N 0.732967 1.371608 0.874431 0
M  V30 15 C 1.407754 1.453475 2.160133 0
M  V30 16 N -0.673573 1.303188 0.916493 0
M  V30 17 C -1.347729 0.278933 1.243480 0
M  V30 18 C -2.808795 0.290552 1.261598 0
M  V30 19 C -3.607500 1.370351 0.939326 0
M  V30 20 N -4.881885 0.946082 1.089459 0
M  V30 21 N -4.899906 -0.322638 1.482275 0
M  V30 22 C -5.968453 -1.098035 1.737983 0
M  V30 23 C -5.761320 -2.415159 2.142422 0
M  V30 24 C -4.453250 -2.875481 2.265490 0
M  V30 25 Cl -4.185335 -4.543868 2.777698 0
M  V30 26 N -3.427408 -2.036912 1.990871 0
M  V30 27 C -3.623757 -0.771860 1.602382 0
M  V30 28 H 0.696444 -2.082389 0.344556 0
M  V30 29 H 0.534578 -0.628636 -0.767459 0
M  V30 30 H 0.880486 -2.217648 -1.460745 0
M  V30 31 H 3.126296 -3.361577 -0.478732 0
M  V30 32 H 5.500153 -2.856351 -0.287863 0
M  V30 33 H 4.679174 1.285917 -0.216417 0
M  V30 34 H 2.132441 2.317287 2.133166 0
M  V30 35 H 0.713774 1.586800 3.007369 0
M  V30 36 H 2.067312 0.550208 2.264285 0
M  V30 37 H -0.813957 -0.622368 1.514468 0
M  V30 38 H -3.263702 2.353821 0.629947 0
M  V30 39 H -6.990886 -0.738378 1.641839 0
M  V30 40 H -6.605500 -3.066869 2.356534 0
M  V30 END ATOM
M  V30 BEGIN BOND
M  V30 1 1 1 2
M  V30 2 2 2 3
M  V30 3 1 3 4
M  V30 4 2 4 5
M  V30 5 1 5 6
M  V30 6 2 6 7
M  V30 7 1 6 8
M  V30 8 1 5 9
M  V30 9 2 9 10
M  V30 10 1 10 11
M  V30 11 2 11 12
M  V30 12 2 11 13
M  V30 13 1 11 14
M  V30 14 1 14 15
M  V30 15 1 14 16
M  V30 16 2 16 17
M  V30 17 1 17 18
M  V30 18 1 18 19
M  V30 19 2 19 20
M  V30 20 1 20 21
M  V30 21 1 21 22
M  V30 22 2 22 23
M  V30 23 1 23 24
M  V30 24 1 24 25
M  V30 25 2 24 26
M  V30 26 1 26 27
M  V30 27 1 10 2
M  V30 28 2 27 18
M  V30 29 1 27 21
M  V30 30 1 1 28
M  V30 31 1 1 29
M  V30 32 1 1 30
M  V30 33 1 3 31
M  V30 34 1 4 32
M  V30 35 1 9 33
M  V30 36 1 15 34
M  V30 37 1 15 35
M  V30 38 1 15 36
M  V30 39 1 17 37
M  V30 40 1 19 38
M  V30 41 1 22 39
M  V30 42 1 23 40
M  V30 END BOND
M  V30 END CTAB
M  END
>  <Dataset>  (88) 
ChEMBL_Kinases

>  <Ligand_Instance>  (88) 
nan

>  <PDB_ID>  (88) 
nan

>  <Standardized_SMILES>  (88) 
Cc1ccc([N+](=O)[O-])cc1S(=O)(=O)N(C)/N=C/c1cnn2ccc(Cl)nc12

>  <Name>  (88) 
nan

>  <Pocket>  (88) 
nan

>  <ATP_Site>  (88) 
nan

>  <Peripheral>  (88) 
nan

>  <Num_H_Atoms_ProtBoundConf>  (88) 
nan

>  <Num_Resolved_Atoms>  (88) 
nan

>  <Num_Not_Resolved_Atoms>  (88) 
nan

$$$$
CHEMBL361237
     RDKit          3D

  0  0  0  0  0  0  0  0  0  0999 V3000
M  V30 BEGIN CTAB
M  V30 COUNTS 34 37 0 0 0
M  V30 BEGIN ATOM
M  V30 1 N -0.070220 -3.760152 5.256627 0
M  V30 2 C -0.084747 -2.850629 4.082506 0
M  V30 3 N 0.676583 -2.584246 3.282817 0
M  V30 4 C 0.539731 -1.743544 2.271842 0
M  V30 5 C 1.647630 -1.515660 1.316112 0
M  V30 6 C 1.254205 -1.901106 0.037067 0
M  V30 7 C 2.117535 -1.785365 -1.039387 0
M  V30 8 C 3.383232 -1.272753 -0.798704 0
M  V30 9 F 4.253872 -1.143190 -1.828305 0
M  V30 10 C 3.759012 -0.895277 0.473273 0
M  V30 11 C 2.903973 -1.010814 1.537302 0
M  V30 12 C -0.715002 -1.101314 2.184068 0
M  V30 13 C -1.016589 -0.125248 1.098652 0
M  V30 14 C -0.208283 0.983510 1.159463 0
M  V30 15 C -0.420276 1.950909 0.179009 0
M  V30 16 C -1.402894 1.734186 -0.761817 0
M  V30 17 N -1.636440 2.661773 -1.737057 0
M  V30 18 C -2.609393 2.439567 -2.664400 0
M  V30 19 C -3.404371 1.313758 -2.697943 0
M  V30 20 C -3.191275 0.352284 -1.719267 0
M  V30 21 C -2.202197 0.610886 -0.801571 0
M  V30 22 N -1.962991 -0.287132 0.156693 0
M  V30 23 S -1.587291 -1.784819 3.591624 0
M  V30 24 H 0.234162 -3.399889 6.162494 0
M  V30 25 H -0.344766 -4.756173 5.254482 0
M  V30 26 H 0.287351 -2.314317 -0.262117 0
M  V30 27 H 1.871090 -2.069082 -2.058700 0
M  V30 28 H 4.735721 -0.492098 0.705660 0
M  V30 29 H 3.064154 -0.756823 2.574861 0
M  V30 30 H 0.551531 1.159238 1.881216 0
M  V30 31 H 0.181420 2.836002 0.177929 0
M  V30 32 H -2.666467 3.266235 -3.364513 0
M  V30 33 H -4.141468 1.239121 -3.471532 0
M  V30 34 H -3.798137 -0.541322 -1.720140 0
M  V30 END ATOM
M  V30 BEGIN BOND
M  V30 1 1 1 2
M  V30 2 2 2 3
M  V30 3 1 3 4
M  V30 4 1 4 5
M  V30 5 2 5 6
M  V30 6 1 6 7
M  V30 7 2 7 8
M  V30 8 1 8 9
M  V30 9 1 8 10
M  V30 10 2 10 11
M  V30 11 2 4 12
M  V30 12 1 12 13
M  V30 13 2 13 14
M  V30 14 1 14 15
M  V30 15 2 15 16
M  V30 16 1 16 17
M  V30 17 2 17 18
M  V30 18 1 18 19
M  V30 19 2 19 20
M  V30 20 1 20 21
M  V30 21 2 21 22
M  V30 22 1 12 23
M  V30 23 1 23 2
M  V30 24 1 11 5
M  V30 25 1 22 13
M  V30 26 1 21 16
M  V30 27 1 1 24
M  V30 28 1 1 25
M  V30 29 1 6 26
M  V30 30 1 7 27
M  V30 31 1 10 28
M  V30 32 1 11 29
M  V30 33 1 14 30
M  V30 34 1 15 31
M  V30 35 1 18 32
M  V30 36 1 19 33
M  V30 37 1 20 34
M  V30 END BOND
M  V30 END CTAB
M  END
>  <Dataset>  (89) 
ChEMBL_Kinases

>  <Ligand_Instance>  (89) 
nan

>  <PDB_ID>  (89) 
nan

>  <Standardized_SMILES>  (89) 
Nc1nc(-c2ccc(F)cc2)c(-c2ccc3ncccc3n2)s1

>  <Name>  (89) 
GW785804X

>  <Pocket>  (89) 
nan

>  <ATP_Site>  (89) 
nan

>  <Peripheral>  (89) 
nan

>  <Num_H_Atoms_ProtBoundConf>  (89) 
nan

>  <Num_Resolved_Atoms>  (89) 
nan

>  <Num_Not_Resolved_Atoms>  (89) 
nan

$$$$
CHEMBL361233
     RDKit          3D

  0  0  0  0  0  0  0  0  0  0999 V3000
M  V30 BEGIN CTAB
M  V30 COUNTS 54 57 0 0 0
M  V30 BEGIN ATOM
M  V30 1 N 2.000131 -1.526137 5.351138 0
M  V30 2 C 1.371366 -1.076827 4.478011 0
M  V30 3 C 0.594966 -0.538841 3.381195 0
M  V30 4 C 1.239184 -0.527551 2.162530 0
M  V30 5 C 2.606293 -1.050127 1.924161 0
M  V30 6 C 2.754923 -1.690727 0.590334 0
M  V30 7 C 3.641144 -0.964322 -0.366982 0
M  V30 8 C 4.785827 -0.220716 0.240883 0
M  V30 9 N 4.325509 0.587086 1.304862 0
M  V30 10 C 3.630217 -0.079076 2.337115 0
M  V30 11 C 0.505043 -0.004481 1.087521 0
M  V30 12 C -0.765706 0.425563 1.422528 0
M  V30 13 C -1.721509 1.019418 0.441660 0
M  V30 14 C -1.438341 2.397088 0.519595 0
M  V30 15 O -0.511967 3.098449 1.272911 0
M  V30 16 C -2.166214 3.275997 -0.261816 0
M  V30 17 C -3.155693 2.830140 -1.104500 0
M  V30 18 C -3.385428 1.488195 -1.136938 0
M  V30 19 C -2.726941 0.493255 -0.408546 0
M  V30 20 O -2.652430 -0.754736 -0.190337 0
M  V30 21 C -2.672072 -2.038399 -0.051473 0
M  V30 22 C -2.456496 -2.939964 -1.227437 0
M  V30 23 C -1.259117 -3.444198 -1.646024 0
M  V30 24 C -1.104136 -4.292451 -2.717215 0
M  V30 25 C -2.244763 -4.621469 -3.370410 0
M  V30 26 C -3.556535 -4.212053 -3.099906 0
M  V30 27 C -3.530632 -3.358240 -1.984595 0
M  V30 28 N -1.349029 0.396595 2.616384 0
M  V30 29 C -0.666040 -0.103652 3.666562 0
M  V30 30 N -1.253263 -0.150130 4.951920 0
M  V30 31 H 2.673990 -1.917542 2.669410 0
M  V30 32 H 3.131344 -2.731952 0.638696 0
M  V30 33 H 1.758124 -1.738704 0.102278 0
M  V30 34 H 3.053082 -0.233709 -0.969425 0
M  V30 35 H 4.079746 -1.670147 -1.113972 0
M  V30 36 H 5.192112 0.440427 -0.578211 0
M  V30 37 H 5.618465 -0.883038 0.562251 0
M  V30 38 H 4.195070 1.575254 1.147692 0
M  V30 39 H 4.423913 -0.573519 2.990539 0
M  V30 40 H 3.181490 0.695691 3.014051 0
M  V30 41 H 0.845381 0.075892 0.075976 0
M  V30 42 H -0.726537 3.816943 1.931048 0
M  V30 43 H -2.074037 4.362019 -0.326582 0
M  V30 44 H -3.773730 3.440163 -1.754851 0
M  V30 45 H -4.116240 0.955478 -1.743478 0
M  V30 46 H -1.988657 -2.463269 0.786647 0
M  V30 47 H -3.687432 -2.383613 0.363154 0
M  V30 48 H -0.372293 -3.149848 -1.078882 0
M  V30 49 H -0.139345 -4.653442 -2.996637 0
M  V30 50 H -2.148996 -5.286610 -4.219521 0
M  V30 51 H -4.449606 -4.468740 -3.601917 0
M  V30 52 H -4.512133 -2.970936 -1.697102 0
M  V30 53 H -1.231569 -0.813261 5.735383 0
M  V30 54 H -1.879476 0.635317 5.289018 0
M  V30 END ATOM
M  V30 BEGIN BOND
M  V30 1 3 1 2
M  V30 2 1 2 3
M  V30 3 2 3 4
M  V30 4 1 4 5
M  V30 5 1 5 6
M  V30 6 1 6 7
M  V30 7 1 7 8
M  V30 8 1 8 9
M  V30 9 1 9 10
M  V30 10 1 4 11
M  V30 11 2 11 12
M  V30 12 1 12 13
M  V30 13 2 13 14
M  V30 14 1 14 15
M  V30 15 1 14 16
M  V30 16 2 16 17
M  V30 17 1 17 18
M  V30 18 2 18 19
M  V30 19 1 19 20
M  V30 20 1 20 21
M  V30 21 1 21 22
M  V30 22 2 22 23
M  V30 23 1 23 24
M  V30 24 2 24 25
M  V30 25 1 25 26
M  V30 26 2 26 27
M  V30 27 1 12 28
M  V30 28 2 28 29
M  V30 29 1 29 30
M  V30 30 1 29 3
M  V30 31 1 10 5
M  V30 32 1 19 13
M  V30 33 1 27 22
M  V30 34 1 5 31
M  V30 35 1 6 32
M  V30 36 1 6 33
M  V30 37 1 7 34
M  V30 38 1 7 35
M  V30 39 1 8 36
M  V30 40 1 8 37
M  V30 41 1 9 38
M  V30 42 1 10 39
M  V30 43 1 10 40
M  V30 44 1 11 41
M  V30 45 1 15 42
M  V30 46 1 16 43
M  V30 47 1 17 44
M  V30 48 1 18 45
M  V30 49 1 21 46
M  V30 50 1 21 47
M  V30 51 1 23 48
M  V30 52 1 24 49
M  V30 53 1 25 50
M  V30 54 1 26 51
M  V30 55 1 27 52
M  V30 56 1 30 53
M  V30 57 1 30 54
M  V30 END BOND
M  V30 END CTAB
M  END
>  <Dataset>  (90) 
ChEMBL_Kinases

>  <Ligand_Instance>  (90) 
nan

>  <PDB_ID>  (90) 
nan

>  <Standardized_SMILES>  (90) 
N#Cc1c(C2CCCNC2)cc(-c2c(O)cccc2OCc2ccccc2)nc1N

>  <Name>  (90) 
nan

>  <Pocket>  (90) 
nan

>  <ATP_Site>  (90) 
nan

>  <Peripheral>  (90) 
nan

>  <Num_H_Atoms_ProtBoundConf>  (90) 
nan

>  <Num_Resolved_Atoms>  (90) 
nan

>  <Num_Not_Resolved_Atoms>  (90) 
nan

$$$$
CHEMBL361231
     RDKit          3D

  0  0  0  0  0  0  0  0  0  0999 V3000
M  V30 BEGIN CTAB
M  V30 COUNTS 59 61 0 0 0
M  V30 BEGIN ATOM
M  V30 1 C 1.529598 -0.246457 5.149354 0
M  V30 2 C 2.566216 -1.356968 5.087899 0
M  V30 3 C 1.983154 -2.650934 4.612889 0
M  V30 4 C 3.694532 -0.925891 4.188960 0
M  V30 5 O 3.287960 -0.641545 2.935538 0
M  V30 6 C 2.702990 -1.259003 1.891747 0
M  V30 7 C 2.590232 -0.277172 0.889876 0
M  V30 8 C 2.028215 -0.537857 -0.357011 0
M  V30 9 N 1.859872 0.362304 -1.446676 0
M  V30 10 C 0.665881 1.140390 -1.522973 0
M  V30 11 C -0.310591 1.024530 -0.553388 0
M  V30 12 C -1.480940 1.781872 -0.616843 0
M  V30 13 C -1.686816 2.679138 -1.672881 0
M  V30 14 S -3.149940 3.575542 -1.679913 0
M  V30 15 O -2.879689 4.899986 -2.368878 0
M  V30 16 O -3.623540 3.926751 -0.280625 0
M  V30 17 N -4.437747 2.826872 -2.500089 0
M  V30 18 C -4.871152 1.573235 -1.985941 0
M  V30 19 C -5.566253 3.718760 -2.675090 0
M  V30 20 C -0.689388 2.773306 -2.630490 0
M  V30 21 C 0.477757 2.019316 -2.568955 0
M  V30 22 N 1.573580 -1.779821 -0.616417 0
M  V30 23 N 0.997402 -2.387929 -1.648436 0
M  V30 24 C 0.731817 -3.669256 -1.397051 0
M  V30 25 C 1.164341 -3.940151 -0.093739 0
M  V30 26 C 1.075544 -5.238019 0.624102 0
M  V30 27 C -0.206141 -5.383059 1.385062 0
M  V30 28 C 1.131460 -6.347686 -0.421896 0
M  V30 29 C 1.671341 -2.729592 0.323508 0
M  V30 30 N 2.215296 -2.442446 1.505243 0
M  V30 31 H 0.689574 -0.510755 4.451457 0
M  V30 32 H 1.921650 0.719642 4.744407 0
M  V30 33 H 1.208341 -0.072965 6.184761 0
M  V30 34 H 2.975031 -1.480207 6.150531 0
M  V30 35 H 1.701895 -3.286896 5.520191 0
M  V30 36 H 1.081894 -2.475876 4.002533 0
M  V30 37 H 2.688689 -3.282607 4.067679 0
M  V30 38 H 4.481630 -1.742718 4.132718 0
M  V30 39 H 4.171509 -0.023415 4.692015 0
M  V30 40 H 2.885042 0.770856 0.881859 0
M  V30 41 H 2.586723 0.461668 -2.182116 0
M  V30 42 H -0.193977 0.339835 0.286338 0
M  V30 43 H -2.225119 1.654505 0.175048 0
M  V30 44 H -4.710383 0.800948 -2.790606 0
M  V30 45 H -4.457059 1.271595 -1.012425 0
M  V30 46 H -5.992976 1.572750 -1.850278 0
M  V30 47 H -6.532524 3.215478 -2.447469 0
M  V30 48 H -5.464318 4.611516 -2.019433 0
M  V30 49 H -5.662459 4.017683 -3.751449 0
M  V30 50 H -0.852838 3.478196 -3.458647 0
M  V30 51 H 1.252254 2.114841 -3.343081 0
M  V30 52 H 0.267296 -4.375920 -2.071716 0
M  V30 53 H 1.951190 -5.343512 1.309313 0
M  V30 54 H -0.660501 -6.368226 1.203939 0
M  V30 55 H -0.902142 -4.538257 1.184756 0
M  V30 56 H 0.019833 -5.338638 2.468215 0
M  V30 57 H 0.203640 -6.206682 -1.028651 0
M  V30 58 H 1.980722 -6.164496 -1.111622 0
M  V30 59 H 1.211263 -7.321496 0.064396 0
M  V30 END ATOM
M  V30 BEGIN BOND
M  V30 1 1 1 2
M  V30 2 1 2 3
M  V30 3 1 2 4
M  V30 4 1 4 5
M  V30 5 1 5 6
M  V30 6 1 6 7
M  V30 7 2 7 8
M  V30 8 1 8 9
M  V30 9 1 9 10
M  V30 10 2 10 11
M  V30 11 1 11 12
M  V30 12 2 12 13
M  V30 13 1 13 14
M  V30 14 2 14 15
M  V30 15 2 14 16
M  V30 16 1 14 17
M  V30 17 1 17 18
M  V30 18 1 17 19
M  V30 19 1 13 20
M  V30 20 2 20 21
M  V30 21 1 8 22
M  V30 22 1 22 23
M  V30 23 2 23 24
M  V30 24 1 24 25
M  V30 25 1 25 26
M  V30 26 1 26 27
M  V30 27 1 26 28
M  V30 28 2 25 29
M  V30 29 1 29 30
M  V30 30 2 30 6
M  V30 31 1 21 10
M  V30 32 1 29 22
M  V30 33 1 1 31
M  V30 34 1 1 32
M  V30 35 1 1 33
M  V30 36 1 2 34
M  V30 37 1 3 35
M  V30 38 1 3 36
M  V30 39 1 3 37
M  V30 40 1 4 38
M  V30 41 1 4 39
M  V30 42 1 7 40
M  V30 43 1 9 41
M  V30 44 1 11 42
M  V30 45 1 12 43
M  V30 46 1 18 44
M  V30 47 1 18 45
M  V30 48 1 18 46
M  V30 49 1 19 47
M  V30 50 1 19 48
M  V30 51 1 19 49
M  V30 52 1 20 50
M  V30 53 1 21 51
M  V30 54 1 24 52
M  V30 55 1 26 53
M  V30 56 1 27 54
M  V30 57 1 27 55
M  V30 58 1 27 56
M  V30 59 1 28 57
M  V30 60 1 28 58
M  V30 61 1 28 59
M  V30 END BOND
M  V30 END CTAB
M  END
>  <Dataset>  (91) 
ChEMBL_Kinases

>  <Ligand_Instance>  (91) 
nan

>  <PDB_ID>  (91) 
nan

>  <Standardized_SMILES>  (91) 
CC(C)COc1cc(Nc2ccc(S(=O)(=O)N(C)C)cc2)n2ncc(C(C)C)c2n1

>  <Name>  (91) 
nan

>  <Pocket>  (91) 
nan

>  <ATP_Site>  (91) 
nan

>  <Peripheral>  (91) 
nan

>  <Num_H_Atoms_ProtBoundConf>  (91) 
nan

>  <Num_Resolved_Atoms>  (91) 
nan

>  <Num_Not_Resolved_Atoms>  (91) 
nan

$$$$
CHEMBL361196
     RDKit          3D

  0  0  0  0  0  0  0  0  0  0999 V3000
M  V30 BEGIN CTAB
M  V30 COUNTS 33 36 0 0 0
M  V30 BEGIN ATOM
M  V30 1 O -0.986145 -3.051674 -0.531391 0
M  V30 2 C -1.399033 -2.987603 0.655189 0
M  V30 3 N -0.550063 -2.695206 1.782825 0
M  V30 4 C 0.792139 -2.497168 1.343097 0
M  V30 5 N 1.676925 -3.528243 1.256756 0
M  V30 6 C 2.943866 -3.331582 0.840000 0
M  V30 7 N 3.427773 -2.109334 0.479840 0
M  V30 8 C 2.549638 -1.090009 0.566230 0
M  V30 9 O 2.742686 0.177543 0.285896 0
M  V30 10 C 1.642426 0.877077 0.495344 0
M  V30 11 C 1.455124 2.327313 0.297784 0
M  V30 12 C 0.238869 2.930488 0.559162 0
M  V30 13 C 0.178667 4.309095 0.335811 0
M  V30 14 C 1.256418 5.041994 -0.117832 0
M  V30 15 N 2.400259 4.383268 -0.347626 0
M  V30 16 C 2.551154 3.058615 -0.161099 0
M  V30 17 C 0.666977 0.006080 0.942288 0
M  V30 18 C 1.244419 -1.242907 0.986872 0
M  V30 19 C -2.868388 -3.235459 0.875352 0
M  V30 20 C -3.406062 -4.361657 0.006599 0
M  V30 21 C -3.821623 -2.947717 -0.223030 0
M  V30 22 H -0.923380 -2.648985 2.757126 0
M  V30 23 H 3.569236 -4.223911 0.807630 0
M  V30 24 H -0.608934 2.361052 0.914769 0
M  V30 25 H -0.770903 4.790210 0.538088 0
M  V30 26 H 1.203922 6.109857 -0.289066 0
M  V30 27 H 3.504694 2.578243 -0.364716 0
M  V30 28 H -0.369521 0.218967 1.217748 0
M  V30 29 H -3.225388 -3.179761 1.904923 0
M  V30 30 H -4.056732 -5.107761 0.466312 0
M  V30 31 H -2.755498 -4.775429 -0.797741 0
M  V30 32 H -4.869969 -2.711517 0.099541 0
M  V30 33 H -3.492573 -2.425950 -1.147573 0
M  V30 END ATOM
M  V30 BEGIN BOND
M  V30 1 2 1 2
M  V30 2 1 2 3
M  V30 3 1 3 4
M  V30 4 2 4 5
M  V30 5 1 5 6
M  V30 6 2 6 7
M  V30 7 1 7 8
M  V30 8 1 8 9
M  V30 9 1 9 10
M  V30 10 1 10 11
M  V30 11 2 11 12
M  V30 12 1 12 13
M  V30 13 2 13 14
M  V30 14 1 14 15
M  V30 15 2 15 16
M  V30 16 2 10 17
M  V30 17 1 17 18
M  V30 18 1 2 19
M  V30 19 1 19 20
M  V30 20 1 20 21
M  V30 21 1 18 4
M  V30 22 1 21 19
M  V30 23 2 18 8
M  V30 24 1 16 11
M  V30 25 1 3 22
M  V30 26 1 6 23
M  V30 27 1 12 24
M  V30 28 1 13 25
M  V30 29 1 14 26
M  V30 30 1 16 27
M  V30 31 1 17 28
M  V30 32 1 19 29
M  V30 33 1 20 30
M  V30 34 1 20 31
M  V30 35 1 21 32
M  V30 36 1 21 33
M  V30 END BOND
M  V30 END CTAB
M  END
>  <Dataset>  (92) 
ChEMBL_Kinases

>  <Ligand_Instance>  (92) 
nan

>  <PDB_ID>  (92) 
nan

>  <Standardized_SMILES>  (92) 
O=C(Nc1ncnc2oc(-c3cccnc3)cc12)C1CC1

>  <Name>  (92) 
nan

>  <Pocket>  (92) 
nan

>  <ATP_Site>  (92) 
nan

>  <Peripheral>  (92) 
nan

>  <Num_H_Atoms_ProtBoundConf>  (92) 
nan

>  <Num_Resolved_Atoms>  (92) 
nan

>  <Num_Not_Resolved_Atoms>  (92) 
nan

$$$$
CHEMBL361171
     RDKit          3D

  0  0  0  0  0  0  0  0  0  0999 V3000
M  V30 BEGIN CTAB
M  V30 COUNTS 44 46 0 0 0
M  V30 BEGIN ATOM
M  V30 1 C 0.940728 -6.345794 4.334490 0
M  V30 2 O 0.689388 -4.976914 4.629623 0
M  V30 3 C 0.600033 -4.083136 3.571360 0
M  V30 4 C 0.745969 -4.478429 2.258759 0
M  V30 5 C 0.653023 -3.570805 1.220992 0
M  V30 6 C 0.411190 -2.228669 1.433075 0
M  V30 7 C 0.331885 -1.359547 0.276984 0
M  V30 8 C 0.106632 -0.020728 0.220593 0
M  V30 9 C 0.046063 0.736217 -0.928379 0
M  V30 10 C -0.204139 2.184738 -0.881057 0
M  V30 11 C 1.103830 2.946026 -0.781125 0
M  V30 12 C 0.921605 4.171812 0.102991 0
M  V30 13 C 0.559106 3.637161 1.490692 0
M  V30 14 N -0.596663 2.793111 1.481334 0
M  V30 15 C -1.172975 2.620111 0.176777 0
M  V30 16 C 0.225412 0.111670 -2.144249 0
M  V30 17 C 0.178958 0.819875 -3.390233 0
M  V30 18 N 0.153416 1.394513 -4.400140 0
M  V30 19 C 0.454414 -1.246546 -2.095162 0
M  V30 20 N 0.651980 -1.983168 -3.295728 0
M  V30 21 N 0.501006 -1.926517 -0.932405 0
M  V30 22 C 0.272002 -1.875240 2.752418 0
M  V30 23 O 0.030387 -0.574931 3.080639 0
M  V30 24 C 0.357437 -2.747384 3.814529 0
M  V30 25 H 0.786148 -6.992347 5.214863 0
M  V30 26 H 0.244361 -6.736863 3.555232 0
M  V30 27 H 1.971090 -6.509445 3.925114 0
M  V30 28 H 0.934953 -5.517678 2.065688 0
M  V30 29 H 0.786656 -4.002211 0.217734 0
M  V30 30 H -0.037837 0.507435 1.128613 0
M  V30 31 H -0.667366 2.480541 -1.856339 0
M  V30 32 H 1.467442 3.235203 -1.790636 0
M  V30 33 H 1.878163 2.317883 -0.295253 0
M  V30 34 H 0.164288 4.871406 -0.268877 0
M  V30 35 H 1.927254 4.621942 0.202255 0
M  V30 36 H 0.381682 4.497251 2.172152 0
M  V30 37 H 1.460930 3.033618 1.789681 0
M  V30 38 H -1.353278 3.195653 2.082797 0
M  V30 39 H -2.002829 1.906827 0.227818 0
M  V30 40 H -1.527966 3.646716 -0.129573 0
M  V30 41 H 0.094305 -2.724135 -3.810493 0
M  V30 42 H 1.508441 -1.816840 -3.850034 0
M  V30 43 H -0.823155 -0.245592 3.471106 0
M  V30 44 H 0.243921 -2.437608 4.828963 0
M  V30 END ATOM
M  V30 BEGIN BOND
M  V30 1 1 1 2
M  V30 2 1 2 3
M  V30 3 2 3 4
M  V30 4 1 4 5
M  V30 5 2 5 6
M  V30 6 1 6 7
M  V30 7 2 7 8
M  V30 8 1 8 9
M  V30 9 1 9 10
M  V30 10 1 10 11
M  V30 11 1 11 12
M  V30 12 1 12 13
M  V30 13 1 13 14
M  V30 14 1 14 15
M  V30 15 2 9 16
M  V30 16 1 16 17
M  V30 17 3 17 18
M  V30 18 1 16 19
M  V30 19 1 19 20
M  V30 20 2 19 21
M  V30 21 1 6 22
M  V30 22 1 22 23
M  V30 23 2 22 24
M  V30 24 1 24 3
M  V30 25 1 21 7
M  V30 26 1 15 10
M  V30 27 1 1 25
M  V30 28 1 1 26
M  V30 29 1 1 27
M  V30 30 1 4 28
M  V30 31 1 5 29
M  V30 32 1 8 30
M  V30 33 1 10 31
M  V30 34 1 11 32
M  V30 35 1 11 33
M  V30 36 1 12 34
M  V30 37 1 12 35
M  V30 38 1 13 36
M  V30 39 1 13 37
M  V30 40 1 14 38
M  V30 41 1 15 39
M  V30 42 1 15 40
M  V30 43 1 20 41
M  V30 44 1 20 42
M  V30 45 1 23 43
M  V30 46 1 24 44
M  V30 END BOND
M  V30 END CTAB
M  END
>  <Dataset>  (93) 
ChEMBL_Kinases

>  <Ligand_Instance>  (93) 
nan

>  <PDB_ID>  (93) 
nan

>  <Standardized_SMILES>  (93) 
COc1ccc(-c2cc(C3CCCNC3)c(C#N)c(N)n2)c(O)c1

>  <Name>  (93) 
nan

>  <Pocket>  (93) 
nan

>  <ATP_Site>  (93) 
nan

>  <Peripheral>  (93) 
nan

>  <Num_H_Atoms_ProtBoundConf>  (93) 
nan

>  <Num_Resolved_Atoms>  (93) 
nan

>  <Num_Not_Resolved_Atoms>  (93) 
nan

$$$$
CHEMBL360878
     RDKit          3D

  0  0  0  0  0  0  0  0  0  0999 V3000
M  V30 BEGIN CTAB
M  V30 COUNTS 46 48 0 0 0
M  V30 BEGIN ATOM
M  V30 1 C 1.316982 -5.212328 1.905380 0
M  V30 2 C 0.855294 -4.021887 1.084209 0
M  V30 3 C 1.515755 -4.016347 -0.273556 0
M  V30 4 C 3.011706 -3.936872 -0.194661 0
M  V30 5 C 3.543914 -2.720928 0.489152 0
M  V30 6 C 3.100815 -1.486000 -0.240435 0
M  V30 7 O 2.387870 -1.351634 -1.294996 0
M  V30 8 N 3.459423 -0.176704 0.201185 0
M  V30 9 C 2.858657 0.740381 -0.739630 0
M  V30 10 N 3.608841 1.085909 -1.826632 0
M  V30 11 C 3.065166 1.936298 -2.715242 0
M  V30 12 N 1.828679 2.445879 -2.566802 0
M  V30 13 C 1.047190 2.135559 -1.510015 0
M  V30 14 O -0.147173 2.439862 -1.080804 0
M  V30 15 C -0.416326 1.829622 0.050050 0
M  V30 16 C -1.657810 1.933173 0.820447 0
M  V30 17 C -1.827442 1.249558 2.007201 0
M  V30 18 C -3.022990 1.362296 2.731306 0
M  V30 19 C -3.998225 2.180160 2.196514 0
M  V30 20 O -5.213936 2.317425 2.898244 0
M  V30 21 C -5.305255 1.572737 4.122967 0
M  V30 22 C -3.900941 2.894409 1.015936 0
M  V30 23 C -2.679127 2.731829 0.349928 0
M  V30 24 C 0.671214 1.040304 0.439351 0
M  V30 25 C 1.592071 1.264070 -0.590068 0
M  V30 26 H 0.794412 -6.134939 1.543272 0
M  V30 27 H 2.411568 -5.321352 1.925130 0
M  V30 28 H 1.004602 -5.089078 2.961882 0
M  V30 29 H 1.073009 -3.124047 1.679725 0
M  V30 30 H -0.235877 -4.159804 0.914375 0
M  V30 31 H 1.291317 -5.022418 -0.733185 0
M  V30 32 H 1.093333 -3.248578 -0.933092 0
M  V30 33 H 3.406634 -4.879652 0.201222 0
M  V30 34 H 3.385142 -3.885180 -1.255349 0
M  V30 35 H 3.164273 -2.634625 1.530278 0
M  V30 36 H 4.642345 -2.751549 0.409299 0
M  V30 37 H 4.058263 -0.052472 1.072216 0
M  V30 38 H 3.718000 2.160513 -3.545208 0
M  V30 39 H -1.054575 0.614118 2.412301 0
M  V30 40 H -3.142802 0.824186 3.655143 0
M  V30 41 H -6.235090 1.735529 4.659773 0
M  V30 42 H -4.472995 1.977207 4.767388 0
M  V30 43 H -5.152334 0.477013 3.947572 0
M  V30 44 H -4.698865 3.518619 0.647125 0
M  V30 45 H -2.605814 3.296176 -0.582195 0
M  V30 46 H 0.749397 0.417093 1.331198 0
M  V30 END ATOM
M  V30 BEGIN BOND
M  V30 1 1 1 2
M  V30 2 1 2 3
M  V30 3 1 3 4
M  V30 4 1 4 5
M  V30 5 1 5 6
M  V30 6 2 6 7
M  V30 7 1 6 8
M  V30 8 1 8 9
M  V30 9 2 9 10
M  V30 10 1 10 11
M  V30 11 2 11 12
M  V30 12 1 12 13
M  V30 13 1 13 14
M  V30 14 1 14 15
M  V30 15 1 15 16
M  V30 16 2 16 17
M  V30 17 1 17 18
M  V30 18 2 18 19
M  V30 19 1 19 20
M  V30 20 1 20 21
M  V30 21 1 19 22
M  V30 22 2 22 23
M  V30 23 2 15 24
M  V30 24 1 24 25
M  V30 25 1 25 9
M  V30 26 2 25 13
M  V30 27 1 23 16
M  V30 28 1 1 26
M  V30 29 1 1 27
M  V30 30 1 1 28
M  V30 31 1 2 29
M  V30 32 1 2 30
M  V30 33 1 3 31
M  V30 34 1 3 32
M  V30 35 1 4 33
M  V30 36 1 4 34
M  V30 37 1 5 35
M  V30 38 1 5 36
M  V30 39 1 8 37
M  V30 40 1 11 38
M  V30 41 1 17 39
M  V30 42 1 18 40
M  V30 43 1 21 41
M  V30 44 1 21 42
M  V30 45 1 21 43
M  V30 46 1 22 44
M  V30 47 1 23 45
M  V30 48 1 24 46
M  V30 END BOND
M  V30 END CTAB
M  END
>  <Dataset>  (94) 
ChEMBL_Kinases

>  <Ligand_Instance>  (94) 
nan

>  <PDB_ID>  (94) 
nan

>  <Standardized_SMILES>  (94) 
CCCCCC(=O)Nc1ncnc2oc(-c3ccc(OC)cc3)cc12

>  <Name>  (94) 
nan

>  <Pocket>  (94) 
nan

>  <ATP_Site>  (94) 
nan

>  <Peripheral>  (94) 
nan

>  <Num_H_Atoms_ProtBoundConf>  (94) 
nan

>  <Num_Resolved_Atoms>  (94) 
nan

>  <Num_Not_Resolved_Atoms>  (94) 
nan

$$$$
CHEMBL3609300
     RDKit          3D

  0  0  0  0  0  0  0  0  0  0999 V3000
M  V30 BEGIN CTAB
M  V30 COUNTS 80 84 0 0 0
M  V30 BEGIN ATOM
M  V30 1 C 5.895726 1.836766 2.929150 0
M  V30 2 C 4.859350 0.799083 2.762323 0
M  V30 3 C 4.460067 0.362961 1.421581 0 CFG=2
M  V30 4 C 5.551864 -0.201888 0.576575 0
M  V30 5 O 6.801990 -0.057747 0.800947 0
M  V30 6 N 5.160289 -0.973174 -0.586038 0
M  V30 7 C 6.036325 -2.030942 -1.104716 0
M  V30 8 C 5.776103 -3.372309 -0.510682 0
M  V30 9 C 3.893442 -0.544996 -1.129014 0
M  V30 10 C 3.491912 -1.279197 -2.228849 0
M  V30 11 N 2.293775 -0.923206 -2.781946 0
M  V30 12 C 1.570209 0.095121 -2.255557 0
M  V30 13 N 0.374291 0.239701 -3.003141 0
M  V30 14 C -0.811192 -0.371155 -2.484065 0
M  V30 15 C -0.827976 -0.965919 -1.238028 0
M  V30 16 C -1.920746 -1.556442 -0.650192 0
M  V30 17 C -3.116891 -1.556734 -1.372990 0
M  V30 18 C -4.378188 -2.127279 -0.899337 0
M  V30 19 O -5.413244 -2.248537 -1.623899 0
M  V30 20 N -4.529391 -2.599323 0.457381 0
M  V30 21 C -5.793613 -3.175083 0.926408 0
M  V30 22 C -5.637442 -4.533760 1.514203 0
M  V30 23 C -7.003840 -5.001269 1.945873 0
M  V30 24 N -7.484355 -4.148900 2.977616 0
M  V30 25 C -6.849848 -4.308938 4.252048 0
M  V30 26 C -7.625759 -2.778500 2.603987 0
M  V30 27 C -6.507406 -2.203852 1.830036 0
M  V30 28 C -3.168008 -0.968998 -2.646597 0
M  V30 29 C -2.016720 -0.398600 -3.155286 0
M  V30 30 O -1.999506 0.194730 -4.401161 0
M  V30 31 C -3.073148 0.300549 -5.284470 0
M  V30 32 N 1.973223 0.793296 -1.193351 0
M  V30 33 C 3.155789 0.513806 -0.568978 0
M  V30 34 N 3.674902 1.218314 0.596729 0
M  V30 35 C 3.306899 2.613335 0.618213 0
M  V30 36 C 4.424568 3.557413 0.247859 0
M  V30 37 C 3.668014 4.886671 0.083542 0
M  V30 38 C 2.217863 4.544828 -0.016944 0
M  V30 39 C 2.266261 3.029683 -0.340474 0
M  V30 40 H 5.410948 2.807164 3.160571 0
M  V30 41 H 6.553946 1.657521 3.830143 0
M  V30 42 H 6.522948 2.012081 2.028296 0
M  V30 43 H 5.224516 -0.094273 3.365532 0
M  V30 44 H 3.974289 1.117745 3.395625 0
M  V30 45 H 3.831944 -0.592356 1.636956 0
M  V30 46 H 7.068065 -1.730832 -0.799599 0
M  V30 47 H 6.015776 -1.982779 -2.204833 0
M  V30 48 H 6.557510 -3.657181 0.250507 0
M  V30 49 H 5.832647 -4.110449 -1.365275 0
M  V30 50 H 4.807688 -3.489919 -0.019594 0
M  V30 51 H 4.072390 -2.092235 -2.643949 0
M  V30 52 H 0.247727 0.748520 -3.913834 0
M  V30 53 H 0.055568 -1.004097 -0.619876 0
M  V30 54 H -1.931078 -2.019422 0.324414 0
M  V30 55 H -3.737223 -2.537596 1.126782 0
M  V30 56 H -6.450012 -3.263216 0.030466 0
M  V30 57 H -5.261478 -5.242864 0.736010 0
M  V30 58 H -4.917928 -4.584986 2.339045 0
M  V30 59 H -6.960977 -6.028738 2.313743 0
M  V30 60 H -7.696197 -4.956301 1.077917 0
M  V30 61 H -5.749752 -4.486508 4.187604 0
M  V30 62 H -6.924535 -3.338520 4.818470 0
M  V30 63 H -7.278044 -5.162176 4.813619 0
M  V30 64 H -8.564178 -2.684229 1.998322 0
M  V30 65 H -7.867920 -2.200636 3.535657 0
M  V30 66 H -5.764336 -1.807606 2.546846 0
M  V30 67 H -6.872277 -1.314243 1.251078 0
M  V30 68 H -4.100820 -0.971874 -3.204968 0
M  V30 69 H -3.055653 -0.553595 -6.001685 0
M  V30 70 H -3.013059 1.280744 -5.823922 0
M  V30 71 H -4.039235 0.312196 -4.761738 0
M  V30 72 H 2.919339 2.901624 1.646114 0
M  V30 73 H 5.216891 3.692077 0.958262 0
M  V30 74 H 4.813619 3.248582 -0.753607 0
M  V30 75 H 4.067035 5.382694 -0.827114 0
M  V30 76 H 3.874455 5.539736 0.967203 0
M  V30 77 H 1.649901 4.699185 0.909275 0
M  V30 78 H 1.767189 5.074120 -0.879565 0
M  V30 79 H 1.228551 2.707524 -0.126103 0
M  V30 80 H 2.547580 3.037060 -1.407735 0
M  V30 END ATOM
M  V30 BEGIN BOND
M  V30 1 1 1 2
M  V30 2 1 2 3
M  V30 3 1 3 4
M  V30 4 2 4 5
M  V30 5 1 4 6
M  V30 6 1 6 7
M  V30 7 1 7 8
M  V30 8 1 6 9
M  V30 9 2 9 10
M  V30 10 1 10 11
M  V30 11 2 11 12
M  V30 12 1 12 13
M  V30 13 1 13 14
M  V30 14 2 14 15
M  V30 15 1 15 16
M  V30 16 2 16 17
M  V30 17 1 17 18
M  V30 18 2 18 19
M  V30 19 1 18 20
M  V30 20 1 20 21
M  V30 21 1 21 22
M  V30 22 1 22 23
M  V30 23 1 23 24
M  V30 24 1 24 25
M  V30 25 1 24 26
M  V30 26 1 26 27
M  V30 27 1 17 28
M  V30 28 2 28 29
M  V30 29 1 29 30
M  V30 30 1 30 31
M  V30 31 1 12 32
M  V30 32 2 32 33
M  V30 33 1 33 34
M  V30 34 1 34 35
M  V30 35 1 35 36
M  V30 36 1 36 37
M  V30 37 1 37 38
M  V30 38 1 38 39
M  V30 39 1 34 3
M  V30 40 1 39 35
M  V30 41 1 33 9
M  V30 42 1 29 14
M  V30 43 1 27 21
M  V30 44 1 1 40
M  V30 45 1 1 41
M  V30 46 1 1 42
M  V30 47 1 2 43
M  V30 48 1 2 44
M  V30 49 1 3 45 CFG=1
M  V30 50 1 7 46
M  V30 51 1 7 47
M  V30 52 1 8 48
M  V30 53 1 8 49
M  V30 54 1 8 50
M  V30 55 1 10 51
M  V30 56 1 13 52
M  V30 57 1 15 53
M  V30 58 1 16 54
M  V30 59 1 20 55
M  V30 60 1 21 56
M  V30 61 1 22 57
M  V30 62 1 22 58
M  V30 63 1 23 59
M  V30 64 1 23 60
M  V30 65 1 25 61
M  V30 66 1 25 62
M  V30 67 1 25 63
M  V30 68 1 26 64
M  V30 69 1 26 65
M  V30 70 1 27 66
M  V30 71 1 27 67
M  V30 72 1 28 68
M  V30 73 1 31 69
M  V30 74 1 31 70
M  V30 75 1 31 71
M  V30 76 1 35 72
M  V30 77 1 36 73
M  V30 78 1 36 74
M  V30 79 1 37 75
M  V30 80 1 37 76
M  V30 81 1 38 77
M  V30 82 1 38 78
M  V30 83 1 39 79
M  V30 84 1 39 80
M  V30 END BOND
M  V30 END CTAB
M  END
>  <Dataset>  (95) 
ChEMBL_Kinases

>  <Ligand_Instance>  (95) 
nan

>  <PDB_ID>  (95) 
nan

>  <Standardized_SMILES>  (95) 
CC[C@@H]1C(=O)N(CC)c2cnc(Nc3ccc(C(=O)NC4CCN(C)CC4)cc3OC)nc2N1C1CCCC1

>  <Name>  (95) 
nan

>  <Pocket>  (95) 
nan

>  <ATP_Site>  (95) 
nan

>  <Peripheral>  (95) 
nan

>  <Num_H_Atoms_ProtBoundConf>  (95) 
nan

>  <Num_Resolved_Atoms>  (95) 
nan

>  <Num_Not_Resolved_Atoms>  (95) 
nan

$$$$
CHEMBL3609304
     RDKit          3D

  0  0  0  0  0  0  0  0  0  0999 V3000
M  V30 BEGIN CTAB
M  V30 COUNTS 71 75 0 0 0
M  V30 BEGIN ATOM
M  V30 1 C 4.702408 -3.582732 2.931969 0
M  V30 2 O 3.662100 -3.572659 2.005093 0
M  V30 3 C 3.026332 -2.443483 1.545409 0
M  V30 4 C 3.349758 -1.171251 1.959151 0
M  V30 5 C 2.707260 -0.077826 1.489767 0
M  V30 6 C 3.097207 1.233365 1.967598 0
M  V30 7 O 4.086152 1.322774 2.751268 0
M  V30 8 N 2.409258 2.380881 1.584463 0
M  V30 9 C 2.488183 3.814766 1.834341 0
M  V30 10 C 2.508119 4.635139 0.592128 0
M  V30 11 C 1.131265 4.821204 -0.015266 0
M  V30 12 N 0.196711 5.372293 0.947472 0
M  V30 13 C -0.923455 4.467269 1.073208 0
M  V30 14 C 0.822378 5.551510 2.245159 0
M  V30 15 C 1.348451 4.244961 2.740162 0
M  V30 16 C 1.691737 -0.251418 0.562091 0
M  V30 17 C 1.357568 -1.523444 0.138287 0
M  V30 18 C 2.021370 -2.656005 0.623706 0
M  V30 19 N 1.599720 -3.951260 0.128469 0
M  V30 20 C 0.552151 -4.096851 -0.841831 0
M  V30 21 N 0.804248 -4.770132 -1.993302 0
M  V30 22 C -0.143445 -4.927200 -2.933280 0
M  V30 23 C -1.409944 -4.403952 -2.751179 0
M  V30 24 C -1.687478 -3.716358 -1.588335 0
M  V30 25 N -0.676874 -3.607872 -0.702195 0
M  V30 26 N -2.939191 -3.092508 -1.231172 0
M  V30 27 C -3.142148 -2.630232 0.105837 0
M  V30 28 C -4.337726 -3.247838 0.800810 0
M  V30 29 C -4.730066 -2.279357 1.888042 0
M  V30 30 C -4.140664 -0.960411 1.529179 0
M  V30 31 C -3.318533 -1.142996 0.260598 0
M  V30 32 C -3.933761 -2.956516 -2.270315 0
M  V30 33 C -3.744434 -3.932542 -3.374146 0
M  V30 34 O -4.699512 -4.300664 -4.105287 0
M  V30 35 N -2.493233 -4.511237 -3.678775 0
M  V30 36 C -2.244710 -5.219786 -4.905334 0
M  V30 37 H 4.793857 -4.616386 3.351540 0
M  V30 38 H 4.525588 -2.913498 3.797433 0
M  V30 39 H 5.695373 -3.388849 2.454234 0
M  V30 40 H 4.141081 -1.059326 2.679612 0
M  V30 41 H 1.585310 2.349853 0.947309 0
M  V30 42 H 3.413200 3.994527 2.422022 0
M  V30 43 H 3.074008 4.043924 -0.191524 0
M  V30 44 H 2.976066 5.614673 0.703680 0
M  V30 45 H 0.727570 3.889202 -0.465905 0
M  V30 46 H 1.229870 5.559311 -0.833683 0
M  V30 47 H -0.671156 3.447185 0.665571 0
M  V30 48 H -1.228774 4.276692 2.119947 0
M  V30 49 H -1.788092 4.798702 0.431650 0
M  V30 50 H 1.597895 6.331648 2.179700 0
M  V30 51 H 0.038876 5.937947 2.950564 0
M  V30 52 H 1.676506 4.335528 3.799935 0
M  V30 53 H 0.552971 3.470882 2.679514 0
M  V30 54 H 1.142399 0.576911 0.146868 0
M  V30 55 H 0.553149 -1.607864 -0.598920 0
M  V30 56 H 2.099780 -4.796334 0.516725 0
M  V30 57 H 0.021271 -5.466246 -3.878875 0
M  V30 58 H -2.260891 -2.911683 0.751101 0
M  V30 59 H -4.085963 -4.220598 1.275449 0
M  V30 60 H -5.154205 -3.382735 0.054239 0
M  V30 61 H -4.345000 -2.630894 2.877857 0
M  V30 62 H -5.846649 -2.266287 1.891831 0
M  V30 63 H -4.901499 -0.149016 1.388112 0
M  V30 64 H -3.465334 -0.619549 2.360594 0
M  V30 65 H -3.888357 -0.679205 -0.556583 0
M  V30 66 H -2.369020 -0.583444 0.373028 0
M  V30 67 H -4.970938 -3.066038 -1.941522 0
M  V30 68 H -3.736675 -1.942781 -2.724760 0
M  V30 69 H -2.120410 -6.287278 -4.663044 0
M  V30 70 H -3.090903 -5.101559 -5.629764 0
M  V30 71 H -1.280826 -4.884476 -5.378125 0
M  V30 END ATOM
M  V30 BEGIN BOND
M  V30 1 1 1 2
M  V30 2 1 2 3
M  V30 3 2 3 4
M  V30 4 1 4 5
M  V30 5 1 5 6
M  V30 6 2 6 7
M  V30 7 1 6 8
M  V30 8 1 8 9
M  V30 9 1 9 10
M  V30 10 1 10 11
M  V30 11 1 11 12
M  V30 12 1 12 13
M  V30 13 1 12 14
M  V30 14 1 14 15
M  V30 15 2 5 16
M  V30 16 1 16 17
M  V30 17 2 17 18
M  V30 18 1 18 19
M  V30 19 1 19 20
M  V30 20 2 20 21
M  V30 21 1 21 22
M  V30 22 2 22 23
M  V30 23 1 23 24
M  V30 24 2 24 25
M  V30 25 1 24 26
M  V30 26 1 26 27
M  V30 27 1 27 28
M  V30 28 1 28 29
M  V30 29 1 29 30
M  V30 30 1 30 31
M  V30 31 1 26 32
M  V30 32 1 32 33
M  V30 33 2 33 34
M  V30 34 1 33 35
M  V30 35 1 35 36
M  V30 36 1 18 3
M  V30 37 1 25 20
M  V30 38 1 31 27
M  V30 39 1 15 9
M  V30 40 1 35 23
M  V30 41 1 1 37
M  V30 42 1 1 38
M  V30 43 1 1 39
M  V30 44 1 4 40
M  V30 45 1 8 41
M  V30 46 1 9 42
M  V30 47 1 10 43
M  V30 48 1 10 44
M  V30 49 1 11 45
M  V30 50 1 11 46
M  V30 51 1 13 47
M  V30 52 1 13 48
M  V30 53 1 13 49
M  V30 54 1 14 50
M  V30 55 1 14 51
M  V30 56 1 15 52
M  V30 57 1 15 53
M  V30 58 1 16 54
M  V30 59 1 17 55
M  V30 60 1 19 56
M  V30 61 1 22 57
M  V30 62 1 27 58
M  V30 63 1 28 59
M  V30 64 1 28 60
M  V30 65 1 29 61
M  V30 66 1 29 62
M  V30 67 1 30 63
M  V30 68 1 30 64
M  V30 69 1 31 65
M  V30 70 1 31 66
M  V30 71 1 32 67
M  V30 72 1 32 68
M  V30 73 1 36 69
M  V30 74 1 36 70
M  V30 75 1 36 71
M  V30 END BOND
M  V30 END CTAB
M  END
>  <Dataset>  (96) 
ChEMBL_Kinases

>  <Ligand_Instance>  (96) 
nan

>  <PDB_ID>  (96) 
nan

>  <Standardized_SMILES>  (96) 
COc1cc(C(=O)NC2CCN(C)CC2)ccc1Nc1ncc2c(n1)N(C1CCCC1)CC(=O)N2C

>  <Name>  (96) 
nan

>  <Pocket>  (96) 
nan

>  <ATP_Site>  (96) 
nan

>  <Peripheral>  (96) 
nan

>  <Num_H_Atoms_ProtBoundConf>  (96) 
nan

>  <Num_Resolved_Atoms>  (96) 
nan

>  <Num_Not_Resolved_Atoms>  (96) 
nan

$$$$
CHEMBL3609305
     RDKit          3D

  0  0  0  0  0  0  0  0  0  0999 V3000
M  V30 BEGIN CTAB
M  V30 COUNTS 77 81 0 0 0
M  V30 BEGIN ATOM
M  V30 1 C 7.373904 -2.819575 1.436143 0
M  V30 2 C 6.244482 -1.838829 1.219508 0
M  V30 3 C 6.171235 -1.429467 -0.246066 0 CFG=1
M  V30 4 C 5.938400 -2.677022 -1.020914 0
M  V30 5 O 6.808905 -3.312548 -1.699154 0
M  V30 6 N 4.617291 -3.199917 -0.994786 0
M  V30 7 C 4.305350 -4.598450 -1.255475 0
M  V30 8 C 3.564938 -2.289458 -0.694850 0
M  V30 9 C 2.270442 -2.754370 -0.659025 0
M  V30 10 N 1.319752 -1.857186 -0.372864 0
M  V30 11 C 1.497361 -0.558647 -0.118145 0
M  V30 12 N 0.482029 0.383505 0.187369 0
M  V30 13 C -0.917743 0.174191 0.276681 0
M  V30 14 C -1.550982 -1.028191 0.058733 0
M  V30 15 C -2.911481 -1.254170 0.138164 0
M  V30 16 C -3.727392 -0.188866 0.464749 0
M  V30 17 C -5.168312 -0.419770 0.547246 0
M  V30 18 O -5.560636 -1.608672 0.297801 0
M  V30 19 N -6.139842 0.555273 0.873340 0
M  V30 20 C -7.577997 0.388359 0.952151 0
M  V30 21 C -8.157269 -0.272698 -0.291065 0
M  V30 22 C -9.416966 -1.039398 0.001971 0
M  V30 23 N -9.182034 -2.070593 0.983195 0
M  V30 24 C -8.529904 -3.177095 0.311446 0
M  V30 25 C -8.512682 -1.639029 2.154702 0
M  V30 26 C -8.081786 -0.206970 2.209601 0
M  V30 27 C -3.143500 1.039394 0.693563 0
M  V30 28 C -1.779144 1.197533 0.597929 0
M  V30 29 O -1.276368 2.469317 0.844185 0
M  V30 30 C -2.012822 3.599284 1.177405 0
M  V30 31 N 2.768256 -0.134448 -0.159567 0
M  V30 32 C 3.790020 -0.957143 -0.437740 0
M  V30 33 N 5.140123 -0.449518 -0.470034 0
M  V30 34 C 5.387508 0.958224 -0.713443 0
M  V30 35 C 6.250696 1.105232 -1.947474 0
M  V30 36 C 7.648264 1.399282 -1.485175 0
M  V30 37 C 7.603501 1.580683 0.009570 0
M  V30 38 C 6.144960 1.643346 0.382637 0
M  V30 39 H 7.153183 -3.802442 0.984443 0
M  V30 40 H 7.496036 -2.927092 2.538491 0
M  V30 41 H 8.314438 -2.384188 1.061629 0
M  V30 42 H 6.476654 -0.947161 1.858034 0
M  V30 43 H 5.315849 -2.363074 1.528240 0
M  V30 44 H 7.149891 -1.028552 -0.556548 0
M  V30 45 H 5.229343 -5.103428 -1.562979 0
M  V30 46 H 3.835222 -5.046741 -0.366772 0
M  V30 47 H 3.525003 -4.583947 -2.067015 0
M  V30 48 H 2.028448 -3.789223 -0.851219 0
M  V30 49 H 0.790074 1.382688 0.377449 0
M  V30 50 H -0.979487 -1.903618 -0.202311 0
M  V30 51 H -3.318744 -2.253509 -0.054474 0
M  V30 52 H -5.703774 1.490765 1.075453 0
M  V30 53 H -8.002435 1.440073 0.880883 0
M  V30 54 H -8.443812 0.485822 -1.076935 0
M  V30 55 H -7.443949 -0.933064 -0.811353 0
M  V30 56 H -10.261072 -0.379592 0.285959 0
M  V30 57 H -9.710403 -1.543750 -0.943990 0
M  V30 58 H -9.231192 -3.982151 0.084345 0
M  V30 59 H -7.676449 -3.503252 0.968744 0
M  V30 60 H -8.073421 -2.837020 -0.625996 0
M  V30 61 H -9.205145 -1.812231 3.022191 0
M  V30 62 H -7.636581 -2.316024 2.366918 0
M  V30 63 H -7.232216 -0.178930 2.956137 0
M  V30 64 H -8.881012 0.407815 2.691495 0
M  V30 65 H -3.748659 1.884281 0.947666 0
M  V30 66 H -2.274403 3.713746 2.240173 0
M  V30 67 H -2.891302 3.677323 0.504830 0
M  V30 68 H -1.373986 4.495081 0.928795 0
M  V30 69 H 4.407563 1.447153 -0.924895 0
M  V30 70 H 5.849605 1.958235 -2.568002 0
M  V30 71 H 6.237359 0.197524 -2.578690 0
M  V30 72 H 8.001414 2.338005 -2.003036 0
M  V30 73 H 8.398863 0.630364 -1.786382 0
M  V30 74 H 8.119757 2.557759 0.234164 0
M  V30 75 H 8.174969 0.824248 0.576281 0
M  V30 76 H 5.910048 1.332002 1.398522 0
M  V30 77 H 5.855507 2.731523 0.323121 0
M  V30 END ATOM
M  V30 BEGIN BOND
M  V30 1 1 1 2
M  V30 2 1 2 3
M  V30 3 1 3 4
M  V30 4 2 4 5
M  V30 5 1 4 6
M  V30 6 1 6 7
M  V30 7 1 6 8
M  V30 8 2 8 9
M  V30 9 1 9 10
M  V30 10 2 10 11
M  V30 11 1 11 12
M  V30 12 1 12 13
M  V30 13 2 13 14
M  V30 14 1 14 15
M  V30 15 2 15 16
M  V30 16 1 16 17
M  V30 17 2 17 18
M  V30 18 1 17 19
M  V30 19 1 19 20
M  V30 20 1 20 21
M  V30 21 1 21 22
M  V30 22 1 22 23
M  V30 23 1 23 24
M  V30 24 1 23 25
M  V30 25 1 25 26
M  V30 26 1 16 27
M  V30 27 2 27 28
M  V30 28 1 28 29
M  V30 29 1 29 30
M  V30 30 1 11 31
M  V30 31 2 31 32
M  V30 32 1 32 33
M  V30 33 1 33 34
M  V30 34 1 34 35
M  V30 35 1 35 36
M  V30 36 1 36 37
M  V30 37 1 37 38
M  V30 38 1 33 3
M  V30 39 1 38 34
M  V30 40 1 32 8
M  V30 41 1 28 13
M  V30 42 1 26 20
M  V30 43 1 1 39
M  V30 44 1 1 40
M  V30 45 1 1 41
M  V30 46 1 2 42
M  V30 47 1 2 43
M  V30 48 1 3 44 CFG=3
M  V30 49 1 7 45
M  V30 50 1 7 46
M  V30 51 1 7 47
M  V30 52 1 9 48
M  V30 53 1 12 49
M  V30 54 1 14 50
M  V30 55 1 15 51
M  V30 56 1 19 52
M  V30 57 1 20 53
M  V30 58 1 21 54
M  V30 59 1 21 55
M  V30 60 1 22 56
M  V30 61 1 22 57
M  V30 62 1 24 58
M  V30 63 1 24 59
M  V30 64 1 24 60
M  V30 65 1 25 61
M  V30 66 1 25 62
M  V30 67 1 26 63
M  V30 68 1 26 64
M  V30 69 1 27 65
M  V30 70 1 30 66
M  V30 71 1 30 67
M  V30 72 1 30 68
M  V30 73 1 34 69
M  V30 74 1 35 70
M  V30 75 1 35 71
M  V30 76 1 36 72
M  V30 77 1 36 73
M  V30 78 1 37 74
M  V30 79 1 37 75
M  V30 80 1 38 76
M  V30 81 1 38 77
M  V30 END BOND
M  V30 END CTAB
M  END
>  <Dataset>  (97) 
ChEMBL_Kinases

>  <Ligand_Instance>  (97) 
nan

>  <PDB_ID>  (97) 
nan

>  <Standardized_SMILES>  (97) 
CC[C@H]1C(=O)N(C)c2cnc(Nc3ccc(C(=O)NC4CCN(C)CC4)cc3OC)nc2N1C1CCCC1

>  <Name>  (97) 
nan

>  <Pocket>  (97) 
nan

>  <ATP_Site>  (97) 
nan

>  <Peripheral>  (97) 
nan

>  <Num_H_Atoms_ProtBoundConf>  (97) 
nan

>  <Num_Resolved_Atoms>  (97) 
nan

>  <Num_Not_Resolved_Atoms>  (97) 
nan

$$$$
CHEMBL3609306
     RDKit          3D

  0  0  0  0  0  0  0  0  0  0999 V3000
M  V30 BEGIN CTAB
M  V30 COUNTS 94 100 0 0 0
M  V30 BEGIN ATOM
M  V30 1 C 1.645873 -3.836171 5.580061 0
M  V30 2 O 0.943249 -3.322816 4.479696 0
M  V30 3 C 0.972864 -1.995402 4.139450 0
M  V30 4 C 1.639867 -0.959548 4.749553 0
M  V30 5 C 1.583953 0.342419 4.301654 0
M  V30 6 C 2.353311 1.338677 5.034867 0
M  V30 7 O 3.013581 0.982185 6.048692 0
M  V30 8 N 2.428468 2.701559 4.699542 0
M  V30 9 C 3.153026 3.758784 5.341841 0
M  V30 10 C 4.196482 4.376427 4.442320 0
M  V30 11 C 3.637069 5.196711 3.347819 0
M  V30 12 N 2.263856 5.503711 3.375130 0
M  V30 13 C 1.509642 5.361933 2.188266 0
M  V30 14 C 1.588519 5.579469 4.608818 0
M  V30 15 C 2.138196 4.803591 5.746871 0
M  V30 16 C 0.838172 0.686982 3.191954 0
M  V30 17 C 0.140825 -0.329872 2.535625 0
M  V30 18 C 0.219571 -1.644867 3.016099 0
M  V30 19 N -0.484895 -2.605750 2.288595 0
M  V30 20 C -1.332320 -2.578864 1.137294 0
M  V30 21 N -2.658207 -2.623080 1.036518 0
M  V30 22 C -3.308778 -2.579606 -0.139795 0
M  V30 23 C -2.551415 -2.484131 -1.287131 0
M  V30 24 C -1.153182 -2.436390 -1.184613 0
M  V30 25 N -0.569004 -2.486130 0.045305 0
M  V30 26 N -0.322094 -2.335254 -2.375263 0
M  V30 27 C 0.951311 -1.659314 -2.307765 0
M  V30 28 C 2.156926 -2.505794 -2.315742 0
M  V30 29 C 3.144284 -1.776690 -1.405777 0
M  V30 30 C 2.639955 -0.337618 -1.406920 0
M  V30 31 C 1.121113 -0.631307 -1.272174 0
M  V30 32 C -0.930354 -2.995555 -3.551466 0 CFG=2
M  V30 33 C -0.087812 -2.906906 -4.773643 0
M  V30 34 C -0.696269 -3.562377 -5.938783 0
M  V30 35 C -1.431435 -3.074372 -6.997354 0
M  V30 36 C -1.951061 -3.853802 -7.995410 0
M  V30 37 C -1.755433 -5.219532 -7.989193 0
M  V30 38 C -1.028402 -5.776737 -6.960023 0
M  V30 39 C -0.525416 -4.952210 -5.978326 0
M  V30 40 C -2.256241 -2.352039 -3.689280 0
M  V30 41 O -2.733240 -1.700706 -4.657650 0
M  V30 42 N -3.195930 -2.443985 -2.586666 0
M  V30 43 C -4.644322 -2.518421 -2.729927 0
M  V30 44 C -5.320464 -1.219934 -2.822686 0
M  V30 45 C -5.762191 -0.412135 -1.798941 0
M  V30 46 C -6.411564 0.793058 -1.939154 0
M  V30 47 C -6.657815 1.264780 -3.207651 0
M  V30 48 C -6.250193 0.521065 -4.303854 0
M  V30 49 C -5.609007 -0.671394 -4.080409 0
M  V30 50 H 0.884809 -3.992135 6.402083 0
M  V30 51 H 2.402382 -3.154045 5.996424 0
M  V30 52 H 2.121639 -4.816692 5.346326 0
M  V30 53 H 2.217026 -1.204452 5.605859 0
M  V30 54 H 1.892434 3.034924 3.868401 0
M  V30 55 H 3.650163 3.322732 6.235946 0
M  V30 56 H 4.779318 3.541298 4.031168 0
M  V30 57 H 4.820372 5.044993 5.096904 0
M  V30 58 H 3.820264 4.646691 2.372015 0
M  V30 59 H 4.230298 6.139053 3.232728 0
M  V30 60 H 0.732498 4.580580 2.202066 0
M  V30 61 H 2.223602 5.244878 1.345924 0
M  V30 62 H 0.972215 6.327202 1.973782 0
M  V30 63 H 0.535357 5.205479 4.420638 0
M  V30 64 H 1.419186 6.661854 4.863334 0
M  V30 65 H 2.651744 5.520650 6.426522 0
M  V30 66 H 1.324834 4.261349 6.260646 0
M  V30 67 H 0.779489 1.687082 2.827445 0
M  V30 68 H -0.456737 -0.098210 1.661484 0
M  V30 69 H -0.464045 -3.616078 2.551409 0
M  V30 70 H -4.380017 -2.625226 -0.136720 0
M  V30 71 H 1.022467 -1.063538 -3.302429 0
M  V30 72 H 1.971525 -3.476725 -1.835082 0
M  V30 73 H 2.637807 -2.635855 -3.317051 0
M  V30 74 H 3.065313 -2.153444 -0.387298 0
M  V30 75 H 4.167675 -1.782922 -1.764218 0
M  V30 76 H 3.018100 0.271422 -0.594469 0
M  V30 77 H 2.754933 0.108522 -2.411778 0
M  V30 78 H 1.019744 -0.900929 -0.225793 0
M  V30 79 H 0.561291 0.304542 -1.502513 0
M  V30 80 H -1.095109 -4.078311 -3.252345 0
M  V30 81 H -0.015809 -1.815908 -5.043028 0
M  V30 82 H 0.897768 -3.363311 -4.634804 0
M  V30 83 H -1.558075 -2.003149 -6.999505 0
M  V30 84 H -2.513920 -3.332935 -8.772635 0
M  V30 85 H -2.180094 -5.781137 -8.785917 0
M  V30 86 H -0.877153 -6.840044 -6.956779 0
M  V30 87 H 0.040546 -5.490245 -5.201780 0
M  V30 88 H -4.879300 -3.070040 -3.702136 0
M  V30 89 H -5.022147 -3.151475 -1.904749 0
M  V30 90 H -5.596387 -0.733903 -0.792616 0
M  V30 91 H -6.724462 1.361219 -1.074631 0
M  V30 92 H -7.167223 2.208146 -3.308974 0
M  V30 93 H -6.467742 0.934149 -5.276237 0
M  V30 94 H -5.351391 -1.157636 -5.016984 0
M  V30 END ATOM
M  V30 BEGIN BOND
M  V30 1 1 1 2
M  V30 2 1 2 3
M  V30 3 2 3 4
M  V30 4 1 4 5
M  V30 5 1 5 6
M  V30 6 2 6 7
M  V30 7 1 6 8
M  V30 8 1 8 9
M  V30 9 1 9 10
M  V30 10 1 10 11
M  V30 11 1 11 12
M  V30 12 1 12 13
M  V30 13 1 12 14
M  V30 14 1 14 15
M  V30 15 2 5 16
M  V30 16 1 16 17
M  V30 17 2 17 18
M  V30 18 1 18 19
M  V30 19 1 19 20
M  V30 20 2 20 21
M  V30 21 1 21 22
M  V30 22 2 22 23
M  V30 23 1 23 24
M  V30 24 2 24 25
M  V30 25 1 24 26
M  V30 26 1 26 27
M  V30 27 1 27 28
M  V30 28 1 28 29
M  V30 29 1 29 30
M  V30 30 1 30 31
M  V30 31 1 26 32
M  V30 32 1 32 33
M  V30 33 1 33 34
M  V30 34 2 34 35
M  V30 35 1 35 36
M  V30 36 2 36 37
M  V30 37 1 37 38
M  V30 38 2 38 39
M  V30 39 1 32 40
M  V30 40 2 40 41
M  V30 41 1 40 42
M  V30 42 1 42 43
M  V30 43 1 43 44
M  V30 44 2 44 45
M  V30 45 1 45 46
M  V30 46 2 46 47
M  V30 47 1 47 48
M  V30 48 2 48 49
M  V30 49 1 18 3
M  V30 50 1 25 20
M  V30 51 1 31 27
M  V30 52 1 39 34
M  V30 53 1 49 44
M  V30 54 1 15 9
M  V30 55 1 42 23
M  V30 56 1 1 50
M  V30 57 1 1 51
M  V30 58 1 1 52
M  V30 59 1 4 53
M  V30 60 1 8 54
M  V30 61 1 9 55
M  V30 62 1 10 56
M  V30 63 1 10 57
M  V30 64 1 11 58
M  V30 65 1 11 59
M  V30 66 1 13 60
M  V30 67 1 13 61
M  V30 68 1 13 62
M  V30 69 1 14 63
M  V30 70 1 14 64
M  V30 71 1 15 65
M  V30 72 1 15 66
M  V30 73 1 16 67
M  V30 74 1 17 68
M  V30 75 1 19 69
M  V30 76 1 22 70
M  V30 77 1 27 71
M  V30 78 1 28 72
M  V30 79 1 28 73
M  V30 80 1 29 74
M  V30 81 1 29 75
M  V30 82 1 30 76
M  V30 83 1 30 77
M  V30 84 1 31 78
M  V30 85 1 31 79
M  V30 86 1 32 80 CFG=1
M  V30 87 1 33 81
M  V30 88 1 33 82
M  V30 89 1 35 83
M  V30 90 1 36 84
M  V30 91 1 37 85
M  V30 92 1 38 86
M  V30 93 1 39 87
M  V30 94 1 43 88
M  V30 95 1 43 89
M  V30 96 1 45 90
M  V30 97 1 46 91
M  V30 98 1 47 92
M  V30 99 1 48 93
M  V30 100 1 49 94
M  V30 END BOND
M  V30 END CTAB
M  END
>  <Dataset>  (98) 
ChEMBL_Kinases

>  <Ligand_Instance>  (98) 
nan

>  <PDB_ID>  (98) 
nan

>  <Standardized_SMILES>  (98) 
COc1cc(C(=O)NC2CCN(C)CC2)ccc1Nc1ncc2c(n1)N(C1CCCC1)[C@H](Cc1ccccc1)C(=O)N2Cc1ccccc1

>  <Name>  (98) 
nan

>  <Pocket>  (98) 
nan

>  <ATP_Site>  (98) 
nan

>  <Peripheral>  (98) 
nan

>  <Num_H_Atoms_ProtBoundConf>  (98) 
nan

>  <Num_Resolved_Atoms>  (98) 
nan

>  <Num_Not_Resolved_Atoms>  (98) 
nan

$$$$
CHEMBL3609307
     RDKit          3D

  0  0  0  0  0  0  0  0  0  0999 V3000
M  V30 BEGIN CTAB
M  V30 COUNTS 76 79 0 0 0
M  V30 BEGIN ATOM
M  V30 1 C 4.279340 4.783639 4.528021 0
M  V30 2 C 3.261267 4.030783 5.338605 0
M  V30 3 C 2.243939 3.311357 4.552063 0 CFG=2
M  V30 4 C 1.248757 2.602776 5.425200 0
M  V30 5 O 1.279253 2.596655 6.683520 0
M  V30 6 N 0.195758 1.887292 4.774575 0
M  V30 7 C -1.104857 1.700577 5.391869 0
M  V30 8 C 0.461373 1.350557 3.488579 0
M  V30 9 C -0.536387 0.666306 2.845376 0
M  V30 10 N -0.194887 0.199256 1.633799 0
M  V30 11 C 1.004412 0.360415 1.057015 0
M  V30 12 N 1.354182 -0.139795 -0.226056 0
M  V30 13 C 0.593095 -0.875372 -1.170871 0
M  V30 14 C -0.721292 -1.229660 -0.955752 0
M  V30 15 C -1.517875 -1.934936 -1.819369 0
M  V30 16 C -0.989881 -2.344643 -3.024148 0
M  V30 17 C -1.658689 -3.096961 -4.076586 0
M  V30 18 O -1.119933 -3.463332 -5.168476 0
M  V30 19 N -3.020873 -3.457620 -3.883312 0
M  V30 20 C -3.972877 -4.178119 -4.681897 0
M  V30 21 C -4.504083 -5.406391 -4.006142 0
M  V30 22 C -5.206583 -5.076466 -2.701935 0
M  V30 23 N -5.938841 -3.830910 -2.834000 0
M  V30 24 C -7.115672 -3.808753 -2.012062 0
M  V30 25 C -6.329017 -3.571449 -4.206243 0
M  V30 26 C -5.142487 -3.315965 -5.104674 0
M  V30 27 C 0.319490 -2.010739 -3.277085 0
M  V30 28 C 1.111528 -1.302865 -2.405232 0
M  V30 29 O 2.435117 -0.985881 -2.702277 0
M  V30 30 C 3.061144 -1.360923 -3.906675 0
M  V30 31 N 1.929493 1.032457 1.729984 0
M  V30 32 C 1.731223 1.547555 2.931729 0
M  V30 33 N 2.766728 2.280011 3.637871 0
M  V30 34 C 4.098096 1.922838 3.356096 0
M  V30 35 C 4.384431 0.746454 2.482818 0
M  V30 36 C 3.850658 -0.558396 3.003370 0
M  V30 37 C 5.923294 0.596502 2.566668 0
M  V30 38 H 4.445399 5.820890 4.947989 0
M  V30 39 H 3.979378 4.975860 3.480714 0
M  V30 40 H 5.286144 4.302901 4.513077 0
M  V30 41 H 3.802034 3.416914 6.084705 0
M  V30 42 H 2.711207 4.808083 5.945720 0
M  V30 43 H 1.681188 4.041007 3.951962 0
M  V30 44 H -1.277862 0.595239 5.482355 0
M  V30 45 H -1.837452 2.152885 4.698295 0
M  V30 46 H -1.136253 2.090386 6.419669 0
M  V30 47 H -1.512604 0.518993 3.282281 0
M  V30 48 H 2.336788 0.041178 -0.581854 0
M  V30 49 H -1.255238 -0.971038 -0.053516 0
M  V30 50 H -2.543783 -2.209315 -1.647352 0
M  V30 51 H -3.604512 -3.235295 -3.049524 0
M  V30 52 H -3.462981 -4.490332 -5.615186 0
M  V30 53 H -5.293486 -5.824892 -4.674165 0
M  V30 54 H -3.749239 -6.186099 -3.842569 0
M  V30 55 H -4.484524 -4.985160 -1.882864 0
M  V30 56 H -5.865795 -5.933303 -2.474984 0
M  V30 57 H -7.534102 -4.837406 -1.832829 0
M  V30 58 H -7.913227 -3.230196 -2.514036 0
M  V30 59 H -6.940339 -3.316696 -1.034714 0
M  V30 60 H -6.958691 -4.385881 -4.597661 0
M  V30 61 H -6.956208 -2.654040 -4.180665 0
M  V30 62 H -4.886191 -2.248505 -5.095953 0
M  V30 63 H -5.455355 -3.575883 -6.134910 0
M  V30 64 H 0.824426 -2.294598 -4.210873 0
M  V30 65 H 4.145496 -1.148275 -3.786983 0
M  V30 66 H 2.664248 -0.710835 -4.715183 0
M  V30 67 H 2.951687 -2.439121 -4.137090 0
M  V30 68 H 4.643511 1.760855 4.307753 0
M  V30 69 H 4.599030 2.799969 2.839719 0
M  V30 70 H 4.238277 0.909502 1.398310 0
M  V30 71 H 3.063220 -0.459868 3.777463 0
M  V30 72 H 3.555088 -1.191613 2.135049 0
M  V30 73 H 4.638264 -1.186903 3.520384 0
M  V30 74 H 6.256307 -0.123371 1.780914 0
M  V30 75 H 6.210794 0.199291 3.552148 0
M  V30 76 H 6.409615 1.558589 2.367493 0
M  V30 END ATOM
M  V30 BEGIN BOND
M  V30 1 1 1 2
M  V30 2 1 2 3
M  V30 3 1 3 4
M  V30 4 2 4 5
M  V30 5 1 4 6
M  V30 6 1 6 7
M  V30 7 1 6 8
M  V30 8 2 8 9
M  V30 9 1 9 10
M  V30 10 2 10 11
M  V30 11 1 11 12
M  V30 12 1 12 13
M  V30 13 2 13 14
M  V30 14 1 14 15
M  V30 15 2 15 16
M  V30 16 1 16 17
M  V30 17 2 17 18
M  V30 18 1 17 19
M  V30 19 1 19 20
M  V30 20 1 20 21
M  V30 21 1 21 22
M  V30 22 1 22 23
M  V30 23 1 23 24
M  V30 24 1 23 25
M  V30 25 1 25 26
M  V30 26 1 16 27
M  V30 27 2 27 28
M  V30 28 1 28 29
M  V30 29 1 29 30
M  V30 30 1 11 31
M  V30 31 2 31 32
M  V30 32 1 32 33
M  V30 33 1 33 34
M  V30 34 1 34 35
M  V30 35 1 35 36
M  V30 36 1 35 37
M  V30 37 1 33 3
M  V30 38 1 32 8
M  V30 39 1 28 13
M  V30 40 1 26 20
M  V30 41 1 1 38
M  V30 42 1 1 39
M  V30 43 1 1 40
M  V30 44 1 2 41
M  V30 45 1 2 42
M  V30 46 1 3 43 CFG=3
M  V30 47 1 7 44
M  V30 48 1 7 45
M  V30 49 1 7 46
M  V30 50 1 9 47
M  V30 51 1 12 48
M  V30 52 1 14 49
M  V30 53 1 15 50
M  V30 54 1 19 51
M  V30 55 1 20 52
M  V30 56 1 21 53
M  V30 57 1 21 54
M  V30 58 1 22 55
M  V30 59 1 22 56
M  V30 60 1 24 57
M  V30 61 1 24 58
M  V30 62 1 24 59
M  V30 63 1 25 60
M  V30 64 1 25 61
M  V30 65 1 26 62
M  V30 66 1 26 63
M  V30 67 1 27 64
M  V30 68 1 30 65
M  V30 69 1 30 66
M  V30 70 1 30 67
M  V30 71 1 34 68
M  V30 72 1 34 69
M  V30 73 1 35 70
M  V30 74 1 36 71
M  V30 75 1 36 72
M  V30 76 1 36 73
M  V30 77 1 37 74
M  V30 78 1 37 75
M  V30 79 1 37 76
M  V30 END BOND
M  V30 END CTAB
M  END
>  <Dataset>  (99) 
ChEMBL_Kinases

>  <Ligand_Instance>  (99) 
nan

>  <PDB_ID>  (99) 
nan

>  <Standardized_SMILES>  (99) 
CC[C@@H]1C(=O)N(C)c2cnc(Nc3ccc(C(=O)NC4CCN(C)CC4)cc3OC)nc2N1CC(C)C

>  <Name>  (99) 
nan

>  <Pocket>  (99) 
nan

>  <ATP_Site>  (99) 
nan

>  <Peripheral>  (99) 
nan

>  <Num_H_Atoms_ProtBoundConf>  (99) 
nan

>  <Num_Resolved_Atoms>  (99) 
nan

>  <Num_Not_Resolved_Atoms>  (99) 
nan

$$$$
CHEMBL3609308
     RDKit          3D

  0  0  0  0  0  0  0  0  0  0999 V3000
M  V30 BEGIN CTAB
M  V30 COUNTS 77 81 0 0 0
M  V30 BEGIN ATOM
M  V30 1 C 3.478439 4.408967 0.365256 0
M  V30 2 C 4.382134 3.319683 -0.196685 0
M  V30 3 C 4.201371 2.034851 0.601686 0 CFG=2
M  V30 4 C 5.136660 1.044540 -0.037237 0
M  V30 5 O 6.151902 0.575894 0.532983 0
M  V30 6 N 4.845922 0.612125 -1.382260 0
M  V30 7 C 5.907387 0.149248 -2.256160 0
M  V30 8 C 3.494936 0.653080 -1.829065 0
M  V30 9 C 3.155028 0.247111 -3.099672 0
M  V30 10 N 1.845046 0.322878 -3.413473 0
M  V30 11 C 0.885616 0.760966 -2.575016 0
M  V30 12 N -0.369765 0.685710 -3.240566 0
M  V30 13 C -1.401099 -0.218106 -2.822060 0
M  V30 14 C -1.145938 -0.947486 -1.654407 0
M  V30 15 C -2.028957 -1.842690 -1.089508 0
M  V30 16 C -3.245568 -2.038656 -1.708111 0
M  V30 17 C -4.254729 -2.950184 -1.188074 0
M  V30 18 O -5.330863 -3.145979 -1.809221 0
M  V30 19 N -4.066240 -3.647404 0.031346 0
M  V30 20 C -4.947645 -4.571964 0.683263 0
M  V30 21 C -5.360971 -3.908726 1.998479 0
M  V30 22 C -4.821918 -4.677923 3.169002 0
M  V30 23 N -3.416435 -4.945480 3.072725 0
M  V30 24 C -2.560546 -3.852112 3.423564 0
M  V30 25 C -3.054067 -5.646271 1.875766 0
M  V30 26 C -4.220706 -5.864251 0.965360 0
M  V30 27 C -3.515665 -1.330228 -2.859090 0
M  V30 28 C -2.628854 -0.417943 -3.444943 0
M  V30 29 O -2.859317 0.300244 -4.581900 0
M  V30 30 C -4.027058 0.253730 -5.372282 0
M  V30 31 N 1.191789 1.169821 -1.310136 0
M  V30 32 C 2.501337 1.109858 -0.950458 0
M  V30 33 N 2.866744 1.518583 0.362719 0
M  V30 34 C 1.847037 1.378477 1.392762 0
M  V30 35 C 2.303438 1.765759 2.736274 0
M  V30 36 C 2.240936 3.000900 3.350339 0
M  V30 37 C 2.723476 3.198028 4.632509 0
M  V30 38 C 3.291078 2.128389 5.335273 0
M  V30 39 C 3.384872 0.860621 4.776364 0
M  V30 40 Br 4.149139 -0.592274 5.716461 0
M  V30 41 C 2.878987 0.743312 3.487036 0
M  V30 42 H 2.438005 4.011437 0.443771 0
M  V30 43 H 3.869809 4.775361 1.330960 0
M  V30 44 H 3.439633 5.260035 -0.326070 0
M  V30 45 H 4.135939 3.162393 -1.266674 0
M  V30 46 H 5.423046 3.657812 -0.060631 0
M  V30 47 H 4.433363 2.169810 1.651613 0
M  V30 48 H 6.858992 0.180423 -1.703397 0
M  V30 49 H 5.764598 -0.907664 -2.564023 0
M  V30 50 H 5.943749 0.721601 -3.204398 0
M  V30 51 H 3.948279 -0.090950 -3.727894 0
M  V30 52 H -0.589726 1.281278 -4.056911 0
M  V30 53 H -0.187455 -0.807639 -1.148641 0
M  V30 54 H -1.771330 -2.373308 -0.187143 0
M  V30 55 H -3.213362 -3.551013 0.613427 0
M  V30 56 H -5.871887 -4.758934 0.100406 0
M  V30 57 H -5.045297 -2.853157 2.061229 0
M  V30 58 H -6.484606 -3.931412 2.103636 0
M  V30 59 H -5.390748 -5.614926 3.238902 0
M  V30 60 H -4.969388 -4.056360 4.074909 0
M  V30 61 H -3.099922 -2.895342 3.222508 0
M  V30 62 H -2.264282 -3.865249 4.485889 0
M  V30 63 H -1.632487 -3.779303 2.813703 0
M  V30 64 H -2.213321 -5.187335 1.321263 0
M  V30 65 H -2.697657 -6.667492 2.176982 0
M  V30 66 H -3.812428 -6.240645 -0.011806 0
M  V30 67 H -4.889173 -6.645201 1.373614 0
M  V30 68 H -4.458676 -1.475582 -3.349081 0
M  V30 69 H -4.872671 -0.030129 -4.724527 0
M  V30 70 H -3.938218 -0.560036 -6.128681 0
M  V30 71 H -4.159326 1.244797 -5.843350 0
M  V30 72 H 0.979645 1.982043 1.050634 0
M  V30 73 H 1.488358 0.329774 1.397382 0
M  V30 74 H 1.787423 3.777022 2.741350 0
M  V30 75 H 2.654190 4.182968 5.076043 0
M  V30 76 H 3.677760 2.263224 6.351430 0
M  V30 77 H 2.973979 -0.266390 3.090409 0
M  V30 END ATOM
M  V30 BEGIN BOND
M  V30 1 1 1 2
M  V30 2 1 2 3
M  V30 3 1 3 4
M  V30 4 2 4 5
M  V30 5 1 4 6
M  V30 6 1 6 7
M  V30 7 1 6 8
M  V30 8 2 8 9
M  V30 9 1 9 10
M  V30 10 2 10 11
M  V30 11 1 11 12
M  V30 12 1 12 13
M  V30 13 2 13 14
M  V30 14 1 14 15
M  V30 15 2 15 16
M  V30 16 1 16 17
M  V30 17 2 17 18
M  V30 18 1 17 19
M  V30 19 1 19 20
M  V30 20 1 20 21
M  V30 21 1 21 22
M  V30 22 1 22 23
M  V30 23 1 23 24
M  V30 24 1 23 25
M  V30 25 1 25 26
M  V30 26 1 16 27
M  V30 27 2 27 28
M  V30 28 1 28 29
M  V30 29 1 29 30
M  V30 30 1 11 31
M  V30 31 2 31 32
M  V30 32 1 32 33
M  V30 33 1 33 34
M  V30 34 1 34 35
M  V30 35 2 35 36
M  V30 36 1 36 37
M  V30 37 2 37 38
M  V30 38 1 38 39
M  V30 39 1 39 40
M  V30 40 2 39 41
M  V30 41 1 33 3
M  V30 42 1 41 35
M  V30 43 1 32 8
M  V30 44 1 28 13
M  V30 45 1 26 20
M  V30 46 1 1 42
M  V30 47 1 1 43
M  V30 48 1 1 44
M  V30 49 1 2 45
M  V30 50 1 2 46
M  V30 51 1 3 47 CFG=1
M  V30 52 1 7 48
M  V30 53 1 7 49
M  V30 54 1 7 50
M  V30 55 1 9 51
M  V30 56 1 12 52
M  V30 57 1 14 53
M  V30 58 1 15 54
M  V30 59 1 19 55
M  V30 60 1 20 56
M  V30 61 1 21 57
M  V30 62 1 21 58
M  V30 63 1 22 59
M  V30 64 1 22 60
M  V30 65 1 24 61
M  V30 66 1 24 62
M  V30 67 1 24 63
M  V30 68 1 25 64
M  V30 69 1 25 65
M  V30 70 1 26 66
M  V30 71 1 26 67
M  V30 72 1 27 68
M  V30 73 1 30 69
M  V30 74 1 30 70
M  V30 75 1 30 71
M  V30 76 1 34 72
M  V30 77 1 34 73
M  V30 78 1 36 74
M  V30 79 1 37 75
M  V30 80 1 38 76
M  V30 81 1 41 77
M  V30 END BOND
M  V30 END CTAB
M  END
>  <Dataset>  (100) 
ChEMBL_Kinases

>  <Ligand_Instance>  (100) 
nan

>  <PDB_ID>  (100) 
nan

>  <Standardized_SMILES>  (100) 
CC[C@@H]1C(=O)N(C)c2cnc(Nc3ccc(C(=O)NC4CCN(C)CC4)cc3OC)nc2N1Cc1cccc(Br)c1

>  <Name>  (100) 
nan

>  <Pocket>  (100) 
nan

>  <ATP_Site>  (100) 
nan

>  <Peripheral>  (100) 
nan

>  <Num_H_Atoms_ProtBoundConf>  (100) 
nan

>  <Num_Resolved_Atoms>  (100) 
nan

>  <Num_Not_Resolved_Atoms>  (100) 
nan

$$$$
CHEMBL3609310
     RDKit          3D

  0  0  0  0  0  0  0  0  0  0999 V3000
M  V30 BEGIN CTAB
M  V30 COUNTS 77 81 0 0 0
M  V30 BEGIN ATOM
M  V30 1 C 7.687605 0.179003 3.751021 0
M  V30 2 C 7.239253 0.583057 2.337494 0
M  V30 3 C 5.878455 0.003652 2.171360 0 CFG=2
M  V30 4 C 5.847540 -1.471949 2.310241 0
M  V30 5 O 6.794579 -2.316276 2.479417 0
M  V30 6 N 4.535491 -2.079267 2.247388 0
M  V30 7 C 4.167228 -3.315908 2.954719 0
M  V30 8 C 3.555572 -1.407890 1.422457 0
M  V30 9 C 2.283832 -1.935321 1.327395 0
M  V30 10 N 1.461318 -1.251300 0.556538 0
M  V30 11 C 1.715111 -0.130507 -0.127709 0
M  V30 12 N 0.821146 0.609245 -0.944937 0
M  V30 13 C -0.563178 0.384496 -1.145365 0
M  V30 14 C -1.306229 1.092519 -2.071280 0
M  V30 15 C -2.651797 0.887861 -2.248863 0
M  V30 16 C -3.361435 -0.041985 -1.513175 0
M  V30 17 C -4.779374 -0.100297 -1.823794 0
M  V30 18 O -5.324586 0.582093 -2.692721 0
M  V30 19 N -5.706338 -0.944359 -1.173527 0
M  V30 20 C -7.115064 -1.117631 -1.368740 0
M  V30 21 C -7.536420 -2.546897 -1.555193 0
M  V30 22 C -8.963858 -2.678367 -1.077547 0
M  V30 23 N -8.943267 -2.588966 0.369511 0
M  V30 24 C -8.367235 -3.734281 1.006732 0
M  V30 25 C -8.366351 -1.341522 0.817795 0
M  V30 26 C -7.936751 -0.453133 -0.291428 0
M  V30 27 C -2.632343 -0.749056 -0.594927 0
M  V30 28 O -3.315171 -1.679265 0.145878 0
M  V30 29 C -2.764915 -2.509940 1.138791 0
M  V30 30 C -1.282285 -0.537100 -0.423125 0
M  V30 31 N 2.962155 0.318841 0.013015 0
M  V30 32 C 3.917172 -0.238130 0.743649 0
M  V30 33 N 5.259946 0.297333 0.866753 0
M  V30 34 C 5.754286 0.997780 -0.282887 0
M  V30 35 C 4.824841 1.117654 -1.435209 0
M  V30 36 C 5.796370 1.835813 -2.403288 0
M  V30 37 C 6.254858 2.973359 -1.480765 0
M  V30 38 C 6.268545 2.366317 -0.089613 0
M  V30 39 H 6.789605 0.219197 4.403145 0
M  V30 40 H 8.384060 0.972074 4.140821 0
M  V30 41 H 8.218977 -0.770533 3.749057 0
M  V30 42 H 7.080805 1.698781 2.452121 0
M  V30 43 H 7.978470 0.315331 1.586316 0
M  V30 44 H 5.249900 0.435317 2.974306 0
M  V30 45 H 5.132807 -3.757755 3.308583 0
M  V30 46 H 3.747818 -4.061697 2.247097 0
M  V30 47 H 3.480659 -3.144055 3.783905 0
M  V30 48 H 2.010149 -2.826937 1.845556 0
M  V30 49 H 1.198568 1.427069 -1.480184 0
M  V30 50 H -0.790831 1.826411 -2.662586 0
M  V30 51 H -3.127833 1.512941 -3.014047 0
M  V30 52 H -5.453371 -1.596488 -0.408993 0
M  V30 53 H -7.378855 -0.566077 -2.307329 0
M  V30 54 H -7.436145 -2.794666 -2.633528 0
M  V30 55 H -6.901771 -3.199674 -0.917986 0
M  V30 56 H -9.565555 -1.854932 -1.493040 0
M  V30 57 H -9.355695 -3.654463 -1.407621 0
M  V30 58 H -7.291738 -3.499457 1.214564 0
M  V30 59 H -8.887073 -4.056971 1.927818 0
M  V30 60 H -8.366794 -4.573078 0.278204 0
M  V30 61 H -9.200363 -0.804114 1.353164 0
M  V30 62 H -7.607607 -1.560403 1.588868 0
M  V30 63 H -7.322435 0.371795 0.137794 0
M  V30 64 H -8.854114 0.039283 -0.718094 0
M  V30 65 H -3.627939 -3.047385 1.618286 0
M  V30 66 H -2.176460 -1.990510 1.899146 0
M  V30 67 H -2.069440 -3.263390 0.665693 0
M  V30 68 H -0.837632 -1.161588 0.333420 0
M  V30 69 H 6.628848 0.375091 -0.650409 0
M  V30 70 H 4.049517 1.931246 -1.285637 0
M  V30 71 H 4.425245 0.199618 -1.853398 0
M  V30 72 H 5.228230 2.239704 -3.259404 0
M  V30 73 H 6.617823 1.165871 -2.676803 0
M  V30 74 H 5.542137 3.819973 -1.551705 0
M  V30 75 H 7.247835 3.292759 -1.837082 0
M  V30 76 H 7.339740 2.411301 0.222065 0
M  V30 77 H 5.653491 2.957744 0.617533 0
M  V30 END ATOM
M  V30 BEGIN BOND
M  V30 1 1 1 2
M  V30 2 1 2 3
M  V30 3 1 3 4
M  V30 4 2 4 5
M  V30 5 1 4 6
M  V30 6 1 6 7
M  V30 7 1 6 8
M  V30 8 2 8 9
M  V30 9 1 9 10
M  V30 10 2 10 11
M  V30 11 1 11 12
M  V30 12 1 12 13
M  V30 13 2 13 14
M  V30 14 1 14 15
M  V30 15 2 15 16
M  V30 16 1 16 17
M  V30 17 2 17 18
M  V30 18 1 17 19
M  V30 19 1 19 20
M  V30 20 1 20 21
M  V30 21 1 21 22
M  V30 22 1 22 23
M  V30 23 1 23 24
M  V30 24 1 23 25
M  V30 25 1 25 26
M  V30 26 1 16 27
M  V30 27 1 27 28
M  V30 28 1 28 29
M  V30 29 2 27 30
M  V30 30 1 11 31
M  V30 31 2 31 32
M  V30 32 1 32 33
M  V30 33 1 33 34
M  V30 34 1 34 35
M  V30 35 1 35 36
M  V30 36 1 36 37
M  V30 37 1 37 38
M  V30 38 1 33 3
M  V30 39 1 38 34
M  V30 40 1 32 8
M  V30 41 1 30 13
M  V30 42 1 26 20
M  V30 43 1 1 39
M  V30 44 1 1 40
M  V30 45 1 1 41
M  V30 46 1 2 42
M  V30 47 1 2 43
M  V30 48 1 3 44 CFG=1
M  V30 49 1 7 45
M  V30 50 1 7 46
M  V30 51 1 7 47
M  V30 52 1 9 48
M  V30 53 1 12 49
M  V30 54 1 14 50
M  V30 55 1 15 51
M  V30 56 1 19 52
M  V30 57 1 20 53
M  V30 58 1 21 54
M  V30 59 1 21 55
M  V30 60 1 22 56
M  V30 61 1 22 57
M  V30 62 1 24 58
M  V30 63 1 24 59
M  V30 64 1 24 60
M  V30 65 1 25 61
M  V30 66 1 25 62
M  V30 67 1 26 63
M  V30 68 1 26 64
M  V30 69 1 29 65
M  V30 70 1 29 66
M  V30 71 1 29 67
M  V30 72 1 30 68
M  V30 73 1 34 69
M  V30 74 1 35 70
M  V30 75 1 35 71
M  V30 76 1 36 72
M  V30 77 1 36 73
M  V30 78 1 37 74
M  V30 79 1 37 75
M  V30 80 1 38 76
M  V30 81 1 38 77
M  V30 END BOND
M  V30 END CTAB
M  END
>  <Dataset>  (101) 
ChEMBL_Kinases

>  <Ligand_Instance>  (101) 
nan

>  <PDB_ID>  (101) 
nan

>  <Standardized_SMILES>  (101) 
CC[C@@H]1C(=O)N(C)c2cnc(Nc3ccc(C(=O)NC4CCN(C)CC4)c(OC)c3)nc2N1C1CCCC1

>  <Name>  (101) 
nan

>  <Pocket>  (101) 
nan

>  <ATP_Site>  (101) 
nan

>  <Peripheral>  (101) 
nan

>  <Num_H_Atoms_ProtBoundConf>  (101) 
nan

>  <Num_Resolved_Atoms>  (101) 
nan

>  <Num_Not_Resolved_Atoms>  (101) 
nan

$$$$
CHEMBL361038
     RDKit          3D

  0  0  0  0  0  0  0  0  0  0999 V3000
M  V30 BEGIN CTAB
M  V30 COUNTS 50 54 0 0 0
M  V30 BEGIN ATOM
M  V30 1 C 0.857603 -1.661286 6.299905 0
M  V30 2 C 0.842067 -1.746059 4.809750 0
M  V30 3 C 1.542848 -0.782104 4.121555 0
M  V30 4 C 1.524602 -0.865440 2.747380 0
M  V30 5 C 0.850122 -1.849466 2.066726 0
M  V30 6 C 0.661778 -2.171861 0.720780 0
M  V30 7 C 1.277398 -1.340571 -0.309037 0
M  V30 8 C 2.203390 -1.880615 -1.174875 0
M  V30 9 C 2.761827 -1.061388 -2.131598 0
M  V30 10 N 2.411871 0.226712 -2.215789 0
M  V30 11 C 1.513547 0.779985 -1.387066 0
M  V30 12 N 1.187738 2.156393 -1.528417 0
M  V30 13 C 0.273035 2.931373 -0.768651 0
M  V30 14 C 0.095113 4.281799 -1.026575 0
M  V30 15 C -0.778315 5.068195 -0.317540 0
M  V30 16 C -1.533376 4.539494 0.703862 0
M  V30 17 Cl -2.633499 5.557919 1.587851 0
M  V30 18 C -1.400341 3.209521 1.004771 0
M  V30 19 C -2.205949 2.597370 2.108815 0
M  V30 20 F -1.922776 1.252162 2.243834 0
M  V30 21 F -3.529471 2.761992 1.722883 0
M  V30 22 F -2.036464 3.266541 3.300791 0
M  V30 23 C -0.510091 2.464562 0.262992 0
M  V30 24 N 1.002495 -0.044391 -0.483256 0
M  V30 25 C -0.134245 -3.299482 0.715031 0
M  V30 26 C -0.527110 -3.908783 -0.551014 0
M  V30 27 C -0.184940 -5.212386 -0.921272 0
M  V30 28 C -0.586626 -5.722152 -2.126177 0
M  V30 29 C -1.327173 -4.919093 -2.946515 0
M  V30 30 F -1.715799 -5.442978 -4.135968 0
M  V30 31 C -1.688720 -3.617700 -2.616108 0
M  V30 32 C -1.275174 -3.112043 -1.391327 0
M  V30 33 N -0.417684 -3.647674 1.998608 0
M  V30 34 N 0.182343 -2.764451 2.807311 0
M  V30 35 N 0.185854 -2.703949 4.132670 0
M  V30 36 H 0.425077 -2.581988 6.709869 0
M  V30 37 H 1.888224 -1.466429 6.659278 0
M  V30 38 H 0.219277 -0.815839 6.652742 0
M  V30 39 H 2.088786 0.011935 4.610235 0
M  V30 40 H 2.057515 -0.133402 2.191326 0
M  V30 41 H 2.446652 -2.927443 -1.058677 0
M  V30 42 H 3.487778 -1.468797 -2.816357 0
M  V30 43 H 1.680142 2.681596 -2.290645 0
M  V30 44 H 0.669845 4.752181 -1.827847 0
M  V30 45 H -0.858996 6.120633 -0.582310 0
M  V30 46 H -0.454993 1.436290 0.548949 0
M  V30 47 H 0.404024 -5.761590 -0.196692 0
M  V30 48 H -0.301632 -6.733156 -2.374405 0
M  V30 49 H -2.265552 -2.993683 -3.256302 0
M  V30 50 H -1.550501 -2.101893 -1.124228 0
M  V30 END ATOM
M  V30 BEGIN BOND
M  V30 1 1 1 2
M  V30 2 1 2 3
M  V30 3 2 3 4
M  V30 4 1 4 5
M  V30 5 2 5 6
M  V30 6 1 6 7
M  V30 7 2 7 8
M  V30 8 1 8 9
M  V30 9 2 9 10
M  V30 10 1 10 11
M  V30 11 1 11 12
M  V30 12 1 12 13
M  V30 13 2 13 14
M  V30 14 1 14 15
M  V30 15 2 15 16
M  V30 16 1 16 17
M  V30 17 1 16 18
M  V30 18 1 18 19
M  V30 19 1 19 20
M  V30 20 1 19 21
M  V30 21 1 19 22
M  V30 22 2 18 23
M  V30 23 2 11 24
M  V30 24 1 6 25
M  V30 25 1 25 26
M  V30 26 2 26 27
M  V30 27 1 27 28
M  V30 28 2 28 29
M  V30 29 1 29 30
M  V30 30 1 29 31
M  V30 31 2 31 32
M  V30 32 2 25 33
M  V30 33 1 33 34
M  V30 34 1 34 35
M  V30 35 2 35 2
M  V30 36 1 34 5
M  V30 37 1 24 7
M  V30 38 1 32 26
M  V30 39 1 23 13
M  V30 40 1 1 36
M  V30 41 1 1 37
M  V30 42 1 1 38
M  V30 43 1 3 39
M  V30 44 1 4 40
M  V30 45 1 8 41
M  V30 46 1 9 42
M  V30 47 1 12 43
M  V30 48 1 14 44
M  V30 49 1 15 45
M  V30 50 1 23 46
M  V30 51 1 27 47
M  V30 52 1 28 48
M  V30 53 1 31 49
M  V30 54 1 32 50
M  V30 END BOND
M  V30 END CTAB
M  END
>  <Dataset>  (102) 
ChEMBL_Kinases

>  <Ligand_Instance>  (102) 
nan

>  <PDB_ID>  (102) 
nan

>  <Standardized_SMILES>  (102) 
Cc1ccc2c(-c3ccnc(Nc4ccc(Cl)c(C(F)(F)F)c4)n3)c(-c3ccc(F)cc3)nn2n1

>  <Name>  (102) 
nan

>  <Pocket>  (102) 
nan

>  <ATP_Site>  (102) 
nan

>  <Peripheral>  (102) 
nan

>  <Num_H_Atoms_ProtBoundConf>  (102) 
nan

>  <Num_Resolved_Atoms>  (102) 
nan

>  <Num_Not_Resolved_Atoms>  (102) 
nan

$$$$
CHEMBL3609315
     RDKit          3D

  0  0  0  0  0  0  0  0  0  0999 V3000
M  V30 BEGIN CTAB
M  V30 COUNTS 76 80 0 0 0
M  V30 BEGIN ATOM
M  V30 1 C -1.843770 3.322912 4.959393 0
M  V30 2 C -2.120215 4.020594 3.643782 0
M  V30 3 C -0.888165 4.778620 3.158821 0 CFG=2
M  V30 4 C -1.300603 5.419626 1.854674 0
M  V30 5 O -1.465464 6.651016 1.591120 0
M  V30 6 N -1.535180 4.499040 0.773414 0
M  V30 7 C -2.434745 4.798724 -0.335286 0
M  V30 8 C -0.847708 3.244330 0.800879 0
M  V30 9 C -1.012066 2.285235 -0.191277 0
M  V30 10 N -0.322175 1.114081 -0.081066 0
M  V30 11 C 0.512279 0.840028 0.944013 0
M  V30 12 O 1.200874 -0.374440 1.024448 0
M  V30 13 C 1.055090 -1.356806 0.047352 0
M  V30 14 C 0.554110 -2.554934 0.525715 0
M  V30 15 C 0.380848 -3.578596 -0.384338 0
M  V30 16 C 0.665971 -3.500843 -1.721544 0
M  V30 17 C 0.470729 -4.571141 -2.690959 0
M  V30 18 O 0.836895 -4.432100 -3.886283 0
M  V30 19 N -0.130044 -5.770839 -2.302878 0
M  V30 20 C -0.427884 -6.969209 -3.090920 0
M  V30 21 C -1.926479 -7.063245 -3.299262 0
M  V30 22 C -2.619066 -7.723847 -2.140228 0
M  V30 23 N -2.022367 -8.953977 -1.741408 0
M  V30 24 C -1.980653 -9.181522 -0.330554 0
M  V30 25 C -0.848045 -9.320232 -2.458268 0
M  V30 26 C 0.160114 -8.217156 -2.538505 0
M  V30 27 C 1.163013 -2.287597 -2.150936 0
M  V30 28 C 1.365535 -1.210923 -1.299793 0
M  V30 29 O 1.859810 0.005131 -1.707962 0
M  V30 30 C 2.221188 0.320215 -3.020200 0
M  V30 31 N 0.690100 1.753268 1.918440 0
M  V30 32 C 0.020864 2.942869 1.852617 0
M  V30 33 N 0.221016 3.893118 2.899049 0
M  V30 34 C 1.415706 3.976628 3.647074 0
M  V30 35 C 1.942728 5.420338 3.506636 0
M  V30 36 C 2.437547 5.388311 2.090725 0
M  V30 37 C 2.975362 3.967354 1.877806 0
M  V30 38 C 2.622689 3.296826 3.153515 0
M  V30 39 H -1.889137 3.987907 5.838686 0
M  V30 40 H -0.906608 2.749327 4.874326 0
M  V30 41 H -2.647204 2.566242 5.090937 0
M  V30 42 H -2.929433 4.731280 3.815790 0
M  V30 43 H -2.433250 3.224782 2.936830 0
M  V30 44 H -0.720408 5.576273 3.868355 0
M  V30 45 H -3.044129 3.921645 -0.638877 0
M  V30 46 H -3.197346 5.527643 0.062139 0
M  V30 47 H -1.882760 5.256539 -1.181484 0
M  V30 48 H -1.670330 2.473963 -1.023667 0
M  V30 49 H 0.296451 -2.707482 1.585114 0
M  V30 50 H -0.017305 -4.527192 -0.008620 0
M  V30 51 H -0.465496 -5.990544 -1.352566 0
M  V30 52 H -0.006291 -6.784372 -4.103370 0
M  V30 53 H -2.318771 -6.027703 -3.382749 0
M  V30 54 H -2.097954 -7.667011 -4.204830 0
M  V30 55 H -3.651004 -7.977269 -2.511798 0
M  V30 56 H -2.802999 -7.028588 -1.281428 0
M  V30 57 H -1.808614 -10.221303 -0.045829 0
M  V30 58 H -2.959375 -8.825514 0.094559 0
M  V30 59 H -1.204902 -8.507633 0.113444 0
M  V30 60 H -0.429868 -10.229673 -1.971621 0
M  V30 61 H -1.129658 -9.640748 -3.484794 0
M  V30 62 H 1.009088 -8.624598 -3.162454 0
M  V30 63 H 0.648760 -8.060900 -1.531534 0
M  V30 64 H 1.437368 -2.071789 -3.186260 0
M  V30 65 H 2.631877 1.364660 -3.015784 0
M  V30 66 H 2.972618 -0.336993 -3.477278 0
M  V30 67 H 1.335622 0.296787 -3.693972 0
M  V30 68 H 1.301459 3.818096 4.736249 0
M  V30 69 H 1.211679 6.180324 3.722664 0
M  V30 70 H 2.813034 5.582031 4.187616 0
M  V30 71 H 1.659332 5.648670 1.346698 0
M  V30 72 H 3.267593 6.122018 1.999663 0
M  V30 73 H 2.605118 3.526694 0.956182 0
M  V30 74 H 4.098992 4.035071 1.771894 0
M  V30 75 H 2.659027 2.201083 3.171287 0
M  V30 76 H 3.449593 3.587595 3.876128 0
M  V30 END ATOM
M  V30 BEGIN BOND
M  V30 1 1 1 2
M  V30 2 1 2 3
M  V30 3 1 3 4
M  V30 4 2 4 5
M  V30 5 1 4 6
M  V30 6 1 6 7
M  V30 7 1 6 8
M  V30 8 2 8 9
M  V30 9 1 9 10
M  V30 10 2 10 11
M  V30 11 1 11 12
M  V30 12 1 12 13
M  V30 13 2 13 14
M  V30 14 1 14 15
M  V30 15 2 15 16
M  V30 16 1 16 17
M  V30 17 2 17 18
M  V30 18 1 17 19
M  V30 19 1 19 20
M  V30 20 1 20 21
M  V30 21 1 21 22
M  V30 22 1 22 23
M  V30 23 1 23 24
M  V30 24 1 23 25
M  V30 25 1 25 26
M  V30 26 1 16 27
M  V30 27 2 27 28
M  V30 28 1 28 29
M  V30 29 1 29 30
M  V30 30 1 11 31
M  V30 31 2 31 32
M  V30 32 1 32 33
M  V30 33 1 33 34
M  V30 34 1 34 35
M  V30 35 1 35 36
M  V30 36 1 36 37
M  V30 37 1 37 38
M  V30 38 1 33 3
M  V30 39 1 38 34
M  V30 40 1 32 8
M  V30 41 1 28 13
M  V30 42 1 26 20
M  V30 43 1 1 39
M  V30 44 1 1 40
M  V30 45 1 1 41
M  V30 46 1 2 42
M  V30 47 1 2 43
M  V30 48 1 3 44 CFG=1
M  V30 49 1 7 45
M  V30 50 1 7 46
M  V30 51 1 7 47
M  V30 52 1 9 48
M  V30 53 1 14 49
M  V30 54 1 15 50
M  V30 55 1 19 51
M  V30 56 1 20 52
M  V30 57 1 21 53
M  V30 58 1 21 54
M  V30 59 1 22 55
M  V30 60 1 22 56
M  V30 61 1 24 57
M  V30 62 1 24 58
M  V30 63 1 24 59
M  V30 64 1 25 60
M  V30 65 1 25 61
M  V30 66 1 26 62
M  V30 67 1 26 63
M  V30 68 1 27 64
M  V30 69 1 30 65
M  V30 70 1 30 66
M  V30 71 1 30 67
M  V30 72 1 34 68
M  V30 73 1 35 69
M  V30 74 1 35 70
M  V30 75 1 36 71
M  V30 76 1 36 72
M  V30 77 1 37 73
M  V30 78 1 37 74
M  V30 79 1 38 75
M  V30 80 1 38 76
M  V30 END BOND
M  V30 END CTAB
M  END
>  <Dataset>  (103) 
ChEMBL_Kinases

>  <Ligand_Instance>  (103) 
nan

>  <PDB_ID>  (103) 
nan

>  <Standardized_SMILES>  (103) 
CC[C@@H]1C(=O)N(C)c2cnc(Oc3ccc(C(=O)NC4CCN(C)CC4)cc3OC)nc2N1C1CCCC1

>  <Name>  (103) 
nan

>  <Pocket>  (103) 
nan

>  <ATP_Site>  (103) 
nan

>  <Peripheral>  (103) 
nan

>  <Num_H_Atoms_ProtBoundConf>  (103) 
nan

>  <Num_Resolved_Atoms>  (103) 
nan

>  <Num_Not_Resolved_Atoms>  (103) 
nan

$$$$
CHEMBL3609329
     RDKit          3D

  0  0  0  0  0  0  0  0  0  0999 V3000
M  V30 BEGIN CTAB
M  V30 COUNTS 45 48 0 0 0
M  V30 BEGIN ATOM
M  V30 1 C -1.014873 -5.531661 1.390350 0
M  V30 2 N -0.735370 -4.559862 0.379916 0
M  V30 3 C 0.509928 -3.861411 0.529553 0
M  V30 4 C 0.300811 -2.799106 1.614918 0
M  V30 5 N -0.627854 -1.846115 0.994132 0
M  V30 6 C -0.099392 -0.562137 0.678171 0
M  V30 7 N 0.181450 -0.330426 -0.581317 0
M  V30 8 C 0.713880 0.841788 -1.193779 0
M  V30 9 C 0.598289 0.875274 -2.567590 0
M  V30 10 C 1.070314 1.952147 -3.297762 0
M  V30 11 F 0.936474 1.945335 -4.650738 0
M  V30 12 C 1.680267 3.043163 -2.670775 0
M  V30 13 C 1.813701 3.045105 -1.296610 0
M  V30 14 C 1.323861 1.938694 -0.598152 0
M  V30 15 N 1.552035 2.117068 0.817073 0
M  V30 16 C 2.670048 2.956332 1.196868 0
M  V30 17 C 0.783743 1.546251 1.898819 0
M  V30 18 C 0.868655 2.342022 3.023233 0
M  V30 19 C 0.172429 1.893579 4.126054 0
M  V30 20 C -0.546503 0.720486 4.058365 0
M  V30 21 Cl -1.393439 0.253508 5.533407 0
M  V30 22 C -0.599992 -0.038101 2.912603 0
M  V30 23 C 0.076038 0.364502 1.786102 0
M  V30 24 C -1.927995 -2.462792 0.839889 0
M  V30 25 C -1.839121 -3.733624 0.001571 0
M  V30 26 H -1.732098 -6.274854 0.989485 0
M  V30 27 H -0.059945 -6.061876 1.599045 0
M  V30 28 H -1.434159 -5.139151 2.323925 0
M  V30 29 H 0.669935 -3.283378 -0.408532 0
M  V30 30 H 1.299354 -4.570843 0.767273 0
M  V30 31 H 1.246385 -2.331420 1.906197 0
M  V30 32 H -0.151162 -3.276036 2.484764 0
M  V30 33 H 0.120814 0.013374 -3.016980 0
M  V30 34 H 2.055847 3.894905 -3.225043 0
M  V30 35 H 2.277203 3.858560 -0.715352 0
M  V30 36 H 3.488366 2.739700 0.443660 0
M  V30 37 H 3.157005 2.528801 2.127226 0
M  V30 38 H 2.445266 4.010109 1.321746 0
M  V30 39 H 1.473998 3.260827 2.956624 0
M  V30 40 H 0.236812 2.524052 5.024943 0
M  V30 41 H -1.163106 -0.940982 2.886592 0
M  V30 42 H -2.688617 -1.820561 0.386150 0
M  V30 43 H -2.242848 -2.816042 1.848357 0
M  V30 44 H -1.858231 -3.489498 -1.084990 0
M  V30 45 H -2.779369 -4.308711 0.180751 0
M  V30 END ATOM
M  V30 BEGIN BOND
M  V30 1 1 1 2
M  V30 2 1 2 3
M  V30 3 1 3 4
M  V30 4 1 4 5
M  V30 5 1 5 6
M  V30 6 2 6 7
M  V30 7 1 7 8
M  V30 8 2 8 9
M  V30 9 1 9 10
M  V30 10 1 10 11
M  V30 11 2 10 12
M  V30 12 1 12 13
M  V30 13 2 13 14
M  V30 14 1 14 15
M  V30 15 1 15 16
M  V30 16 1 15 17
M  V30 17 2 17 18
M  V30 18 1 18 19
M  V30 19 2 19 20
M  V30 20 1 20 21
M  V30 21 1 20 22
M  V30 22 2 22 23
M  V30 23 1 5 24
M  V30 24 1 24 25
M  V30 25 1 25 2
M  V30 26 1 23 6
M  V30 27 1 14 8
M  V30 28 1 23 17
M  V30 29 1 1 26
M  V30 30 1 1 27
M  V30 31 1 1 28
M  V30 32 1 3 29
M  V30 33 1 3 30
M  V30 34 1 4 31
M  V30 35 1 4 32
M  V30 36 1 9 33
M  V30 37 1 12 34
M  V30 38 1 13 35
M  V30 39 1 16 36
M  V30 40 1 16 37
M  V30 41 1 16 38
M  V30 42 1 18 39
M  V30 43 1 19 40
M  V30 44 1 22 41
M  V30 45 1 24 42
M  V30 46 1 24 43
M  V30 47 1 25 44
M  V30 48 1 25 45
M  V30 END BOND
M  V30 END CTAB
M  END
>  <Dataset>  (104) 
ChEMBL_Kinases

>  <Ligand_Instance>  (104) 
nan

>  <PDB_ID>  (104) 
nan

>  <Standardized_SMILES>  (104) 
CN1CCN(C2=Nc3cc(F)ccc3N(C)c3ccc(Cl)cc32)CC1

>  <Name>  (104) 
nan

>  <Pocket>  (104) 
nan

>  <ATP_Site>  (104) 
nan

>  <Peripheral>  (104) 
nan

>  <Num_H_Atoms_ProtBoundConf>  (104) 
nan

>  <Num_Resolved_Atoms>  (104) 
nan

>  <Num_Not_Resolved_Atoms>  (104) 
nan

$$$$
CHEMBL3609330
     RDKit          3D

  0  0  0  0  0  0  0  0  0  0999 V3000
M  V30 BEGIN CTAB
M  V30 COUNTS 48 51 0 0 0
M  V30 BEGIN ATOM
M  V30 1 C 0.540757 -4.906378 -0.176159 0
M  V30 2 C -0.548250 -4.076841 -0.819941 0
M  V30 3 N -0.378375 -2.671546 -0.784052 0
M  V30 4 C 0.953153 -2.206032 -1.145976 0
M  V30 5 C 1.563044 -3.048778 -2.051531 0
M  V30 6 C 2.820337 -2.701635 -2.452869 0
M  V30 7 C 3.447298 -1.554060 -1.967863 0
M  V30 8 F 4.713808 -1.277757 -2.423963 0
M  V30 9 C 2.827529 -0.718689 -1.062155 0
M  V30 10 C 1.555861 -1.045506 -0.638928 0
M  V30 11 N 1.065859 -0.073392 0.310625 0
M  V30 12 C -0.173800 0.123475 0.685650 0
M  V30 13 N -0.464555 1.137783 1.641966 0
M  V30 14 C -0.269953 2.562597 1.330633 0
M  V30 15 C 0.535895 3.234812 2.419483 0
M  V30 16 N 1.128985 2.289915 3.330396 0
M  V30 17 C 1.740405 3.050108 4.405202 0
M  V30 18 C 0.219594 1.350499 3.907562 0
M  V30 19 C -0.967903 1.028520 3.006101 0
M  V30 20 C -1.362420 -0.588302 0.229379 0
M  V30 21 C -2.568878 0.054645 0.473223 0
M  V30 22 C -3.769864 -0.519707 0.068782 0
M  V30 23 Cl -5.275904 0.327011 0.397246 0
M  V30 24 C -3.817006 -1.751379 -0.591912 0
M  V30 25 C -2.643805 -2.420383 -0.852505 0
M  V30 26 C -1.480137 -1.798635 -0.424595 0
M  V30 27 H 0.862466 -5.750323 -0.825572 0
M  V30 28 H 0.197137 -5.453552 0.732925 0
M  V30 29 H 1.375728 -4.244671 0.130248 0
M  V30 30 H -0.804837 -4.552092 -1.772011 0
M  V30 31 H -1.528197 -4.303641 -0.267546 0
M  V30 32 H 0.984604 -3.907785 -2.357542 0
M  V30 33 H 3.302031 -3.369555 -3.169755 0
M  V30 34 H 3.335184 0.155315 -0.708246 0
M  V30 35 H -1.275516 3.029682 1.348292 0
M  V30 36 H 0.164524 2.711051 0.345143 0
M  V30 37 H -0.030102 3.998193 2.962096 0
M  V30 38 H 1.378514 3.768294 1.923802 0
M  V30 39 H 2.100926 2.350995 5.215306 0
M  V30 40 H 0.993340 3.709067 4.896133 0
M  V30 41 H 2.579897 3.645539 4.000973 0
M  V30 42 H 0.796117 0.413390 4.131121 0
M  V30 43 H -0.194591 1.670630 4.907296 0
M  V30 44 H -1.235117 -0.028843 3.250822 0
M  V30 45 H -1.772747 1.731223 3.222607 0
M  V30 46 H -2.523794 1.007001 0.984476 0
M  V30 47 H -4.737347 -2.192573 -0.902634 0
M  V30 48 H -2.615869 -3.354902 -1.367008 0
M  V30 END ATOM
M  V30 BEGIN BOND
M  V30 1 1 1 2
M  V30 2 1 2 3
M  V30 3 1 3 4
M  V30 4 2 4 5
M  V30 5 1 5 6
M  V30 6 2 6 7
M  V30 7 1 7 8
M  V30 8 1 7 9
M  V30 9 2 9 10
M  V30 10 1 10 11
M  V30 11 2 11 12
M  V30 12 1 12 13
M  V30 13 1 13 14
M  V30 14 1 14 15
M  V30 15 1 15 16
M  V30 16 1 16 17
M  V30 17 1 16 18
M  V30 18 1 18 19
M  V30 19 1 12 20
M  V30 20 2 20 21
M  V30 21 1 21 22
M  V30 22 1 22 23
M  V30 23 2 22 24
M  V30 24 1 24 25
M  V30 25 2 25 26
M  V30 26 1 26 3
M  V30 27 1 10 4
M  V30 28 1 19 13
M  V30 29 1 26 20
M  V30 30 1 1 27
M  V30 31 1 1 28
M  V30 32 1 1 29
M  V30 33 1 2 30
M  V30 34 1 2 31
M  V30 35 1 5 32
M  V30 36 1 6 33
M  V30 37 1 9 34
M  V30 38 1 14 35
M  V30 39 1 14 36
M  V30 40 1 15 37
M  V30 41 1 15 38
M  V30 42 1 17 39
M  V30 43 1 17 40
M  V30 44 1 17 41
M  V30 45 1 18 42
M  V30 46 1 18 43
M  V30 47 1 19 44
M  V30 48 1 19 45
M  V30 49 1 21 46
M  V30 50 1 24 47
M  V30 51 1 25 48
M  V30 END BOND
M  V30 END CTAB
M  END
>  <Dataset>  (105) 
ChEMBL_Kinases

>  <Ligand_Instance>  (105) 
nan

>  <PDB_ID>  (105) 
nan

>  <Standardized_SMILES>  (105) 
CCN1c2ccc(F)cc2N=C(N2CCN(C)CC2)c2cc(Cl)ccc21

>  <Name>  (105) 
nan

>  <Pocket>  (105) 
nan

>  <ATP_Site>  (105) 
nan

>  <Peripheral>  (105) 
nan

>  <Num_H_Atoms_ProtBoundConf>  (105) 
nan

>  <Num_Resolved_Atoms>  (105) 
nan

>  <Num_Not_Resolved_Atoms>  (105) 
nan

$$$$
CHEMBL3609370
     RDKit          3D

  0  0  0  0  0  0  0  0  0  0999 V3000
M  V30 BEGIN CTAB
M  V30 COUNTS 60 63 0 0 0
M  V30 BEGIN ATOM
M  V30 1 C 1.347172 -2.680291 4.776013 0
M  V30 2 C 2.518956 -2.911315 3.853723 0
M  V30 3 N 2.615420 -1.984690 2.749997 0
M  V30 4 C 2.471569 -0.585485 3.106792 0
M  V30 5 C 2.911106 -0.347356 4.386773 0
M  V30 6 C 2.831796 0.945013 4.849371 0
M  V30 7 C 2.323032 1.932636 4.023126 0
M  V30 8 F 2.284256 3.176874 4.567281 0
M  V30 9 C 1.883875 1.682868 2.739030 0
M  V30 10 C 1.951470 0.396091 2.250232 0
M  V30 11 N 1.449162 0.257953 0.914629 0
M  V30 12 C 1.607265 -0.673537 0.060621 0
M  V30 13 N 0.981836 -0.550855 -1.210238 0
M  V30 14 C 0.762599 0.798320 -1.749170 0 CFG=1
M  V30 15 C 0.240844 0.703207 -3.176099 0
M  V30 16 C -1.059045 1.508123 -3.108807 0
M  V30 17 N -1.562445 1.044365 -1.817430 0
M  V30 18 C -2.726811 0.413863 -1.299213 0
M  V30 19 O -2.893827 0.123927 -0.091906 0
M  V30 20 O -3.816132 0.044724 -2.068915 0
M  V30 21 C -4.960848 -0.581829 -1.524108 0
M  V30 22 C -5.664016 0.236260 -0.480955 0
M  V30 23 C -5.933993 -0.904330 -2.635005 0
M  V30 24 C -4.509602 -1.916990 -0.928004 0
M  V30 25 C -0.408469 1.423575 -0.987860 0
M  V30 26 C 2.400269 -1.878370 0.274817 0
M  V30 27 C 2.723560 -2.472722 -0.926077 0
M  V30 28 C 3.488337 -3.642141 -0.874693 0
M  V30 29 Cl 3.926023 -4.439256 -2.387025 0
M  V30 30 C 3.936828 -4.231174 0.314050 0
M  V30 31 C 3.612055 -3.632073 1.516008 0
M  V30 32 C 2.856878 -2.482082 1.430746 0
M  V30 33 H 0.599419 -3.506987 4.776526 0
M  V30 34 H 1.647070 -2.670391 5.846211 0
M  V30 35 H 0.868187 -1.705087 4.563788 0
M  V30 36 H 3.447631 -3.089874 4.411315 0
M  V30 37 H 2.367371 -3.974019 3.459713 0
M  V30 38 H 3.281092 -1.176732 4.936544 0
M  V30 39 H 3.180711 1.122734 5.859629 0
M  V30 40 H 1.491575 2.481256 2.120575 0
M  V30 41 H 0.716453 -1.459035 -1.652090 0
M  V30 42 H 1.612704 1.461609 -1.643171 0
M  V30 43 H 0.963225 1.154260 -3.869595 0
M  V30 44 H -0.009093 -0.339910 -3.416289 0
M  V30 45 H -0.830460 2.583071 -3.075864 0
M  V30 46 H -1.710839 1.208266 -3.953562 0
M  V30 47 H -5.656926 1.302740 -0.773850 0
M  V30 48 H -6.718864 -0.148672 -0.410644 0
M  V30 49 H -5.238252 0.091837 0.545104 0
M  V30 50 H -5.379193 -1.116943 -3.588251 0
M  V30 51 H -6.653213 -0.053109 -2.746146 0
M  V30 52 H -6.476956 -1.833793 -2.331400 0
M  V30 53 H -4.622956 -1.898563 0.175389 0
M  V30 54 H -5.113690 -2.768745 -1.300253 0
M  V30 55 H -3.442737 -2.110010 -1.147110 0
M  V30 56 H -0.536173 1.048130 0.022504 0
M  V30 57 H -0.317207 2.522400 -0.969807 0
M  V30 58 H 2.453213 -2.111432 -1.904901 0
M  V30 59 H 4.520868 -5.128835 0.302748 0
M  V30 60 H 3.924592 -4.002434 2.480056 0
M  V30 END ATOM
M  V30 BEGIN BOND
M  V30 1 1 1 2
M  V30 2 1 2 3
M  V30 3 1 3 4
M  V30 4 2 4 5
M  V30 5 1 5 6
M  V30 6 2 6 7
M  V30 7 1 7 8
M  V30 8 1 7 9
M  V30 9 2 9 10
M  V30 10 1 10 11
M  V30 11 2 11 12
M  V30 12 1 12 13
M  V30 13 1 13 14
M  V30 14 1 14 15
M  V30 15 1 15 16
M  V30 16 1 16 17
M  V30 17 1 17 18
M  V30 18 2 18 19
M  V30 19 1 18 20
M  V30 20 1 20 21
M  V30 21 1 21 22
M  V30 22 1 21 23
M  V30 23 1 21 24
M  V30 24 1 17 25
M  V30 25 1 12 26
M  V30 26 2 26 27
M  V30 27 1 27 28
M  V30 28 1 28 29
M  V30 29 2 28 30
M  V30 30 1 30 31
M  V30 31 2 31 32
M  V30 32 1 32 3
M  V30 33 1 10 4
M  V30 34 1 25 14
M  V30 35 1 32 26
M  V30 36 1 1 33
M  V30 37 1 1 34
M  V30 38 1 1 35
M  V30 39 1 2 36
M  V30 40 1 2 37
M  V30 41 1 5 38
M  V30 42 1 6 39
M  V30 43 1 9 40
M  V30 44 1 13 41
M  V30 45 1 14 42 CFG=3
M  V30 46 1 15 43
M  V30 47 1 15 44
M  V30 48 1 16 45
M  V30 49 1 16 46
M  V30 50 1 22 47
M  V30 51 1 22 48
M  V30 52 1 22 49
M  V30 53 1 23 50
M  V30 54 1 23 51
M  V30 55 1 23 52
M  V30 56 1 24 53
M  V30 57 1 24 54
M  V30 58 1 24 55
M  V30 59 1 25 56
M  V30 60 1 25 57
M  V30 61 1 27 58
M  V30 62 1 30 59
M  V30 63 1 31 60
M  V30 END BOND
M  V30 END CTAB
M  END
>  <Dataset>  (106) 
ChEMBL_Kinases

>  <Ligand_Instance>  (106) 
nan

>  <PDB_ID>  (106) 
nan

>  <Standardized_SMILES>  (106) 
CCN1c2ccc(F)cc2N=C(N[C@H]2CCN(C(=O)OC(C)(C)C)C2)c2cc(Cl)ccc21

>  <Name>  (106) 
nan

>  <Pocket>  (106) 
nan

>  <ATP_Site>  (106) 
nan

>  <Peripheral>  (106) 
nan

>  <Num_H_Atoms_ProtBoundConf>  (106) 
nan

>  <Num_Resolved_Atoms>  (106) 
nan

>  <Num_Not_Resolved_Atoms>  (106) 
nan

$$$$
CHEMBL3609662
     RDKit          3D

  0  0  0  0  0  0  0  0  0  0999 V3000
M  V30 BEGIN CTAB
M  V30 COUNTS 46 49 0 0 0
M  V30 BEGIN ATOM
M  V30 1 C -0.518561 -6.012454 -1.137295 0
M  V30 2 C 0.469895 -5.011778 -1.653926 0
M  V30 3 C 0.928199 -5.087079 -2.953523 0
M  V30 4 C 1.848869 -4.157779 -3.440144 0
M  V30 5 C 2.266755 -3.176626 -2.561488 0
M  V30 6 C 1.813109 -3.103695 -1.278253 0
M  V30 7 N 2.282928 -2.068579 -0.423993 0
M  V30 8 C 1.504926 -0.868338 -0.452174 0
M  V30 9 O 0.483433 -0.752082 -1.183561 0
M  V30 10 N 1.991144 0.170673 0.416575 0
M  V30 11 C 1.583464 1.491465 0.732051 0
M  V30 12 C 2.143742 2.444441 -0.093281 0
M  V30 13 C 1.850529 3.784431 0.081624 0
M  V30 14 C 0.987608 4.126751 1.099888 0
M  V30 15 C 0.451905 3.143250 1.899251 0
M  V30 16 C 0.716203 1.794543 1.761037 0
M  V30 17 C 0.013406 0.966452 2.742109 0 CFG=2
M  V30 18 C -0.911321 -0.067108 2.184646 0
M  V30 19 C -2.334683 0.032813 2.594078 0 CFG=2
M  V30 20 O -3.094929 0.691839 1.600444 0
M  V30 21 C -2.599769 0.590132 3.948851 0
M  V30 22 C -1.463043 1.383853 4.539840 0
M  V30 23 N -0.703128 1.992951 3.498794 0
M  V30 24 C -0.477670 3.319696 3.030327 0
M  V30 25 O -1.012984 4.313149 3.555253 0
M  V30 26 N 0.914373 -4.030638 -0.842114 0
M  V30 27 H -1.114052 -6.424265 -1.975890 0
M  V30 28 H -0.020046 -6.812559 -0.560810 0
M  V30 29 H -1.169594 -5.471058 -0.401873 0
M  V30 30 H 0.562399 -5.888218 -3.609171 0
M  V30 31 H 2.223142 -4.198820 -4.461211 0
M  V30 32 H 2.967632 -2.448870 -2.892012 0
M  V30 33 H 3.135125 -2.245488 0.148158 0
M  V30 34 H 2.839329 0.045966 1.009501 0
M  V30 35 H 2.825105 2.234579 -0.905646 0
M  V30 36 H 2.258064 4.560789 -0.530427 0
M  V30 37 H 0.742557 5.172194 1.256484 0
M  V30 38 H 0.715432 0.508396 3.466582 0
M  V30 39 H -0.865977 0.018808 1.079161 0
M  V30 40 H -0.491950 -1.069420 2.410041 0
M  V30 41 H -2.748797 -1.017190 2.578787 0
M  V30 42 H -2.914504 0.185399 0.747510 0
M  V30 43 H -2.887492 -0.217696 4.683732 0
M  V30 44 H -3.527333 1.227384 3.863394 0
M  V30 45 H -1.925483 2.187800 5.145465 0
M  V30 46 H -0.849659 0.695517 5.171107 0
M  V30 END ATOM
M  V30 BEGIN BOND
M  V30 1 1 1 2
M  V30 2 2 2 3
M  V30 3 1 3 4
M  V30 4 2 4 5
M  V30 5 1 5 6
M  V30 6 1 6 7
M  V30 7 1 7 8
M  V30 8 2 8 9
M  V30 9 1 8 10
M  V30 10 1 10 11
M  V30 11 2 11 12
M  V30 12 1 12 13
M  V30 13 2 13 14
M  V30 14 1 14 15
M  V30 15 2 15 16
M  V30 16 1 16 17
M  V30 17 1 17 18
M  V30 18 1 18 19
M  V30 19 1 19 20
M  V30 20 1 19 21
M  V30 21 1 21 22
M  V30 22 1 22 23
M  V30 23 1 23 24
M  V30 24 2 24 25
M  V30 25 2 6 26
M  V30 26 1 26 2
M  V30 27 1 16 11
M  V30 28 1 23 17
M  V30 29 1 24 15
M  V30 30 1 1 27
M  V30 31 1 1 28
M  V30 32 1 1 29
M  V30 33 1 3 30
M  V30 34 1 4 31
M  V30 35 1 5 32
M  V30 36 1 7 33
M  V30 37 1 10 34
M  V30 38 1 12 35
M  V30 39 1 13 36
M  V30 40 1 14 37
M  V30 41 1 17 38 CFG=1
M  V30 42 1 18 39
M  V30 43 1 18 40
M  V30 44 1 19 41 CFG=1
M  V30 45 1 20 42
M  V30 46 1 21 43
M  V30 47 1 21 44
M  V30 48 1 22 45
M  V30 49 1 22 46
M  V30 END BOND
M  V30 END CTAB
M  END
>  <Dataset>  (107) 
ChEMBL_Kinases

>  <Ligand_Instance>  (107) 
nan

>  <PDB_ID>  (107) 
nan

>  <Standardized_SMILES>  (107) 
Cc1cccc(NC(=O)Nc2cccc3c2[C@@H]2C[C@H](O)CCN2C3=O)n1

>  <Name>  (107) 
nan

>  <Pocket>  (107) 
nan

>  <ATP_Site>  (107) 
nan

>  <Peripheral>  (107) 
nan

>  <Num_H_Atoms_ProtBoundConf>  (107) 
nan

>  <Num_Resolved_Atoms>  (107) 
nan

>  <Num_Not_Resolved_Atoms>  (107) 
nan

$$$$
CHEMBL3609671
     RDKit          3D

  0  0  0  0  0  0  0  0  0  0999 V3000
M  V30 BEGIN CTAB
M  V30 COUNTS 46 49 0 0 0
M  V30 BEGIN ATOM
M  V30 1 C 2.376106 -1.676906 3.337000 0
M  V30 2 C 3.554401 -2.079076 2.543337 0
M  V30 3 C 4.381692 -3.152599 2.784236 0
M  V30 4 C 5.464719 -3.446166 1.977869 0
M  V30 5 C 5.701007 -2.603023 0.886639 0
M  V30 6 N 4.890553 -1.545580 0.644837 0
M  V30 7 C 3.829844 -1.277902 1.454612 0
M  V30 8 N 3.103067 -0.109109 1.015420 0
M  V30 9 C 2.071825 -0.415314 0.106971 0
M  V30 10 O 1.765341 -1.574205 -0.317995 0
M  V30 11 N 1.287653 0.668106 -0.392792 0
M  V30 12 C 0.191706 0.807983 -1.290626 0
M  V30 13 C 0.570915 0.996419 -2.604946 0
M  V30 14 C -0.431352 1.145851 -3.562045 0
M  V30 15 C -1.750139 1.099493 -3.158374 0
M  V30 16 C -2.079314 0.908936 -1.832512 0
M  V30 17 C -1.115281 0.756911 -0.855736 0
M  V30 18 C -1.752114 0.573269 0.440355 0 CFG=2
M  V30 19 C -1.536091 -0.742659 1.114125 0
M  V30 20 C -2.224175 -0.582843 2.477596 0 CFG=2
M  V30 21 O -2.006406 -1.695836 3.296316 0
M  V30 22 C -3.682998 -0.354247 2.394650 0
M  V30 23 C -4.147111 0.486461 1.250826 0
M  V30 24 N -3.199624 0.628179 0.188265 0
M  V30 25 C -3.402419 0.835117 -1.225016 0
M  V30 26 O -4.508056 0.925980 -1.770243 0
M  V30 27 H 2.323990 -2.300366 4.264522 0
M  V30 28 H 2.395646 -0.630335 3.671243 0
M  V30 29 H 1.479885 -1.860674 2.688584 0
M  V30 30 H 4.133012 -3.762890 3.653214 0
M  V30 31 H 6.098159 -4.295905 2.190369 0
M  V30 32 H 6.552963 -2.815790 0.234008 0
M  V30 33 H 3.361898 0.850482 1.371568 0
M  V30 34 H 1.462718 1.655851 -0.102776 0
M  V30 35 H 1.596744 1.035045 -2.936308 0
M  V30 36 H -0.193046 1.293726 -4.589921 0
M  V30 37 H -2.517815 1.217402 -3.914931 0
M  V30 38 H -1.545185 1.362020 1.186468 0
M  V30 39 H -1.978490 -1.585045 0.550664 0
M  V30 40 H -0.477230 -0.950391 1.368538 0
M  V30 41 H -1.655426 0.253762 2.952573 0
M  V30 42 H -1.764385 -1.456759 4.224745 0
M  V30 43 H -4.217363 -1.323752 2.472425 0
M  V30 44 H -3.975995 0.213946 3.325646 0
M  V30 45 H -5.052358 -0.025687 0.829346 0
M  V30 46 H -4.493176 1.501651 1.545154 0
M  V30 END ATOM
M  V30 BEGIN BOND
M  V30 1 1 1 2
M  V30 2 2 2 3
M  V30 3 1 3 4
M  V30 4 2 4 5
M  V30 5 1 5 6
M  V30 6 2 6 7
M  V30 7 1 7 8
M  V30 8 1 8 9
M  V30 9 2 9 10
M  V30 10 1 9 11
M  V30 11 1 11 12
M  V30 12 2 12 13
M  V30 13 1 13 14
M  V30 14 2 14 15
M  V30 15 1 15 16
M  V30 16 2 16 17
M  V30 17 1 17 18
M  V30 18 1 18 19
M  V30 19 1 19 20
M  V30 20 1 20 21
M  V30 21 1 20 22
M  V30 22 1 22 23
M  V30 23 1 23 24
M  V30 24 1 24 25
M  V30 25 2 25 26
M  V30 26 1 7 2
M  V30 27 1 17 12
M  V30 28 1 24 18
M  V30 29 1 25 16
M  V30 30 1 1 27
M  V30 31 1 1 28
M  V30 32 1 1 29
M  V30 33 1 3 30
M  V30 34 1 4 31
M  V30 35 1 5 32
M  V30 36 1 8 33
M  V30 37 1 11 34
M  V30 38 1 13 35
M  V30 39 1 14 36
M  V30 40 1 15 37
M  V30 41 1 18 38 CFG=1
M  V30 42 1 19 39
M  V30 43 1 19 40
M  V30 44 1 20 41 CFG=1
M  V30 45 1 21 42
M  V30 46 1 22 43
M  V30 47 1 22 44
M  V30 48 1 23 45
M  V30 49 1 23 46
M  V30 END BOND
M  V30 END CTAB
M  END
>  <Dataset>  (108) 
ChEMBL_Kinases

>  <Ligand_Instance>  (108) 
nan

>  <PDB_ID>  (108) 
nan

>  <Standardized_SMILES>  (108) 
Cc1cccnc1NC(=O)Nc1cccc2c1[C@@H]1C[C@H](O)CCN1C2=O

>  <Name>  (108) 
nan

>  <Pocket>  (108) 
nan

>  <ATP_Site>  (108) 
nan

>  <Peripheral>  (108) 
nan

>  <Num_H_Atoms_ProtBoundConf>  (108) 
nan

>  <Num_Resolved_Atoms>  (108) 
nan

>  <Num_Not_Resolved_Atoms>  (108) 
nan

$$$$
CHEMBL3609745
     RDKit          3D

  0  0  0  0  0  0  0  0  0  0999 V3000
M  V30 BEGIN CTAB
M  V30 COUNTS 48 52 0 0 0
M  V30 BEGIN ATOM
M  V30 1 O 2.257663 0.512206 0.188704 0
M  V30 2 C 1.406605 1.384408 0.481317 0
M  V30 3 N 1.095244 2.289360 -0.530532 0
M  V30 4 C 1.561106 2.423262 -1.858278 0
M  V30 5 C 2.492160 1.630419 -2.486668 0
M  V30 6 C 2.923434 1.783671 -3.771721 0
M  V30 7 C 2.388773 2.816434 -4.513621 0
M  V30 8 C 1.457585 3.599399 -3.866060 0
M  V30 9 Br 0.705296 5.040119 -4.886222 0
M  V30 10 N 1.064652 3.408915 -2.598133 0
M  V30 11 N 0.880477 1.329165 1.797515 0
M  V30 12 C 1.326704 0.319653 2.698757 0
M  V30 13 C 2.450706 0.728139 3.388639 0
M  V30 14 C 3.044182 -0.099306 4.319631 0
M  V30 15 C 2.493214 -1.342065 4.547903 0
M  V30 16 C 1.369455 -1.689883 3.825434 0
M  V30 17 C 0.726743 -0.901749 2.875919 0
M  V30 18 C -0.428727 -1.543934 2.299281 0
M  V30 19 C -0.533904 -1.703193 0.837056 0
M  V30 20 C -1.901636 -2.383438 0.647456 0
M  V30 21 C -1.757858 -3.767157 1.175380 0
M  V30 22 C -1.462699 -3.765737 2.651588 0
M  V30 23 N -0.420844 -2.834492 2.999123 0
M  V30 24 C 0.641052 -2.958842 3.926708 0
M  V30 25 O 0.862935 -3.955554 4.649195 0
M  V30 26 S -2.586928 -2.229372 -0.968559 0
M  V30 27 C -4.299764 -1.823557 -0.774890 0
M  V30 28 C -4.648111 -1.673585 0.662718 0
M  V30 29 S -3.153877 -1.465478 1.622285 0
M  V30 30 H 0.383646 2.952809 -0.160151 0
M  V30 31 H 2.937418 0.814173 -1.952518 0
M  V30 32 H 3.659979 1.130926 -4.220071 0
M  V30 33 H 2.712223 2.961169 -5.534298 0
M  V30 34 H 0.172670 2.056122 2.037856 0
M  V30 35 H 2.961263 1.676343 3.287647 0
M  V30 36 H 3.922989 0.165223 4.888791 0
M  V30 37 H 2.943252 -2.004516 5.272784 0
M  V30 38 H -1.372653 -1.046285 2.656936 0
M  V30 39 H 0.212828 -2.451483 0.499876 0
M  V30 40 H -0.496152 -0.744962 0.327658 0
M  V30 41 H -0.909305 -4.248606 0.633490 0
M  V30 42 H -2.657509 -4.346374 0.918632 0
M  V30 43 H -2.405827 -3.518405 3.180754 0
M  V30 44 H -1.210555 -4.811791 2.922437 0
M  V30 45 H -4.942460 -2.612627 -1.221833 0
M  V30 46 H -4.611095 -0.865627 -1.285837 0
M  V30 47 H -5.325875 -0.817942 0.863787 0
M  V30 48 H -5.184453 -2.583172 1.038862 0
M  V30 END ATOM
M  V30 BEGIN BOND
M  V30 1 2 1 2
M  V30 2 1 2 3
M  V30 3 1 3 4
M  V30 4 2 4 5
M  V30 5 1 5 6
M  V30 6 2 6 7
M  V30 7 1 7 8
M  V30 8 1 8 9
M  V30 9 2 8 10
M  V30 10 1 2 11
M  V30 11 1 11 12
M  V30 12 2 12 13
M  V30 13 1 13 14
M  V30 14 2 14 15
M  V30 15 1 15 16
M  V30 16 2 16 17
M  V30 17 1 17 18
M  V30 18 1 18 19
M  V30 19 1 19 20
M  V30 20 1 20 21
M  V30 21 1 21 22
M  V30 22 1 22 23
M  V30 23 1 23 24
M  V30 24 2 24 25
M  V30 25 1 20 26
M  V30 26 1 26 27
M  V30 27 1 27 28
M  V30 28 1 28 29
M  V30 29 1 10 4
M  V30 30 1 17 12
M  V30 31 1 23 18
M  V30 32 1 24 16
M  V30 33 1 29 20
M  V30 34 1 3 30
M  V30 35 1 5 31
M  V30 36 1 6 32
M  V30 37 1 7 33
M  V30 38 1 11 34
M  V30 39 1 13 35
M  V30 40 1 14 36
M  V30 41 1 15 37
M  V30 42 1 18 38
M  V30 43 1 19 39
M  V30 44 1 19 40
M  V30 45 1 21 41
M  V30 46 1 21 42
M  V30 47 1 22 43
M  V30 48 1 22 44
M  V30 49 1 27 45
M  V30 50 1 27 46
M  V30 51 1 28 47
M  V30 52 1 28 48
M  V30 END BOND
M  V30 END CTAB
M  END
>  <Dataset>  (109) 
ChEMBL_Kinases

>  <Ligand_Instance>  (109) 
nan

>  <PDB_ID>  (109) 
nan

>  <Standardized_SMILES>  (109) 
O=C(Nc1cccc(Br)n1)Nc1cccc2c1C1CC3(CCN1C2=O)SCCS3

>  <Name>  (109) 
nan

>  <Pocket>  (109) 
nan

>  <ATP_Site>  (109) 
nan

>  <Peripheral>  (109) 
nan

>  <Num_H_Atoms_ProtBoundConf>  (109) 
nan

>  <Num_Resolved_Atoms>  (109) 
nan

>  <Num_Not_Resolved_Atoms>  (109) 
nan

$$$$
CHEMBL361007
     RDKit          3D

  0  0  0  0  0  0  0  0  0  0999 V3000
M  V30 BEGIN CTAB
M  V30 COUNTS 60 66 0 0 0
M  V30 BEGIN ATOM
M  V30 1 O 2.079088 -3.069776 5.450943 0
M  V30 2 C 2.098818 -1.833617 5.247541 0
M  V30 3 N 2.687777 -0.855331 6.076066 0
M  V30 4 C 2.446351 0.386700 5.421100 0
M  V30 5 O 2.850538 1.481839 5.909588 0
M  V30 6 C 1.694631 0.155577 4.167170 0
M  V30 7 C 1.389424 1.296657 3.307379 0
M  V30 8 C 0.817719 2.509426 3.631875 0
M  V30 9 N 0.736413 3.274041 2.535371 0
M  V30 10 C 1.242979 2.590932 1.494683 0
M  V30 11 C 1.378847 2.969247 0.163328 0
M  V30 12 N 1.933269 2.102809 -0.707075 0
M  V30 13 C 2.351562 0.879872 -0.281140 0
M  V30 14 C 2.179885 0.582747 1.056811 0
M  V30 15 N 1.636430 1.393595 1.975363 0
M  V30 16 C 1.500990 -1.172306 4.091055 0
M  V30 17 C 0.734164 -1.750737 2.993501 0
M  V30 18 C 0.987926 -2.767856 2.099889 0
M  V30 19 N -0.036124 -2.973945 1.265611 0
M  V30 20 C -0.982455 -2.069410 1.624181 0
M  V30 21 C -2.261575 -1.860383 1.075102 0
M  V30 22 C -3.128742 -0.917507 1.538619 0
M  V30 23 C -2.686231 -0.150572 2.602099 0
M  V30 24 C -1.432809 -0.358240 3.134239 0
M  V30 25 C -0.533425 -1.300437 2.690057 0
M  V30 26 C -2.767784 -2.668301 -0.096263 0
M  V30 27 N -1.617394 -2.720911 -1.014981 0
M  V30 28 C -1.620323 -1.586626 -1.859661 0
M  V30 29 O -2.671820 -1.014224 -1.409476 0
M  V30 30 N -0.954007 -0.915321 -2.917954 0
M  V30 31 C 0.248194 -1.215149 -3.674297 0
M  V30 32 C -0.283292 -1.530226 -5.071474 0
M  V30 33 O -0.872284 -0.476399 -5.665683 0
M  V30 34 C -1.570742 0.400496 -4.903631 0
M  V30 35 C -1.504280 0.320398 -3.431901 0
M  V30 36 C -0.649981 -3.811391 -0.998002 0
M  V30 37 C 0.082041 -4.013846 0.268701 0
M  V30 38 H 3.176316 -1.102440 6.967254 0
M  V30 39 H 0.481877 2.806789 4.619237 0
M  V30 40 H 1.034885 3.954754 -0.138319 0
M  V30 41 H 2.807327 0.165012 -0.984866 0
M  V30 42 H 2.540361 -0.383637 1.323129 0
M  V30 43 H 1.971397 -3.254110 2.194606 0
M  V30 44 H -4.111425 -0.811825 1.062782 0
M  V30 45 H -3.341651 0.609158 3.005460 0
M  V30 46 H -1.171423 0.272504 3.963126 0
M  V30 47 H -2.958746 -3.712812 0.269044 0
M  V30 48 H -3.675204 -2.273878 -0.526663 0
M  V30 49 H 0.894144 -0.307515 -3.767598 0
M  V30 50 H 0.818108 -2.079801 -3.288113 0
M  V30 51 H -0.960031 -2.390038 -4.934953 0
M  V30 52 H 0.588957 -1.898785 -5.657651 0
M  V30 53 H -2.629277 0.377269 -5.233856 0
M  V30 54 H -1.215226 1.425001 -5.195862 0
M  V30 55 H -2.531517 0.466666 -2.987286 0
M  V30 56 H -0.913348 1.144766 -2.968912 0
M  V30 57 H 0.066732 -3.745011 -1.840295 0
M  V30 58 H -1.276317 -4.729387 -1.206072 0
M  V30 59 H -0.292172 -4.959675 0.772882 0
M  V30 60 H 1.149129 -4.229794 0.029064 0
M  V30 END ATOM
M  V30 BEGIN BOND
M  V30 1 2 1 2
M  V30 2 1 2 3
M  V30 3 1 3 4
M  V30 4 2 4 5
M  V30 5 1 4 6
M  V30 6 1 6 7
M  V30 7 2 7 8
M  V30 8 1 8 9
M  V30 9 2 9 10
M  V30 10 1 10 11
M  V30 11 2 11 12
M  V30 12 1 12 13
M  V30 13 2 13 14
M  V30 14 1 14 15
M  V30 15 2 6 16
M  V30 16 1 16 17
M  V30 17 2 17 18
M  V30 18 1 18 19
M  V30 19 1 19 20
M  V30 20 2 20 21
M  V30 21 1 21 22
M  V30 22 2 22 23
M  V30 23 1 23 24
M  V30 24 2 24 25
M  V30 25 1 21 26
M  V30 26 1 26 27
M  V30 27 1 27 28
M  V30 28 2 28 29
M  V30 29 1 28 30
M  V30 30 1 30 31
M  V30 31 1 31 32
M  V30 32 1 32 33
M  V30 33 1 33 34
M  V30 34 1 34 35
M  V30 35 1 27 36
M  V30 36 1 36 37
M  V30 37 1 16 2
M  V30 38 1 25 17
M  V30 39 1 35 30
M  V30 40 1 15 7
M  V30 41 1 37 19
M  V30 42 1 15 10
M  V30 43 1 25 20
M  V30 44 1 3 38
M  V30 45 1 8 39
M  V30 46 1 11 40
M  V30 47 1 13 41
M  V30 48 1 14 42
M  V30 49 1 18 43
M  V30 50 1 22 44
M  V30 51 1 23 45
M  V30 52 1 24 46
M  V30 53 1 26 47
M  V30 54 1 26 48
M  V30 55 1 31 49
M  V30 56 1 31 50
M  V30 57 1 32 51
M  V30 58 1 32 52
M  V30 59 1 34 53
M  V30 60 1 34 54
M  V30 61 1 35 55
M  V30 62 1 35 56
M  V30 63 1 36 57
M  V30 64 1 36 58
M  V30 65 1 37 59
M  V30 66 1 37 60
M  V30 END BOND
M  V30 END CTAB
M  END
>  <Dataset>  (110) 
ChEMBL_Kinases

>  <Ligand_Instance>  (110) 
nan

>  <PDB_ID>  (110) 
nan

>  <Standardized_SMILES>  (110) 
O=C1NC(=O)C(c2cnc3cnccn23)=C1c1cn2c3c(cccc13)CN(C(=O)N1CCOCC1)CC2

>  <Name>  (110) 
nan

>  <Pocket>  (110) 
nan

>  <ATP_Site>  (110) 
nan

>  <Peripheral>  (110) 
nan

>  <Num_H_Atoms_ProtBoundConf>  (110) 
nan

>  <Num_Resolved_Atoms>  (110) 
nan

>  <Num_Not_Resolved_Atoms>  (110) 
nan

$$$$
CHEMBL3609314
     RDKit          3D

  0  0  0  0  0  0  0  0  0  0999 V3000
M  V30 BEGIN CTAB
M  V30 COUNTS 87 92 0 0 0
M  V30 BEGIN ATOM
M  V30 1 C 3.216146 -0.697738 5.321985 0
M  V30 2 C 4.326375 -1.382574 4.574699 0
M  V30 3 C 4.015952 -1.746744 3.185424 0 CFG=2
M  V30 4 C 5.223600 -2.465216 2.572716 0
M  V30 5 O 6.361749 -2.531648 3.114802 0
M  V30 6 N 5.051392 -3.110859 1.291398 0
M  V30 7 C 5.785414 -4.317873 0.941990 0
M  V30 8 C 4.113157 -2.435241 0.427060 0
M  V30 9 C 3.911630 -3.023251 -0.797692 0
M  V30 10 N 3.029468 -2.393160 -1.597579 0
M  V30 11 C 2.403751 -1.253790 -1.178509 0
M  V30 12 N 1.492634 -0.719661 -2.128851 0
M  V30 13 C 0.052721 -0.645660 -2.023480 0
M  V30 14 C -0.375780 -1.101684 -0.768808 0
M  V30 15 C -1.721721 -1.081567 -0.467670 0
M  V30 16 C -2.624572 -0.615464 -1.401471 0
M  V30 17 C -4.087135 -0.494484 -1.277756 0
M  V30 18 O -4.902073 -0.157370 -2.160852 0
M  V30 19 N -4.700533 -0.783571 -0.021457 0
M  V30 20 C -6.149881 -0.672485 0.127957 0
M  V30 21 C -6.391545 0.461835 1.111612 0
M  V30 22 C -6.451950 -0.102061 2.496308 0
M  V30 23 N -5.561327 -1.230222 2.681098 0
M  V30 24 C -5.370428 -1.472152 4.093261 0
M  V30 25 C -6.128155 -2.351027 1.966426 0
M  V30 26 C -6.787953 -1.898314 0.707840 0
M  V30 27 C -2.183841 -0.172726 -2.628764 0
M  V30 28 C -0.855257 -0.170067 -2.982231 0
M  V30 29 O -0.136700 0.197291 -4.098165 0
M  V30 30 C -0.739024 0.718018 -5.247080 0
M  V30 31 C -0.662886 -0.271548 -6.403479 0
M  V30 32 C 0.418888 0.267097 -7.310792 0
M  V30 33 C 0.173693 1.775122 -7.222184 0
M  V30 34 C -0.111568 1.982309 -5.754309 0
M  V30 35 N 2.627392 -0.712801 0.021819 0
M  V30 36 C 3.494398 -1.265957 0.901556 0
M  V30 37 N 3.752613 -0.700002 2.222498 0
M  V30 38 C 3.661595 0.726807 2.207798 0
M  V30 39 C 2.429615 1.325350 2.827655 0
M  V30 40 C 2.181503 2.638808 2.090921 0
M  V30 41 C 2.756393 2.371088 0.724152 0
M  V30 42 C 3.940823 1.464586 0.984782 0
M  V30 43 H 3.576531 0.344185 5.571408 0
M  V30 44 H 2.242999 -0.714820 4.831041 0
M  V30 45 H 3.063671 -1.147473 6.341564 0
M  V30 46 H 4.490410 -2.362353 5.121161 0
M  V30 47 H 5.288549 -0.856185 4.732853 0
M  V30 48 H 3.235288 -2.525949 3.241504 0
M  V30 49 H 5.190249 -5.229228 0.962893 0
M  V30 50 H 6.285419 -4.195668 -0.037587 0
M  V30 51 H 6.600386 -4.411878 1.688091 0
M  V30 52 H 4.420425 -3.908189 -1.080209 0
M  V30 53 H 1.989077 -0.354169 -2.979910 0
M  V30 54 H 0.254289 -1.476827 0.003772 0
M  V30 55 H -2.171725 -1.405420 0.460017 0
M  V30 56 H -4.140186 -1.074979 0.806258 0
M  V30 57 H -6.632587 -0.438594 -0.848010 0
M  V30 58 H -5.564989 1.202341 0.975014 0
M  V30 59 H -7.382188 0.897090 0.831083 0
M  V30 60 H -6.169655 0.718302 3.216285 0
M  V30 61 H -7.491833 -0.447253 2.710974 0
M  V30 62 H -4.386557 -1.047090 4.385187 0
M  V30 63 H -5.379015 -2.561980 4.287884 0
M  V30 64 H -6.221642 -1.006590 4.661847 0
M  V30 65 H -5.380206 -3.157855 1.774342 0
M  V30 66 H -6.852711 -2.825777 2.685591 0
M  V30 67 H -6.914048 -2.711848 -0.040489 0
M  V30 68 H -7.839385 -1.603778 0.959697 0
M  V30 69 H -2.787163 0.203771 -3.418187 0
M  V30 70 H -1.825823 0.839900 -5.051526 0
M  V30 71 H -1.607077 -0.364247 -6.940514 0
M  V30 72 H -0.307644 -1.266310 -6.048241 0
M  V30 73 H 0.233782 -0.089925 -8.352504 0
M  V30 74 H 1.435273 0.040521 -6.973502 0
M  V30 75 H 1.079780 2.294482 -7.584172 0
M  V30 76 H -0.731101 1.992374 -7.794939 0
M  V30 77 H 0.857060 2.208609 -5.250848 0
M  V30 78 H -0.810578 2.833796 -5.662803 0
M  V30 79 H 4.496360 1.035157 2.939401 0
M  V30 80 H 2.554565 1.644106 3.888048 0
M  V30 81 H 1.549189 0.672556 2.793121 0
M  V30 82 H 1.122418 2.907403 2.107747 0
M  V30 83 H 2.767113 3.460915 2.580404 0
M  V30 84 H 1.948889 1.933370 0.127623 0
M  V30 85 H 3.077111 3.347540 0.244642 0
M  V30 86 H 4.297077 0.917569 0.092422 0
M  V30 87 H 4.782818 2.226323 1.110980 0
M  V30 END ATOM
M  V30 BEGIN BOND
M  V30 1 1 1 2
M  V30 2 1 2 3
M  V30 3 1 3 4
M  V30 4 2 4 5
M  V30 5 1 4 6
M  V30 6 1 6 7
M  V30 7 1 6 8
M  V30 8 2 8 9
M  V30 9 1 9 10
M  V30 10 2 10 11
M  V30 11 1 11 12
M  V30 12 1 12 13
M  V30 13 2 13 14
M  V30 14 1 14 15
M  V30 15 2 15 16
M  V30 16 1 16 17
M  V30 17 2 17 18
M  V30 18 1 17 19
M  V30 19 1 19 20
M  V30 20 1 20 21
M  V30 21 1 21 22
M  V30 22 1 22 23
M  V30 23 1 23 24
M  V30 24 1 23 25
M  V30 25 1 25 26
M  V30 26 1 16 27
M  V30 27 2 27 28
M  V30 28 1 28 29
M  V30 29 1 29 30
M  V30 30 1 30 31
M  V30 31 1 31 32
M  V30 32 1 32 33
M  V30 33 1 33 34
M  V30 34 1 11 35
M  V30 35 2 35 36
M  V30 36 1 36 37
M  V30 37 1 37 38
M  V30 38 1 38 39
M  V30 39 1 39 40
M  V30 40 1 40 41
M  V30 41 1 41 42
M  V30 42 1 37 3
M  V30 43 1 42 38
M  V30 44 1 36 8
M  V30 45 1 28 13
M  V30 46 1 34 30
M  V30 47 1 26 20
M  V30 48 1 1 43
M  V30 49 1 1 44
M  V30 50 1 1 45
M  V30 51 1 2 46
M  V30 52 1 2 47
M  V30 53 1 3 48 CFG=1
M  V30 54 1 7 49
M  V30 55 1 7 50
M  V30 56 1 7 51
M  V30 57 1 9 52
M  V30 58 1 12 53
M  V30 59 1 14 54
M  V30 60 1 15 55
M  V30 61 1 19 56
M  V30 62 1 20 57
M  V30 63 1 21 58
M  V30 64 1 21 59
M  V30 65 1 22 60
M  V30 66 1 22 61
M  V30 67 1 24 62
M  V30 68 1 24 63
M  V30 69 1 24 64
M  V30 70 1 25 65
M  V30 71 1 25 66
M  V30 72 1 26 67
M  V30 73 1 26 68
M  V30 74 1 27 69
M  V30 75 1 30 70
M  V30 76 1 31 71
M  V30 77 1 31 72
M  V30 78 1 32 73
M  V30 79 1 32 74
M  V30 80 1 33 75
M  V30 81 1 33 76
M  V30 82 1 34 77
M  V30 83 1 34 78
M  V30 84 1 38 79
M  V30 85 1 39 80
M  V30 86 1 39 81
M  V30 87 1 40 82
M  V30 88 1 40 83
M  V30 89 1 41 84
M  V30 90 1 41 85
M  V30 91 1 42 86
M  V30 92 1 42 87
M  V30 END BOND
M  V30 END CTAB
M  END
>  <Dataset>  (111) 
ChEMBL_Kinases

>  <Ligand_Instance>  (111) 
nan

>  <PDB_ID>  (111) 
nan

>  <Standardized_SMILES>  (111) 
CC[C@@H]1C(=O)N(C)c2cnc(Nc3ccc(C(=O)NC4CCN(C)CC4)cc3OC3CCCC3)nc2N1C1CCCC1

>  <Name>  (111) 
nan

>  <Pocket>  (111) 
nan

>  <ATP_Site>  (111) 
nan

>  <Peripheral>  (111) 
nan

>  <Num_H_Atoms_ProtBoundConf>  (111) 
nan

>  <Num_Resolved_Atoms>  (111) 
nan

>  <Num_Not_Resolved_Atoms>  (111) 
nan

$$$$
CHEMBL3598137
     RDKit          3D

  0  0  0  0  0  0  0  0  0  0999 V3000
M  V30 BEGIN CTAB
M  V30 COUNTS 47 49 0 0 0
M  V30 BEGIN ATOM
M  V30 1 C 1.935811 -2.347952 3.699279 0
M  V30 2 C 1.071384 -1.266026 4.257910 0
M  V30 3 N 0.582661 -0.352263 3.220803 0
M  V30 4 C -0.290879 0.628896 3.885814 0
M  V30 5 C -0.844482 1.659457 2.970362 0
M  V30 6 C 0.800880 -0.239411 1.798214 0
M  V30 7 C -0.306347 -0.633620 1.040883 0
M  V30 8 C -0.133703 -0.560603 -0.324357 0
M  V30 9 C 1.025206 -0.137463 -0.960188 0
M  V30 10 C 2.076631 0.236807 -0.145253 0
M  V30 11 C 1.980644 0.191724 1.229646 0
M  V30 12 N 3.070509 0.600507 2.037224 0
M  V30 13 C 4.250808 0.070991 2.607070 0
M  V30 14 C 4.994939 1.111479 3.400268 0
M  V30 15 O 4.650353 -1.110679 2.483722 0
M  V30 16 N 0.867276 -0.188497 -2.378473 0
M  V30 17 C -0.442461 -0.662240 -2.666820 0
M  V30 18 O -0.909349 -0.823830 -3.818751 0
M  V30 19 C -1.091321 -0.903844 -1.387863 0
M  V30 20 C -2.327774 -1.324173 -1.307423 0
M  V30 21 C -3.268700 -1.664823 -2.344334 0
M  V30 22 C -3.294107 -2.418244 -3.484979 0
M  V30 23 C -4.517659 -2.344256 -4.108660 0
M  V30 24 C -5.293487 -1.514049 -3.330843 0
M  V30 25 N -4.526965 -1.128454 -2.295103 0
M  V30 26 H 2.914048 -2.421315 4.193613 0
M  V30 27 H 2.067483 -2.145803 2.607313 0
M  V30 28 H 1.392675 -3.333603 3.744034 0
M  V30 29 H 1.551421 -0.716241 5.080361 0
M  V30 30 H 0.153941 -1.723654 4.714201 0
M  V30 31 H -1.113248 0.043394 4.324573 0
M  V30 32 H 0.317773 1.155387 4.652434 0
M  V30 33 H -1.945171 1.548915 2.902215 0
M  V30 34 H -0.707515 2.704102 3.385504 0
M  V30 35 H -0.467271 1.623143 1.922171 0
M  V30 36 H -1.234837 -0.971985 1.474680 0
M  V30 37 H 3.008058 0.578797 -0.586558 0
M  V30 38 H 2.736344 1.604469 2.140703 0
M  V30 39 H 4.361798 1.412981 4.285725 0
M  V30 40 H 5.958637 0.719456 3.732310 0
M  V30 41 H 5.074321 2.026474 2.768719 0
M  V30 42 H 1.570546 0.071669 -3.101017 0
M  V30 43 H -2.678767 -1.424307 -0.266054 0
M  V30 44 H -2.443134 -2.990979 -3.806966 0
M  V30 45 H -4.726515 -2.870690 -5.020936 0
M  V30 46 H -6.317182 -1.240368 -3.537462 0
M  V30 47 H -4.943186 -0.473547 -1.566119 0
M  V30 END ATOM
M  V30 BEGIN BOND
M  V30 1 1 1 2
M  V30 2 1 2 3
M  V30 3 1 3 4
M  V30 4 1 4 5
M  V30 5 1 3 6
M  V30 6 2 6 7
M  V30 7 1 7 8
M  V30 8 2 8 9
M  V30 9 1 9 10
M  V30 10 2 10 11
M  V30 11 1 11 12
M  V30 12 1 12 13
M  V30 13 1 13 14
M  V30 14 2 13 15
M  V30 15 1 9 16
M  V30 16 1 16 17
M  V30 17 2 17 18
M  V30 18 1 17 19
M  V30 19 2 19 20
M  V30 20 1 20 21
M  V30 21 2 21 22
M  V30 22 1 22 23
M  V30 23 2 23 24
M  V30 24 1 24 25
M  V30 25 1 11 6
M  V30 26 1 25 21
M  V30 27 1 19 8
M  V30 28 1 1 26
M  V30 29 1 1 27
M  V30 30 1 1 28
M  V30 31 1 2 29
M  V30 32 1 2 30
M  V30 33 1 4 31
M  V30 34 1 4 32
M  V30 35 1 5 33
M  V30 36 1 5 34
M  V30 37 1 5 35
M  V30 38 1 7 36
M  V30 39 1 10 37
M  V30 40 1 12 38
M  V30 41 1 14 39
M  V30 42 1 14 40
M  V30 43 1 14 41
M  V30 44 1 16 42
M  V30 45 1 20 43
M  V30 46 1 22 44
M  V30 47 1 23 45
M  V30 48 1 24 46
M  V30 49 1 25 47
M  V30 END BOND
M  V30 END CTAB
M  END
>  <Dataset>  (112) 
ChEMBL_Kinases

>  <Ligand_Instance>  (112) 
nan

>  <PDB_ID>  (112) 
nan

>  <Standardized_SMILES>  (112) 
CCN(CC)c1cc2c(cc1NC(C)=O)NC(=O)/C2=C\c1ccc[nH]1

>  <Name>  (112) 
nan

>  <Pocket>  (112) 
nan

>  <ATP_Site>  (112) 
nan

>  <Peripheral>  (112) 
nan

>  <Num_H_Atoms_ProtBoundConf>  (112) 
nan

>  <Num_Resolved_Atoms>  (112) 
nan

>  <Num_Not_Resolved_Atoms>  (112) 
nan

$$$$
CHEMBL3598119
     RDKit          3D

  0  0  0  0  0  0  0  0  0  0999 V3000
M  V30 BEGIN CTAB
M  V30 COUNTS 60 65 0 0 0
M  V30 BEGIN ATOM
M  V30 1 O 1.036208 -0.393043 3.280379 0
M  V30 2 C 0.269355 0.458253 3.833898 0
M  V30 3 N 0.423797 0.719450 5.224917 0
M  V30 4 C 1.430742 0.031317 6.000508 0
M  V30 5 C 2.733360 0.431567 6.217600 0
M  V30 6 C 3.544071 -0.380456 6.995802 0
M  V30 7 C 3.098503 -1.562418 7.555012 0
M  V30 8 F 3.944356 -2.322887 8.314499 0
M  V30 9 C 1.795708 -1.971408 7.343287 0
M  V30 10 C 0.996815 -1.156989 6.567808 0
M  V30 11 N -0.693425 1.080866 2.981642 0
M  V30 12 C -0.567895 0.583965 1.653515 0
M  V30 13 C 0.319247 1.319930 0.899251 0
M  V30 14 C 0.555737 0.940343 -0.413741 0
M  V30 15 C -0.125221 -0.164501 -0.878106 0
M  V30 16 C -1.006304 -0.876245 -0.092992 0
M  V30 17 C -1.256857 -0.518194 1.211913 0
M  V30 18 N -2.197607 -1.260519 1.967980 0
M  V30 19 C -2.647071 -2.588625 1.558316 0
M  V30 20 C -4.158566 -2.565689 1.575261 0
M  V30 21 O -4.604908 -1.237262 1.524523 0
M  V30 22 C -4.329666 -0.569361 2.715543 0
M  V30 23 C -2.922929 -0.960994 3.177721 0
M  V30 24 C 0.337372 -0.290885 -2.260233 0
M  V30 25 C 0.021575 -1.204040 -3.141444 0
M  V30 26 C 0.440485 -1.376528 -4.517885 0
M  V30 27 C 0.931814 -2.630525 -4.900487 0
M  V30 28 C 1.338245 -2.953625 -6.177417 0
M  V30 29 C 1.264822 -1.990843 -7.163853 0
M  V30 30 C 0.787235 -0.741428 -6.835465 0
M  V30 31 C 0.393376 -0.467144 -5.547606 0
M  V30 32 O 0.829726 -0.003835 -8.006631 0
M  V30 33 C 1.602624 -0.683388 -8.983982 0
M  V30 34 O 1.590479 -2.006570 -8.513015 0
M  V30 35 C 1.291218 0.760201 -2.567964 0
M  V30 36 O 1.912464 0.999983 -3.622059 0
M  V30 37 N 1.415539 1.527356 -1.390384 0
M  V30 38 H -0.256372 1.439196 5.584915 0
M  V30 39 H 3.004620 1.358144 5.752302 0
M  V30 40 H 4.571614 -0.039564 7.152018 0
M  V30 41 H 1.408777 -2.898223 7.768875 0
M  V30 42 H -0.027820 -1.523994 6.427560 0
M  V30 43 H -1.329452 1.794398 3.419381 0
M  V30 44 H 0.851632 2.189562 1.272639 0
M  V30 45 H -1.438013 -1.694197 -0.632584 0
M  V30 46 H -2.239196 -2.937009 0.612821 0
M  V30 47 H -2.358670 -3.301824 2.381112 0
M  V30 48 H -4.608112 -3.120981 0.719469 0
M  V30 49 H -4.548098 -2.960048 2.554842 0
M  V30 50 H -5.058392 -0.712643 3.510102 0
M  V30 51 H -4.269380 0.517602 2.465750 0
M  V30 52 H -2.985934 -1.869046 3.844270 0
M  V30 53 H -2.492598 -0.187891 3.817796 0
M  V30 54 H -0.668638 -1.983174 -2.828471 0
M  V30 55 H 0.999432 -3.402659 -4.147208 0
M  V30 56 H 1.708181 -3.943303 -6.404252 0
M  V30 57 H 0.009076 0.509964 -5.355270 0
M  V30 58 H 1.198672 -0.576640 -10.007266 0
M  V30 59 H 2.667905 -0.339528 -8.958931 0
M  V30 60 H 2.023013 2.361067 -1.271113 0
M  V30 END ATOM
M  V30 BEGIN BOND
M  V30 1 2 1 2
M  V30 2 1 2 3
M  V30 3 1 3 4
M  V30 4 2 4 5
M  V30 5 1 5 6
M  V30 6 2 6 7
M  V30 7 1 7 8
M  V30 8 1 7 9
M  V30 9 2 9 10
M  V30 10 1 2 11
M  V30 11 1 11 12
M  V30 12 2 12 13
M  V30 13 1 13 14
M  V30 14 2 14 15
M  V30 15 1 15 16
M  V30 16 2 16 17
M  V30 17 1 17 18
M  V30 18 1 18 19
M  V30 19 1 19 20
M  V30 20 1 20 21
M  V30 21 1 21 22
M  V30 22 1 22 23
M  V30 23 1 15 24
M  V30 24 2 24 25
M  V30 25 1 25 26
M  V30 26 2 26 27
M  V30 27 1 27 28
M  V30 28 2 28 29
M  V30 29 1 29 30
M  V30 30 2 30 31
M  V30 31 1 30 32
M  V30 32 1 32 33
M  V30 33 1 33 34
M  V30 34 1 24 35
M  V30 35 2 35 36
M  V30 36 1 35 37
M  V30 37 1 10 4
M  V30 38 1 17 12
M  V30 39 1 23 18
M  V30 40 1 31 26
M  V30 41 1 37 14
M  V30 42 1 34 29
M  V30 43 1 3 38
M  V30 44 1 5 39
M  V30 45 1 6 40
M  V30 46 1 9 41
M  V30 47 1 10 42
M  V30 48 1 11 43
M  V30 49 1 13 44
M  V30 50 1 16 45
M  V30 51 1 19 46
M  V30 52 1 19 47
M  V30 53 1 20 48
M  V30 54 1 20 49
M  V30 55 1 22 50
M  V30 56 1 22 51
M  V30 57 1 23 52
M  V30 58 1 23 53
M  V30 59 1 25 54
M  V30 60 1 27 55
M  V30 61 1 28 56
M  V30 62 1 31 57
M  V30 63 1 33 58
M  V30 64 1 33 59
M  V30 65 1 37 60
M  V30 END BOND
M  V30 END CTAB
M  END
>  <Dataset>  (113) 
ChEMBL_Kinases

>  <Ligand_Instance>  (113) 
nan

>  <PDB_ID>  (113) 
nan

>  <Standardized_SMILES>  (113) 
O=C(Nc1ccc(F)cc1)Nc1cc2c(cc1N1CCOCC1)/C(=C/c1ccc3c(c1)OCO3)C(=O)N2

>  <Name>  (113) 
nan

>  <Pocket>  (113) 
nan

>  <ATP_Site>  (113) 
nan

>  <Peripheral>  (113) 
nan

>  <Num_H_Atoms_ProtBoundConf>  (113) 
nan

>  <Num_Resolved_Atoms>  (113) 
nan

>  <Num_Not_Resolved_Atoms>  (113) 
nan

$$$$
CHEMBL3598118
     RDKit          3D

  0  0  0  0  0  0  0  0  0  0999 V3000
M  V30 BEGIN CTAB
M  V30 COUNTS 55 59 0 0 0
M  V30 BEGIN ATOM
M  V30 1 O 1.921970 -0.022522 1.780598 0
M  V30 2 C 1.426354 0.921048 2.481194 0
M  V30 3 N 2.166083 1.262798 3.648045 0
M  V30 4 C 3.386228 0.554478 3.960699 0
M  V30 5 C 3.307579 -0.586868 4.736949 0
M  V30 6 C 4.501300 -1.241458 5.014184 0
M  V30 7 C 5.711255 -0.745103 4.517443 0
M  V30 8 F 6.892342 -1.365963 4.773243 0
M  V30 9 C 5.761998 0.397772 3.743910 0
M  V30 10 C 4.575874 1.051066 3.466456 0
M  V30 11 N 0.212501 1.489129 1.993420 0
M  V30 12 C -0.189614 0.830116 0.768778 0
M  V30 13 C 0.264169 1.355129 -0.422637 0
M  V30 14 C -0.109359 0.715267 -1.583629 0
M  V30 15 C -0.907368 -0.402900 -1.498918 0
M  V30 16 C -1.378121 -0.953706 -0.330782 0
M  V30 17 C -1.001120 -0.308723 0.829365 0
M  V30 18 N -1.427357 -0.778325 2.107761 0
M  V30 19 C -2.224394 0.161650 2.873243 0
M  V30 20 C -3.631393 -0.426358 2.944180 0
M  V30 21 O -3.541402 -1.755347 3.264786 0
M  V30 22 C -2.350715 -2.144011 3.825506 0
M  V30 23 C -1.220289 -2.029396 2.814317 0
M  V30 24 C -1.126925 -0.852953 -2.867529 0
M  V30 25 C -1.821621 -1.841496 -3.397295 0
M  V30 26 C -2.015037 -2.263330 -4.766558 0
M  V30 27 C -3.285838 -2.538976 -5.275386 0
M  V30 28 C -3.169692 -2.944984 -6.581367 0
M  V30 29 C -1.817107 -2.926389 -6.901484 0
M  V30 30 N -1.204624 -2.515761 -5.782484 0
M  V30 31 C -0.415910 0.063460 -3.741875 0
M  V30 32 O -0.310557 0.088287 -4.989976 0
M  V30 33 N 0.214256 1.036150 -2.928708 0
M  V30 34 H 1.720115 2.051408 4.205241 0
M  V30 35 H 2.391289 -0.997360 5.137714 0
M  V30 36 H 4.596697 -2.143712 5.606653 0
M  V30 37 H 6.689030 0.786620 3.356811 0
M  V30 38 H 4.572532 1.963335 2.854526 0
M  V30 39 H -0.125483 2.262236 2.622973 0
M  V30 40 H 0.885789 2.236659 -0.401418 0
M  V30 41 H -2.002899 -1.835928 -0.325881 0
M  V30 42 H -2.241476 1.183700 2.449227 0
M  V30 43 H -1.859145 0.246204 3.917142 0
M  V30 44 H -4.269250 0.145300 3.645447 0
M  V30 45 H -4.049237 -0.341679 1.908488 0
M  V30 46 H -2.459073 -3.231737 4.065174 0
M  V30 47 H -2.120983 -1.587977 4.774690 0
M  V30 48 H -1.357687 -2.903872 2.127113 0
M  V30 49 H -0.245714 -2.084888 3.339773 0
M  V30 50 H -2.343823 -2.448635 -2.649347 0
M  V30 51 H -4.285296 -2.490526 -4.843891 0
M  V30 52 H -3.954318 -3.242624 -7.296677 0
M  V30 53 H -1.422519 -3.193143 -7.849739 0
M  V30 54 H -0.171582 -2.437540 -5.780457 0
M  V30 55 H 0.804650 1.841447 -3.231765 0
M  V30 END ATOM
M  V30 BEGIN BOND
M  V30 1 2 1 2
M  V30 2 1 2 3
M  V30 3 1 3 4
M  V30 4 2 4 5
M  V30 5 1 5 6
M  V30 6 2 6 7
M  V30 7 1 7 8
M  V30 8 1 7 9
M  V30 9 2 9 10
M  V30 10 1 2 11
M  V30 11 1 11 12
M  V30 12 2 12 13
M  V30 13 1 13 14
M  V30 14 2 14 15
M  V30 15 1 15 16
M  V30 16 2 16 17
M  V30 17 1 17 18
M  V30 18 1 18 19
M  V30 19 1 19 20
M  V30 20 1 20 21
M  V30 21 1 21 22
M  V30 22 1 22 23
M  V30 23 1 15 24
M  V30 24 2 24 25
M  V30 25 1 25 26
M  V30 26 2 26 27
M  V30 27 1 27 28
M  V30 28 2 28 29
M  V30 29 1 29 30
M  V30 30 1 24 31
M  V30 31 2 31 32
M  V30 32 1 31 33
M  V30 33 1 10 4
M  V30 34 1 17 12
M  V30 35 1 23 18
M  V30 36 1 30 26
M  V30 37 1 33 14
M  V30 38 1 3 34
M  V30 39 1 5 35
M  V30 40 1 6 36
M  V30 41 1 9 37
M  V30 42 1 10 38
M  V30 43 1 11 39
M  V30 44 1 13 40
M  V30 45 1 16 41
M  V30 46 1 19 42
M  V30 47 1 19 43
M  V30 48 1 20 44
M  V30 49 1 20 45
M  V30 50 1 22 46
M  V30 51 1 22 47
M  V30 52 1 23 48
M  V30 53 1 23 49
M  V30 54 1 25 50
M  V30 55 1 27 51
M  V30 56 1 28 52
M  V30 57 1 29 53
M  V30 58 1 30 54
M  V30 59 1 33 55
M  V30 END BOND
M  V30 END CTAB
M  END
>  <Dataset>  (114) 
ChEMBL_Kinases

>  <Ligand_Instance>  (114) 
nan

>  <PDB_ID>  (114) 
nan

>  <Standardized_SMILES>  (114) 
O=C(Nc1ccc(F)cc1)Nc1cc2c(cc1N1CCOCC1)/C(=C/c1ccc[nH]1)C(=O)N2

>  <Name>  (114) 
nan

>  <Pocket>  (114) 
nan

>  <ATP_Site>  (114) 
nan

>  <Peripheral>  (114) 
nan

>  <Num_H_Atoms_ProtBoundConf>  (114) 
nan

>  <Num_Resolved_Atoms>  (114) 
nan

>  <Num_Not_Resolved_Atoms>  (114) 
nan

$$$$
CHEMBL359806
     RDKit          3D

  0  0  0  0  0  0  0  0  0  0999 V3000
M  V30 BEGIN CTAB
M  V30 COUNTS 49 52 0 0 0
M  V30 BEGIN ATOM
M  V30 1 C 0.198464 -4.811793 1.256526 0
M  V30 2 O 0.956631 -4.707089 0.074933 0
M  V30 3 C 1.612623 -3.566161 -0.339737 0
M  V30 4 C 2.340601 -3.536648 -1.510273 0
M  V30 5 C 3.012683 -2.400492 -1.951421 0
M  V30 6 C 2.964733 -1.224357 -1.195518 0
M  V30 7 O 3.601135 -0.046465 -1.556075 0
M  V30 8 C 4.366815 0.085108 -2.732247 0
M  V30 9 C 2.251522 -1.194457 -0.015711 0
M  V30 10 C 2.112102 -0.034643 0.900818 0
M  V30 11 N 1.220689 0.998984 0.360088 0
M  V30 12 C 1.072501 1.944137 1.442571 0
M  V30 13 N 1.790504 2.908988 1.993481 0
M  V30 14 N 1.087549 3.449500 2.995654 0
M  V30 15 C -0.099412 2.824501 3.090633 0
M  V30 16 C -1.137489 3.051702 3.969002 0
M  V30 17 C -2.297605 2.308010 3.914625 0
M  V30 18 C -2.358315 1.334362 2.941083 0
M  V30 19 C -1.340892 1.078871 2.046507 0
M  V30 20 O -1.376853 0.110653 1.059051 0
M  V30 21 C -2.502606 -0.675416 0.897925 0
M  V30 22 C -3.393400 -0.169777 -0.022469 0
M  V30 23 C -4.577044 -0.816865 -0.318677 0
M  V30 24 C -4.867227 -1.997240 0.326472 0
M  V30 25 C -3.965841 -2.492429 1.246657 0
M  V30 26 C -2.775731 -1.876094 1.568671 0
M  V30 27 C -0.160477 1.834702 2.101447 0
M  V30 28 C 1.603116 -2.379956 0.358318 0
M  V30 29 H 0.851260 -5.024032 2.143859 0
M  V30 30 H -0.508326 -5.686859 1.187010 0
M  V30 31 H -0.326263 -3.872405 1.457266 0
M  V30 32 H 2.393619 -4.428886 -2.110940 0
M  V30 33 H 3.580938 -2.387705 -2.871048 0
M  V30 34 H 4.683076 1.149863 -2.847464 0
M  V30 35 H 3.800822 -0.183701 -3.661633 0
M  V30 36 H 5.306553 -0.494474 -2.718820 0
M  V30 37 H 3.145018 0.382772 1.026632 0
M  V30 38 H 1.820187 -0.400430 1.884036 0
M  V30 39 H 0.788745 1.035520 -0.605320 0
M  V30 40 H 2.723347 3.041642 1.547175 0
M  V30 41 H -1.079479 3.827544 4.740929 0
M  V30 42 H -3.160493 2.412385 4.558867 0
M  V30 43 H -3.239326 0.698818 2.826498 0
M  V30 44 H -3.247175 0.755615 -0.581150 0
M  V30 45 H -5.282026 -0.426702 -1.042732 0
M  V30 46 H -5.795126 -2.491088 0.082621 0
M  V30 47 H -4.190482 -3.430756 1.763470 0
M  V30 48 H -2.040988 -2.209138 2.268325 0
M  V30 49 H 1.030244 -2.375071 1.295684 0
M  V30 END ATOM
M  V30 BEGIN BOND
M  V30 1 1 1 2
M  V30 2 1 2 3
M  V30 3 2 3 4
M  V30 4 1 4 5
M  V30 5 2 5 6
M  V30 6 1 6 7
M  V30 7 1 7 8
M  V30 8 1 6 9
M  V30 9 1 9 10
M  V30 10 1 10 11
M  V30 11 1 11 12
M  V30 12 1 12 13
M  V30 13 1 13 14
M  V30 14 2 14 15
M  V30 15 1 15 16
M  V30 16 2 16 17
M  V30 17 1 17 18
M  V30 18 2 18 19
M  V30 19 1 19 20
M  V30 20 1 20 21
M  V30 21 2 21 22
M  V30 22 1 22 23
M  V30 23 2 23 24
M  V30 24 1 24 25
M  V30 25 2 25 26
M  V30 26 1 19 27
M  V30 27 2 9 28
M  V30 28 1 28 3
M  V30 29 2 27 12
M  V30 30 1 27 15
M  V30 31 1 26 21
M  V30 32 1 1 29
M  V30 33 1 1 30
M  V30 34 1 1 31
M  V30 35 1 4 32
M  V30 36 1 5 33
M  V30 37 1 8 34
M  V30 38 1 8 35
M  V30 39 1 8 36
M  V30 40 1 10 37
M  V30 41 1 10 38
M  V30 42 1 11 39
M  V30 43 1 13 40
M  V30 44 1 16 41
M  V30 45 1 17 42
M  V30 46 1 18 43
M  V30 47 1 22 44
M  V30 48 1 23 45
M  V30 49 1 24 46
M  V30 50 1 25 47
M  V30 51 1 26 48
M  V30 52 1 28 49
M  V30 END BOND
M  V30 END CTAB
M  END
>  <Dataset>  (115) 
ChEMBL_Kinases

>  <Ligand_Instance>  (115) 
nan

>  <PDB_ID>  (115) 
nan

>  <Standardized_SMILES>  (115) 
COc1ccc(OC)c(CNc2[nH]nc3cccc(Oc4ccccc4)c23)c1

>  <Name>  (115) 
nan

>  <Pocket>  (115) 
nan

>  <ATP_Site>  (115) 
nan

>  <Peripheral>  (115) 
nan

>  <Num_H_Atoms_ProtBoundConf>  (115) 
nan

>  <Num_Resolved_Atoms>  (115) 
nan

>  <Num_Not_Resolved_Atoms>  (115) 
nan

$$$$
CHEMBL359797
     RDKit          3D

  0  0  0  0  0  0  0  0  0  0999 V3000
M  V30 BEGIN CTAB
M  V30 COUNTS 75 79 0 0 0
M  V30 BEGIN ATOM
M  V30 1 C 3.688940 -4.977433 3.638186 0
M  V30 2 C 2.670210 -4.541345 2.626702 0
M  V30 3 C 2.492616 -5.288652 1.481197 0
M  V30 4 C 1.556507 -4.889341 0.545310 0
M  V30 5 C 0.804602 -3.766025 0.737542 0
M  V30 6 N -0.178882 -3.250111 -0.141567 0
M  V30 7 C -1.570633 -3.361662 -0.384766 0
M  V30 8 O -2.194148 -4.141698 0.369390 0
M  V30 9 C -2.144938 -2.580396 -1.461449 0
M  V30 10 C -1.430005 -1.745466 -2.281451 0
M  V30 11 C -2.029841 -1.022821 -3.280665 0
M  V30 12 N -3.355877 -1.175903 -3.414023 0
M  V30 13 C -4.109956 -1.981165 -2.638664 0
M  V30 14 N -5.508942 -2.059171 -2.869107 0
M  V30 15 C -6.413978 -2.930673 -2.165353 0
M  V30 16 C -7.818499 -2.378454 -2.166819 0
M  V30 17 O -8.269173 -1.975270 -3.390385 0
M  V30 18 C -7.330868 -1.938274 -4.390275 0
M  V30 19 C -6.108491 -1.208663 -3.878834 0
M  V30 20 C -3.499771 -2.717135 -1.621392 0
M  V30 21 C 1.043497 -3.062285 1.924400 0
M  V30 22 C 1.960335 -3.394493 2.910065 0
M  V30 23 N 2.105836 -2.592828 4.073148 0
M  V30 24 C 1.265162 -1.452508 4.177772 0
M  V30 25 C 0.080533 -1.668397 4.864250 0
M  V30 26 C -0.847649 -0.646698 5.040885 0
M  V30 27 N -0.551847 0.559826 4.519692 0
M  V30 28 C 0.593146 0.785440 3.850815 0
M  V30 29 N 0.903334 2.056318 3.294135 0
M  V30 30 C 2.123503 2.348888 2.567613 0
M  V30 31 C 2.139158 3.793304 2.071017 0
M  V30 32 C 3.410133 4.089205 1.317617 0
M  V30 33 N 3.621781 3.266798 0.167902 0
M  V30 34 C 2.705888 3.485848 -0.912256 0
M  V30 35 C 3.226154 2.845935 -2.182006 0
M  V30 36 O 4.207456 1.903456 -1.798493 0
M  V30 37 C 5.344029 2.661525 -1.475084 0
M  V30 38 C 4.970857 3.543621 -0.310997 0
M  V30 39 N 1.465126 -0.213565 3.697064 0
M  V30 40 H 4.252252 -4.092664 4.043959 0
M  V30 41 H 3.213090 -5.575735 4.433590 0
M  V30 42 H 4.462588 -5.553067 3.069803 0
M  V30 43 H 3.075220 -6.182090 1.304674 0
M  V30 44 H 1.360437 -5.420346 -0.373079 0
M  V30 45 H 0.501276 -2.657685 -0.663551 0
M  V30 46 H -0.370078 -1.635918 -2.160016 0
M  V30 47 H -1.435767 -0.373631 -3.909715 0
M  V30 48 H -6.383449 -3.978609 -2.519555 0
M  V30 49 H -6.100507 -2.953543 -1.091629 0
M  V30 50 H -7.899347 -1.534975 -1.425265 0
M  V30 51 H -8.502452 -3.160816 -1.776911 0
M  V30 52 H -7.051152 -2.948977 -4.728465 0
M  V30 53 H -7.740714 -1.322285 -5.221425 0
M  V30 54 H -5.359566 -1.035003 -4.668696 0
M  V30 55 H -6.416850 -0.268626 -3.355666 0
M  V30 56 H -4.102255 -3.352313 -1.011567 0
M  V30 57 H 0.442801 -2.154011 2.090881 0
M  V30 58 H 2.809784 -2.866500 4.791974 0
M  V30 59 H -0.235174 -2.607951 5.314493 0
M  V30 60 H -1.782976 -0.777283 5.571172 0
M  V30 61 H 0.205551 2.821932 3.420322 0
M  V30 62 H 2.214807 1.719625 1.646311 0
M  V30 63 H 2.989687 2.195200 3.237582 0
M  V30 64 H 1.234107 3.946049 1.486539 0
M  V30 65 H 2.103729 4.486944 2.936098 0
M  V30 66 H 4.266198 3.880244 2.011832 0
M  V30 67 H 3.453646 5.170018 1.072817 0
M  V30 68 H 1.705870 3.002368 -0.734020 0
M  V30 69 H 2.570063 4.587031 -1.031894 0
M  V30 70 H 2.452810 2.268818 -2.730529 0
M  V30 71 H 3.678787 3.607420 -2.851636 0
M  V30 72 H 5.608112 3.243045 -2.383794 0
M  V30 73 H 6.200444 2.000664 -1.245882 0
M  V30 74 H 5.019887 4.599784 -0.678520 0
M  V30 75 H 5.699952 3.462042 0.519499 0
M  V30 END ATOM
M  V30 BEGIN BOND
M  V30 1 1 1 2
M  V30 2 2 2 3
M  V30 3 1 3 4
M  V30 4 2 4 5
M  V30 5 1 5 6
M  V30 6 1 6 7
M  V30 7 2 7 8
M  V30 8 1 7 9
M  V30 9 2 9 10
M  V30 10 1 10 11
M  V30 11 2 11 12
M  V30 12 1 12 13
M  V30 13 1 13 14
M  V30 14 1 14 15
M  V30 15 1 15 16
M  V30 16 1 16 17
M  V30 17 1 17 18
M  V30 18 1 18 19
M  V30 19 2 13 20
M  V30 20 1 5 21
M  V30 21 2 21 22
M  V30 22 1 22 23
M  V30 23 1 23 24
M  V30 24 2 24 25
M  V30 25 1 25 26
M  V30 26 2 26 27
M  V30 27 1 27 28
M  V30 28 1 28 29
M  V30 29 1 29 30
M  V30 30 1 30 31
M  V30 31 1 31 32
M  V30 32 1 32 33
M  V30 33 1 33 34
M  V30 34 1 34 35
M  V30 35 1 35 36
M  V30 36 1 36 37
M  V30 37 1 37 38
M  V30 38 2 28 39
M  V30 39 1 22 2
M  V30 40 1 39 24
M  V30 41 1 20 9
M  V30 42 1 38 33
M  V30 43 1 19 14
M  V30 44 1 1 40
M  V30 45 1 1 41
M  V30 46 1 1 42
M  V30 47 1 3 43
M  V30 48 1 4 44
M  V30 49 1 6 45
M  V30 50 1 10 46
M  V30 51 1 11 47
M  V30 52 1 15 48
M  V30 53 1 15 49
M  V30 54 1 16 50
M  V30 55 1 16 51
M  V30 56 1 18 52
M  V30 57 1 18 53
M  V30 58 1 19 54
M  V30 59 1 19 55
M  V30 60 1 20 56
M  V30 61 1 21 57
M  V30 62 1 23 58
M  V30 63 1 25 59
M  V30 64 1 26 60
M  V30 65 1 29 61
M  V30 66 1 30 62
M  V30 67 1 30 63
M  V30 68 1 31 64
M  V30 69 1 31 65
M  V30 70 1 32 66
M  V30 71 1 32 67
M  V30 72 1 34 68
M  V30 73 1 34 69
M  V30 74 1 35 70
M  V30 75 1 35 71
M  V30 76 1 37 72
M  V30 77 1 37 73
M  V30 78 1 38 74
M  V30 79 1 38 75
M  V30 END BOND
M  V30 END CTAB
M  END
>  <Dataset>  (116) 
ChEMBL_Kinases

>  <Ligand_Instance>  (116) 
nan

>  <PDB_ID>  (116) 
nan

>  <Standardized_SMILES>  (116) 
Cc1ccc(NC(=O)c2ccnc(N3CCOCC3)c2)cc1Nc1ccnc(NCCCN2CCOCC2)n1

>  <Name>  (116) 
nan

>  <Pocket>  (116) 
nan

>  <ATP_Site>  (116) 
nan

>  <Peripheral>  (116) 
nan

>  <Num_H_Atoms_ProtBoundConf>  (116) 
nan

>  <Num_Resolved_Atoms>  (116) 
nan

>  <Num_Not_Resolved_Atoms>  (116) 
nan

$$$$
CHEMBL359724
     RDKit          3D

  0  0  0  0  0  0  0  0  0  0999 V3000
M  V30 BEGIN CTAB
M  V30 COUNTS 34 37 0 0 0
M  V30 BEGIN ATOM
M  V30 1 N 2.189268 -3.919269 3.835448 0
M  V30 2 C 1.714225 -2.895042 2.952453 0
M  V30 3 N 1.631759 -2.771039 1.754478 0
M  V30 4 C 1.128644 -1.668306 1.179875 0
M  V30 5 C 1.106957 -1.688112 -0.301314 0
M  V30 6 C 0.378416 -2.638451 -1.003194 0
M  V30 7 C 0.349114 -2.670025 -2.378332 0
M  V30 8 C 1.085028 -1.703312 -3.052020 0
M  V30 9 N 1.792869 -0.779928 -2.376008 0
M  V30 10 C 1.820888 -0.749915 -1.020688 0
M  V30 11 C 0.688511 -0.637916 1.959582 0
M  V30 12 C 0.122536 0.609513 1.616574 0
M  V30 13 C 0.897858 1.719951 1.953851 0
M  V30 14 C 0.450573 3.008135 1.670484 0
M  V30 15 N -0.730513 3.187691 1.070354 0
M  V30 16 C -1.487610 2.140430 0.739455 0
M  V30 17 C -2.714056 2.339776 0.116995 0
M  V30 18 C -3.481658 1.227887 -0.214641 0
M  V30 19 C -3.063535 -0.059457 0.054456 0
M  V30 20 C -1.843927 -0.275599 0.674059 0
M  V30 21 C -1.090522 0.833641 0.998772 0
M  V30 22 S 1.028867 -1.315727 3.668421 0
M  V30 23 H 2.067883 -4.886179 3.468985 0
M  V30 24 H 2.606783 -3.599920 4.751196 0
M  V30 25 H -0.162589 -3.349917 -0.402168 0
M  V30 26 H -0.234045 -3.430410 -2.883783 0
M  V30 27 H 1.031473 -1.768549 -4.136785 0
M  V30 28 H 2.407692 0.015615 -0.517974 0
M  V30 29 H 1.872206 1.676246 2.443696 0
M  V30 30 H 1.050657 3.878864 1.931054 0
M  V30 31 H -3.010189 3.369390 -0.079349 0
M  V30 32 H -4.441320 1.428822 -0.703172 0
M  V30 33 H -3.675369 -0.900244 -0.212157 0
M  V30 34 H -1.488484 -1.272129 0.899640 0
M  V30 END ATOM
M  V30 BEGIN BOND
M  V30 1 1 1 2
M  V30 2 2 2 3
M  V30 3 1 3 4
M  V30 4 1 4 5
M  V30 5 2 5 6
M  V30 6 1 6 7
M  V30 7 2 7 8
M  V30 8 1 8 9
M  V30 9 2 9 10
M  V30 10 2 4 11
M  V30 11 1 11 12
M  V30 12 2 12 13
M  V30 13 1 13 14
M  V30 14 2 14 15
M  V30 15 1 15 16
M  V30 16 2 16 17
M  V30 17 1 17 18
M  V30 18 2 18 19
M  V30 19 1 19 20
M  V30 20 2 20 21
M  V30 21 1 11 22
M  V30 22 1 22 2
M  V30 23 1 10 5
M  V30 24 1 21 12
M  V30 25 1 21 16
M  V30 26 1 1 23
M  V30 27 1 1 24
M  V30 28 1 6 25
M  V30 29 1 7 26
M  V30 30 1 8 27
M  V30 31 1 10 28
M  V30 32 1 13 29
M  V30 33 1 14 30
M  V30 34 1 17 31
M  V30 35 1 18 32
M  V30 36 1 19 33
M  V30 37 1 20 34
M  V30 END BOND
M  V30 END CTAB
M  END
>  <Dataset>  (117) 
ChEMBL_Kinases

>  <Ligand_Instance>  (117) 
nan

>  <PDB_ID>  (117) 
nan

>  <Standardized_SMILES>  (117) 
Nc1nc(-c2cccnc2)c(-c2ccnc3ccccc23)s1

>  <Name>  (117) 
nan

>  <Pocket>  (117) 
nan

>  <ATP_Site>  (117) 
nan

>  <Peripheral>  (117) 
nan

>  <Num_H_Atoms_ProtBoundConf>  (117) 
nan

>  <Num_Resolved_Atoms>  (117) 
nan

>  <Num_Not_Resolved_Atoms>  (117) 
nan

$$$$
CHEMBL3597013
     RDKit          3D

  0  0  0  0  0  0  0  0  0  0999 V3000
M  V30 BEGIN CTAB
M  V30 COUNTS 62 66 0 0 0
M  V30 BEGIN ATOM
M  V30 1 C 2.247736 0.227538 5.488999 0
M  V30 2 C 1.438104 0.723235 4.283029 0
M  V30 3 N 1.254207 -0.352975 3.334224 0
M  V30 4 C 2.094264 -0.597730 2.319281 0
M  V30 5 N 3.227958 0.261300 2.066921 0
M  V30 6 C 2.691501 0.966329 0.924044 0
M  V30 7 C 1.829272 2.028744 0.817146 0
M  V30 8 C 1.456449 2.470241 -0.430592 0
M  V30 9 C 1.881704 1.927567 -1.599393 0
M  V30 10 N 1.410854 2.469384 -2.822228 0
M  V30 11 C 0.425021 3.515258 -2.986117 0
M  V30 12 C -0.831999 2.785147 -3.477177 0
M  V30 13 N -0.562401 1.661976 -4.297366 0
M  V30 14 C -0.851559 0.384401 -3.689573 0
M  V30 15 C 0.694767 1.671923 -5.001078 0
M  V30 16 C 1.860929 2.041516 -4.153075 0
M  V30 17 C 2.752674 0.854854 -1.568783 0
M  V30 18 C 3.126134 0.412684 -0.289642 0
M  V30 19 N 1.870447 -1.645812 1.490277 0
M  V30 20 C 0.790733 -2.460579 1.676759 0
M  V30 21 C -0.080323 -2.207335 2.725610 0
M  V30 22 C -1.155302 -3.185497 2.714815 0
M  V30 23 C -1.242981 -4.408233 3.338777 0
M  V30 24 C -2.365108 -5.181814 3.177753 0
M  V30 25 C -3.401910 -4.730837 2.392019 0
M  V30 26 C -4.591968 -5.572127 2.202462 0
M  V30 27 C -4.876688 -6.823425 2.649364 0
M  V30 28 N -6.031403 -7.392043 2.325581 0
M  V30 29 C -6.869259 -6.849868 1.639516 0
M  V30 30 S -6.055870 -5.150531 1.251253 0
M  V30 31 C -3.355132 -3.523749 1.755981 0
M  V30 32 C -2.217929 -2.739799 1.918582 0
M  V30 33 Cl -2.267305 -1.208692 1.054946 0
M  V30 34 C 0.179436 -1.123054 3.559580 0
M  V30 35 O -0.687974 -1.018028 4.460233 0
M  V30 36 H 3.283247 0.674009 5.494448 0
M  V30 37 H 2.413943 -0.864434 5.422443 0
M  V30 38 H 1.683008 0.545519 6.389527 0
M  V30 39 H 0.461200 1.109605 4.585248 0
M  V30 40 H 2.018807 1.580292 3.885251 0
M  V30 41 H 4.137439 0.326867 2.573110 0
M  V30 42 H 1.521030 2.425002 1.767459 0
M  V30 43 H 0.766881 3.321607 -0.318682 0
M  V30 44 H 0.146607 4.041311 -2.071401 0
M  V30 45 H 0.707833 4.220237 -3.804339 0
M  V30 46 H -1.540212 3.500634 -3.959136 0
M  V30 47 H -1.353998 2.438752 -2.543426 0
M  V30 48 H -0.497966 -0.457865 -4.291992 0
M  V30 49 H -0.449516 0.397220 -2.649915 0
M  V30 50 H -1.950130 0.287342 -3.590117 0
M  V30 51 H 0.855268 0.643031 -5.386413 0
M  V30 52 H 0.580403 2.381307 -5.841339 0
M  V30 53 H 2.671142 1.318683 -4.137097 0
M  V30 54 H 2.317402 2.982400 -4.584694 0
M  V30 55 H 3.125119 0.378665 -2.440924 0
M  V30 56 H 3.812885 -0.435703 -0.321192 0
M  V30 57 H 0.748179 -3.252215 0.933037 0
M  V30 58 H -0.398651 -4.667074 3.922674 0
M  V30 59 H -2.437862 -6.141989 3.664747 0
M  V30 60 H -4.158157 -7.361671 3.273900 0
M  V30 61 H -7.850155 -7.227317 1.312935 0
M  V30 62 H -4.202005 -3.216424 1.147470 0
M  V30 END ATOM
M  V30 BEGIN BOND
M  V30 1 1 1 2
M  V30 2 1 2 3
M  V30 3 1 3 4
M  V30 4 1 4 5
M  V30 5 1 5 6
M  V30 6 2 6 7
M  V30 7 1 7 8
M  V30 8 2 8 9
M  V30 9 1 9 10
M  V30 10 1 10 11
M  V30 11 1 11 12
M  V30 12 1 12 13
M  V30 13 1 13 14
M  V30 14 1 13 15
M  V30 15 1 15 16
M  V30 16 1 9 17
M  V30 17 2 17 18
M  V30 18 2 4 19
M  V30 19 1 19 20
M  V30 20 2 20 21
M  V30 21 1 21 22
M  V30 22 2 22 23
M  V30 23 1 23 24
M  V30 24 2 24 25
M  V30 25 1 25 26
M  V30 26 2 26 27
M  V30 27 1 27 28
M  V30 28 2 28 29
M  V30 29 1 29 30
M  V30 30 1 25 31
M  V30 31 2 31 32
M  V30 32 1 32 33
M  V30 33 1 21 34
M  V30 34 2 34 35
M  V30 35 1 34 3
M  V30 36 1 18 6
M  V30 37 1 32 22
M  V30 38 1 16 10
M  V30 39 1 30 26
M  V30 40 1 1 36
M  V30 41 1 1 37
M  V30 42 1 1 38
M  V30 43 1 2 39
M  V30 44 1 2 40
M  V30 45 1 5 41
M  V30 46 1 7 42
M  V30 47 1 8 43
M  V30 48 1 11 44
M  V30 49 1 11 45
M  V30 50 1 12 46
M  V30 51 1 12 47
M  V30 52 1 14 48
M  V30 53 1 14 49
M  V30 54 1 14 50
M  V30 55 1 15 51
M  V30 56 1 15 52
M  V30 57 1 16 53
M  V30 58 1 16 54
M  V30 59 1 17 55
M  V30 60 1 18 56
M  V30 61 1 20 57
M  V30 62 1 23 58
M  V30 63 1 24 59
M  V30 64 1 27 60
M  V30 65 1 29 61
M  V30 66 1 31 62
M  V30 END BOND
M  V30 END CTAB
M  END
>  <Dataset>  (118) 
ChEMBL_Kinases

>  <Ligand_Instance>  (118) 
nan

>  <PDB_ID>  (118) 
nan

>  <Standardized_SMILES>  (118) 
CCn1c(Nc2ccc(N3CCN(C)CC3)cc2)ncc(-c2ccc(-c3cncs3)cc2Cl)c1=O

>  <Name>  (118) 
nan

>  <Pocket>  (118) 
nan

>  <ATP_Site>  (118) 
nan

>  <Peripheral>  (118) 
nan

>  <Num_H_Atoms_ProtBoundConf>  (118) 
nan

>  <Num_Resolved_Atoms>  (118) 
nan

>  <Num_Not_Resolved_Atoms>  (118) 
nan

$$$$
CHEMBL3597012
     RDKit          3D

  0  0  0  0  0  0  0  0  0  0999 V3000
M  V30 BEGIN CTAB
M  V30 COUNTS 51 55 0 0 0
M  V30 BEGIN ATOM
M  V30 1 C 4.088914 -4.970089 4.393339 0
M  V30 2 C 3.437406 -4.997024 3.068286 0
M  V30 3 O 2.457797 -5.783474 3.179708 0
M  V30 4 N 3.783539 -4.315611 1.891439 0
M  V30 5 C 4.903836 -3.416010 1.759599 0
M  V30 6 C 4.664792 -2.488244 0.609008 0
M  V30 7 C 3.228722 -2.206322 0.351070 0
M  V30 8 C 2.802009 -0.925185 0.058848 0
M  V30 9 C 1.445168 -0.676286 -0.182489 0
M  V30 10 C 0.934638 0.675947 -0.499924 0
M  V30 11 C 1.635372 1.650753 -1.187395 0
M  V30 12 N 1.060290 2.846994 -1.413690 0
M  V30 13 C -0.185250 3.127151 -0.988829 0
M  V30 14 N -0.921347 4.245725 -1.114716 0
M  V30 15 C -2.119594 4.070196 -0.529536 0
M  V30 16 C -2.165341 2.793361 -0.004488 0
M  V30 17 C -3.165806 1.998113 0.740388 0
M  V30 18 O -2.733348 1.346221 1.751154 0
M  V30 19 C -4.579543 1.836221 0.505024 0
M  V30 20 C -5.517400 2.810999 0.211102 0
M  V30 21 C -6.846092 2.499419 0.010749 0
M  V30 22 C -7.269704 1.195885 0.100550 0
M  V30 23 C -6.393667 0.192902 0.386814 0
M  V30 24 C -5.056553 0.527968 0.585776 0
M  V30 25 Cl -3.969243 -0.819292 0.953818 0
M  V30 26 C -0.946839 2.206271 -0.296548 0
M  V30 27 C -0.342166 0.975223 -0.069175 0
M  V30 28 C 0.526699 -1.727360 -0.126504 0
M  V30 29 C 0.945277 -3.011717 0.165105 0
M  V30 30 C 2.289990 -3.227489 0.398710 0
M  V30 31 C 2.946551 -4.539481 0.731200 0
M  V30 32 H 3.378980 -4.513018 5.122018 0
M  V30 33 H 4.342162 -5.974714 4.795184 0
M  V30 34 H 5.025687 -4.382640 4.380047 0
M  V30 35 H 5.871033 -3.959605 1.676759 0
M  V30 36 H 4.972231 -2.827254 2.702628 0
M  V30 37 H 5.138791 -1.514483 0.877088 0
M  V30 38 H 5.191972 -2.809484 -0.318392 0
M  V30 39 H 3.496236 -0.085452 0.008419 0
M  V30 40 H 2.632242 1.363044 -1.502158 0
M  V30 41 H -0.698589 5.161982 -1.573242 0
M  V30 42 H -2.982327 4.710610 -0.411520 0
M  V30 43 H -5.127333 3.807725 0.154747 0
M  V30 44 H -7.519428 3.325083 -0.216399 0
M  V30 45 H -8.324383 0.947478 -0.058183 0
M  V30 46 H -6.729608 -0.834159 0.457039 0
M  V30 47 H -0.915309 0.227800 0.473434 0
M  V30 48 H -0.533358 -1.618649 -0.299462 0
M  V30 49 H 0.323392 -3.893548 0.233602 0
M  V30 50 H 3.591312 -4.841321 -0.118481 0
M  V30 51 H 2.174894 -5.311867 0.903137 0
M  V30 END ATOM
M  V30 BEGIN BOND
M  V30 1 1 1 2
M  V30 2 2 2 3
M  V30 3 1 2 4
M  V30 4 1 4 5
M  V30 5 1 5 6
M  V30 6 1 6 7
M  V30 7 2 7 8
M  V30 8 1 8 9
M  V30 9 1 9 10
M  V30 10 2 10 11
M  V30 11 1 11 12
M  V30 12 2 12 13
M  V30 13 1 13 14
M  V30 14 1 14 15
M  V30 15 2 15 16
M  V30 16 1 16 17
M  V30 17 2 17 18
M  V30 18 1 17 19
M  V30 19 2 19 20
M  V30 20 1 20 21
M  V30 21 2 21 22
M  V30 22 1 22 23
M  V30 23 2 23 24
M  V30 24 1 24 25
M  V30 25 1 16 26
M  V30 26 2 26 27
M  V30 27 2 9 28
M  V30 28 1 28 29
M  V30 29 2 29 30
M  V30 30 1 30 31
M  V30 31 1 31 4
M  V30 32 1 30 7
M  V30 33 1 27 10
M  V30 34 1 26 13
M  V30 35 1 24 19
M  V30 36 1 1 32
M  V30 37 1 1 33
M  V30 38 1 1 34
M  V30 39 1 5 35
M  V30 40 1 5 36
M  V30 41 1 6 37
M  V30 42 1 6 38
M  V30 43 1 8 39
M  V30 44 1 11 40
M  V30 45 1 14 41
M  V30 46 1 15 42
M  V30 47 1 20 43
M  V30 48 1 21 44
M  V30 49 1 22 45
M  V30 50 1 23 46
M  V30 51 1 27 47
M  V30 52 1 28 48
M  V30 53 1 29 49
M  V30 54 1 31 50
M  V30 55 1 31 51
M  V30 END BOND
M  V30 END CTAB
M  END
>  <Dataset>  (119) 
ChEMBL_Kinases

>  <Ligand_Instance>  (119) 
nan

>  <PDB_ID>  (119) 
nan

>  <Standardized_SMILES>  (119) 
CC(=O)N1CCc2cc(-c3cnc4[nH]cc(C(=O)c5ccccc5Cl)c4c3)ccc2C1

>  <Name>  (119) 
nan

>  <Pocket>  (119) 
nan

>  <ATP_Site>  (119) 
nan

>  <Peripheral>  (119) 
nan

>  <Num_H_Atoms_ProtBoundConf>  (119) 
nan

>  <Num_Resolved_Atoms>  (119) 
nan

>  <Num_Not_Resolved_Atoms>  (119) 
nan

$$$$
CHEMBL3597011
     RDKit          3D

  0  0  0  0  0  0  0  0  0  0999 V3000
M  V30 BEGIN CTAB
M  V30 COUNTS 49 53 0 0 0
M  V30 BEGIN ATOM
M  V30 1 C 0.052903 -6.025486 -2.141139 0
M  V30 2 N 0.779192 -6.499680 -0.953280 0
M  V30 3 C 2.179332 -6.176672 -1.049925 0
M  V30 4 C 2.677797 -5.216982 -0.016636 0
M  V30 5 C 1.650113 -4.154560 0.153508 0
M  V30 6 C 2.045841 -2.812900 0.167107 0
M  V30 7 C 1.096781 -1.819498 0.328919 0
M  V30 8 C 1.364520 -0.386915 0.359911 0
M  V30 9 C 2.367270 0.253045 -0.336586 0
M  V30 10 N 2.594558 1.568043 -0.292299 0
M  V30 11 C 1.805372 2.341768 0.476572 0
M  V30 12 N 1.743706 3.653520 0.753521 0
M  V30 13 C 0.753109 3.954291 1.603768 0
M  V30 14 C 0.106853 2.773146 1.919517 0
M  V30 15 C -1.048074 2.624477 2.825479 0
M  V30 16 O -0.973699 1.656902 3.651379 0
M  V30 17 C -2.132179 3.582070 2.683244 0
M  V30 18 C -2.522749 3.833266 1.363682 0
M  V30 19 C -3.533311 4.713402 1.058827 0
M  V30 20 C -4.182337 5.367932 2.069328 0
M  V30 21 C -3.810505 5.131962 3.366909 0
M  V30 22 C -2.799061 4.251822 3.682320 0
M  V30 23 Cl -2.265810 3.896208 5.310064 0
M  V30 24 C 0.777150 1.792014 1.209340 0
M  V30 25 C 0.577311 0.438193 1.136266 0
M  V30 26 C -0.236918 -2.197326 0.474396 0
M  V30 27 C -0.630669 -3.502314 0.461962 0
M  V30 28 C 0.315984 -4.475122 0.301328 0
M  V30 29 C 0.160016 -5.973944 0.247476 0
M  V30 30 H -1.004588 -5.856935 -1.903322 0
M  V30 31 H 0.510424 -5.033307 -2.427847 0
M  V30 32 H 0.144978 -6.709128 -2.983313 0
M  V30 33 H 2.816057 -7.111084 -1.076800 0
M  V30 34 H 2.353865 -5.718204 -2.045285 0
M  V30 35 H 2.716719 -5.752117 0.953614 0
M  V30 36 H 3.645505 -4.819600 -0.335087 0
M  V30 37 H 3.074023 -2.496927 0.055976 0
M  V30 38 H 3.012635 -0.371334 -0.963771 0
M  V30 39 H 2.367377 4.402900 0.380838 0
M  V30 40 H 0.442398 4.894913 2.017045 0
M  V30 41 H -2.042040 3.341398 0.522378 0
M  V30 42 H -3.817986 4.891304 0.030125 0
M  V30 43 H -4.967227 6.049188 1.807100 0
M  V30 44 H -4.293914 5.624923 4.199941 0
M  V30 45 H -0.245808 0.020323 1.727642 0
M  V30 46 H -1.042233 -1.479007 0.605527 0
M  V30 47 H -1.622537 -3.904349 0.564527 0
M  V30 48 H 0.553622 -6.473018 1.131004 0
M  V30 49 H -0.920866 -6.198055 0.170350 0
M  V30 END ATOM
M  V30 BEGIN BOND
M  V30 1 1 1 2
M  V30 2 1 2 3
M  V30 3 1 3 4
M  V30 4 1 4 5
M  V30 5 2 5 6
M  V30 6 1 6 7
M  V30 7 1 7 8
M  V30 8 2 8 9
M  V30 9 1 9 10
M  V30 10 2 10 11
M  V30 11 1 11 12
M  V30 12 1 12 13
M  V30 13 2 13 14
M  V30 14 1 14 15
M  V30 15 2 15 16
M  V30 16 1 15 17
M  V30 17 2 17 18
M  V30 18 1 18 19
M  V30 19 2 19 20
M  V30 20 1 20 21
M  V30 21 2 21 22
M  V30 22 1 22 23
M  V30 23 1 14 24
M  V30 24 2 24 25
M  V30 25 2 7 26
M  V30 26 1 26 27
M  V30 27 2 27 28
M  V30 28 1 28 29
M  V30 29 1 29 2
M  V30 30 1 28 5
M  V30 31 1 25 8
M  V30 32 1 24 11
M  V30 33 1 22 17
M  V30 34 1 1 30
M  V30 35 1 1 31
M  V30 36 1 1 32
M  V30 37 1 3 33
M  V30 38 1 3 34
M  V30 39 1 4 35
M  V30 40 1 4 36
M  V30 41 1 6 37
M  V30 42 1 9 38
M  V30 43 1 12 39
M  V30 44 1 13 40
M  V30 45 1 18 41
M  V30 46 1 19 42
M  V30 47 1 20 43
M  V30 48 1 21 44
M  V30 49 1 25 45
M  V30 50 1 26 46
M  V30 51 1 27 47
M  V30 52 1 29 48
M  V30 53 1 29 49
M  V30 END BOND
M  V30 END CTAB
M  END
>  <Dataset>  (120) 
ChEMBL_Kinases

>  <Ligand_Instance>  (120) 
nan

>  <PDB_ID>  (120) 
nan

>  <Standardized_SMILES>  (120) 
CN1CCc2cc(-c3cnc4[nH]cc(C(=O)c5ccccc5Cl)c4c3)ccc2C1

>  <Name>  (120) 
nan

>  <Pocket>  (120) 
nan

>  <ATP_Site>  (120) 
nan

>  <Peripheral>  (120) 
nan

>  <Num_H_Atoms_ProtBoundConf>  (120) 
nan

>  <Num_Resolved_Atoms>  (120) 
nan

>  <Num_Not_Resolved_Atoms>  (120) 
nan

$$$$
CHEMBL3596932
     RDKit          3D

  0  0  0  0  0  0  0  0  0  0999 V3000
M  V30 BEGIN CTAB
M  V30 COUNTS 49 53 0 0 0
M  V30 BEGIN ATOM
M  V30 1 C -0.738553 -4.747928 1.329957 0
M  V30 2 N 0.586477 -5.152918 1.805730 0
M  V30 3 C 1.347438 -5.650386 0.697807 0
M  V30 4 C 2.784899 -5.144502 0.674022 0
M  V30 5 C 2.649346 -3.658158 0.469721 0
M  V30 6 C 3.290279 -2.926833 -0.529386 0
M  V30 7 C 3.021487 -1.576060 -0.529717 0
M  V30 8 C 2.188163 -0.974904 0.376580 0
M  V30 9 C 1.979664 0.465714 0.276891 0
M  V30 10 C 3.019422 1.256772 -0.191253 0
M  V30 11 N 2.856085 2.587832 -0.293953 0
M  V30 12 C 1.706800 3.200451 0.043231 0
M  V30 13 N 1.248113 4.460866 0.063173 0
M  V30 14 C -0.014576 4.469121 0.518128 0
M  V30 15 C -0.439519 3.162573 0.821785 0
M  V30 16 C -1.801150 2.967231 1.281116 0
M  V30 17 O -2.085148 3.718751 2.286762 0
M  V30 18 C -2.940266 2.164204 0.921307 0
M  V30 19 C -3.108844 0.837562 0.614284 0
M  V30 20 C -4.287837 0.225448 0.276562 0
M  V30 21 C -5.396945 1.029151 0.247033 0
M  V30 22 C -5.386598 2.373952 0.530048 0
M  V30 23 C -4.133012 2.909852 0.865273 0
M  V30 24 Cl -4.183933 4.647347 1.219763 0
M  V30 25 C 0.678094 2.426193 0.504710 0
M  V30 26 C 0.795048 1.071564 0.627556 0
M  V30 27 C 1.568255 -1.726363 1.354068 0
M  V30 28 C 1.804257 -3.085233 1.398223 0
M  V30 29 C 1.181983 -3.979940 2.415508 0
M  V30 30 H -1.119890 -3.844138 1.842978 0
M  V30 31 H -0.708151 -4.541995 0.225589 0
M  V30 32 H -1.495371 -5.543065 1.490520 0
M  V30 33 H 1.353861 -6.760159 0.686834 0
M  V30 34 H 0.892534 -5.272593 -0.241610 0
M  V30 35 H 3.256194 -5.390932 1.628370 0
M  V30 36 H 3.268300 -5.605971 -0.199413 0
M  V30 37 H 3.923611 -3.483443 -1.192867 0
M  V30 38 H 3.513079 -0.999156 -1.300303 0
M  V30 39 H 3.995477 0.844029 -0.490986 0
M  V30 40 H 1.823635 5.279035 -0.239277 0
M  V30 41 H -0.561823 5.419609 0.606399 0
M  V30 42 H -2.222474 0.262576 0.653374 0
M  V30 43 H -4.266066 -0.827974 0.060365 0
M  V30 44 H -6.336944 0.578079 -0.015090 0
M  V30 45 H -6.282238 2.970503 0.495314 0
M  V30 46 H 0.023726 0.449581 0.990525 0
M  V30 47 H 0.900132 -1.268100 2.086335 0
M  V30 48 H 2.001825 -4.332247 3.089194 0
M  V30 49 H 0.444055 -3.392450 2.994419 0
M  V30 END ATOM
M  V30 BEGIN BOND
M  V30 1 1 1 2
M  V30 2 1 2 3
M  V30 3 1 3 4
M  V30 4 1 4 5
M  V30 5 2 5 6
M  V30 6 1 6 7
M  V30 7 2 7 8
M  V30 8 1 8 9
M  V30 9 2 9 10
M  V30 10 1 10 11
M  V30 11 2 11 12
M  V30 12 1 12 13
M  V30 13 1 13 14
M  V30 14 2 14 15
M  V30 15 1 15 16
M  V30 16 2 16 17
M  V30 17 1 16 18
M  V30 18 2 18 19
M  V30 19 1 19 20
M  V30 20 2 20 21
M  V30 21 1 21 22
M  V30 22 2 22 23
M  V30 23 1 23 24
M  V30 24 1 15 25
M  V30 25 2 25 26
M  V30 26 1 8 27
M  V30 27 2 27 28
M  V30 28 1 28 29
M  V30 29 1 29 2
M  V30 30 1 28 5
M  V30 31 1 26 9
M  V30 32 1 25 12
M  V30 33 1 23 18
M  V30 34 1 1 30
M  V30 35 1 1 31
M  V30 36 1 1 32
M  V30 37 1 3 33
M  V30 38 1 3 34
M  V30 39 1 4 35
M  V30 40 1 4 36
M  V30 41 1 6 37
M  V30 42 1 7 38
M  V30 43 1 10 39
M  V30 44 1 13 40
M  V30 45 1 14 41
M  V30 46 1 19 42
M  V30 47 1 20 43
M  V30 48 1 21 44
M  V30 49 1 22 45
M  V30 50 1 26 46
M  V30 51 1 27 47
M  V30 52 1 29 48
M  V30 53 1 29 49
M  V30 END BOND
M  V30 END CTAB
M  END
>  <Dataset>  (121) 
ChEMBL_Kinases

>  <Ligand_Instance>  (121) 
nan

>  <PDB_ID>  (121) 
nan

>  <Standardized_SMILES>  (121) 
CN1CCc2ccc(-c3cnc4[nH]cc(C(=O)c5ccccc5Cl)c4c3)cc2C1

>  <Name>  (121) 
nan

>  <Pocket>  (121) 
nan

>  <ATP_Site>  (121) 
nan

>  <Peripheral>  (121) 
nan

>  <Num_H_Atoms_ProtBoundConf>  (121) 
nan

>  <Num_Resolved_Atoms>  (121) 
nan

>  <Num_Not_Resolved_Atoms>  (121) 
nan

$$$$
CHEMBL3596931
     RDKit          3D

  0  0  0  0  0  0  0  0  0  0999 V3000
M  V30 BEGIN CTAB
M  V30 COUNTS 46 50 0 0 0
M  V30 BEGIN ATOM
M  V30 1 C -0.905684 -5.787496 -0.997012 0
M  V30 2 N 0.546892 -5.992325 -1.116260 0
M  V30 3 C 1.180902 -5.713447 0.152136 0
M  V30 4 C 1.297053 -4.226479 0.160306 0
M  V30 5 C 1.483245 -3.332563 1.193052 0
M  V30 6 C 1.563965 -1.955337 0.966497 0
M  V30 7 C 1.447859 -1.522400 -0.352120 0
M  V30 8 C 1.536635 -0.066779 -0.547419 0
M  V30 9 C 2.061931 0.495613 -1.703649 0
M  V30 10 N 2.126650 1.831953 -1.846455 0
M  V30 11 C 1.688810 2.670097 -0.883464 0
M  V30 12 N 1.622219 4.001404 -0.717306 0
M  V30 13 C 1.083552 4.279426 0.477195 0
M  V30 14 C 0.761611 3.096806 1.170025 0
M  V30 15 C 0.128889 3.194389 2.447543 0
M  V30 16 O 0.762031 3.940344 3.261766 0
M  V30 17 C -1.056338 2.686904 3.109678 0
M  V30 18 C -1.618309 1.438528 3.184093 0
M  V30 19 C -2.769744 1.102823 3.851178 0
M  V30 20 C -3.409444 2.130702 4.502998 0
M  V30 21 C -2.969453 3.434291 4.520642 0
M  V30 22 C -1.782358 3.670271 3.807634 0
M  V30 23 Cl -1.251772 5.345341 3.853465 0
M  V30 24 C 1.163968 2.142439 0.270298 0
M  V30 25 C 1.094514 0.798155 0.425093 0
M  V30 26 C 1.261430 -2.414539 -1.388369 0
M  V30 27 C 1.181910 -3.779099 -1.159824 0
M  V30 28 C 0.988936 -4.971158 -2.040937 0
M  V30 29 H -0.994950 -4.679487 -0.796739 0
M  V30 30 H -1.346562 -6.382567 -0.189428 0
M  V30 31 H -1.367455 -5.943083 -1.988164 0
M  V30 32 H 2.156651 -6.206191 0.263018 0
M  V30 33 H 0.521538 -6.100011 0.957472 0
M  V30 34 H 1.564550 -3.753376 2.197328 0
M  V30 35 H 1.709585 -1.361576 1.844099 0
M  V30 36 H 2.411806 -0.189180 -2.473561 0
M  V30 37 H 1.957479 4.664322 -1.448803 0
M  V30 38 H 0.953333 5.324082 0.781148 0
M  V30 39 H -1.093009 0.677090 2.669202 0
M  V30 40 H -3.096110 0.076978 3.824642 0
M  V30 41 H -4.318655 1.888820 5.034240 0
M  V30 42 H -3.495121 4.194698 5.037134 0
M  V30 43 H 0.703637 0.340564 1.314282 0
M  V30 44 H 1.175894 -2.034056 -2.402792 0
M  V30 45 H 1.959215 -5.292158 -2.488380 0
M  V30 46 H 0.266569 -4.769201 -2.847580 0
M  V30 END ATOM
M  V30 BEGIN BOND
M  V30 1 1 1 2
M  V30 2 1 2 3
M  V30 3 1 3 4
M  V30 4 2 4 5
M  V30 5 1 5 6
M  V30 6 2 6 7
M  V30 7 1 7 8
M  V30 8 2 8 9
M  V30 9 1 9 10
M  V30 10 2 10 11
M  V30 11 1 11 12
M  V30 12 1 12 13
M  V30 13 2 13 14
M  V30 14 1 14 15
M  V30 15 2 15 16
M  V30 16 1 15 17
M  V30 17 2 17 18
M  V30 18 1 18 19
M  V30 19 2 19 20
M  V30 20 1 20 21
M  V30 21 2 21 22
M  V30 22 1 22 23
M  V30 23 1 14 24
M  V30 24 2 24 25
M  V30 25 1 7 26
M  V30 26 2 26 27
M  V30 27 1 27 28
M  V30 28 1 28 2
M  V30 29 1 27 4
M  V30 30 1 25 8
M  V30 31 1 24 11
M  V30 32 1 22 17
M  V30 33 1 1 29
M  V30 34 1 1 30
M  V30 35 1 1 31
M  V30 36 1 3 32
M  V30 37 1 3 33
M  V30 38 1 5 34
M  V30 39 1 6 35
M  V30 40 1 9 36
M  V30 41 1 12 37
M  V30 42 1 13 38
M  V30 43 1 18 39
M  V30 44 1 19 40
M  V30 45 1 20 41
M  V30 46 1 21 42
M  V30 47 1 25 43
M  V30 48 1 26 44
M  V30 49 1 28 45
M  V30 50 1 28 46
M  V30 END BOND
M  V30 END CTAB
M  END
>  <Dataset>  (122) 
ChEMBL_Kinases

>  <Ligand_Instance>  (122) 
nan

>  <PDB_ID>  (122) 
nan

>  <Standardized_SMILES>  (122) 
CN1Cc2ccc(-c3cnc4[nH]cc(C(=O)c5ccccc5Cl)c4c3)cc2C1

>  <Name>  (122) 
nan

>  <Pocket>  (122) 
nan

>  <ATP_Site>  (122) 
nan

>  <Peripheral>  (122) 
nan

>  <Num_H_Atoms_ProtBoundConf>  (122) 
nan

>  <Num_Resolved_Atoms>  (122) 
nan

>  <Num_Not_Resolved_Atoms>  (122) 
nan

$$$$
CHEMBL3596930
     RDKit          3D

  0  0  0  0  0  0  0  0  0  0999 V3000
M  V30 BEGIN CTAB
M  V30 COUNTS 48 51 0 0 0
M  V30 BEGIN ATOM
M  V30 1 C 3.224285 -2.616663 2.373304 0
M  V30 2 O 2.953070 -1.411744 1.697028 0
M  V30 3 C 3.931405 -0.616272 1.139707 0
M  V30 4 N 5.258560 -0.852664 1.150373 0
M  V30 5 N 5.904932 0.128920 0.516378 0
M  V30 6 C 7.348077 0.214347 0.328372 0
M  V30 7 C 5.001581 1.006475 0.091435 0
M  V30 8 C 3.731944 0.587782 0.457061 0
M  V30 9 C 2.394246 1.158298 0.252665 0
M  V30 10 C 2.085344 2.490472 0.446442 0
M  V30 11 N 0.840135 2.962068 0.244240 0
M  V30 12 C -0.165308 2.161668 -0.156142 0
M  V30 13 N -1.468802 2.354236 -0.428247 0
M  V30 14 C -2.008911 1.156593 -0.797430 0
M  V30 15 C -1.013391 0.175256 -0.757087 0
M  V30 16 C -1.268538 -1.223541 -1.098733 0
M  V30 17 O -0.466868 -1.872981 -1.847430 0
M  V30 18 C -2.469564 -1.836412 -0.549900 0
M  V30 19 C -2.693228 -1.571293 0.805995 0
M  V30 20 C -3.781138 -2.063075 1.512653 0
M  V30 21 C -3.973720 -1.753711 2.948172 0
M  V30 22 C -4.789276 -0.492173 3.065554 0
M  V30 23 O -6.028703 -0.666768 2.455751 0
M  V30 24 C -4.675612 -2.856107 0.808780 0
M  V30 25 C -4.475733 -3.129586 -0.523760 0
M  V30 26 C -3.377433 -2.622636 -1.202549 0
M  V30 27 Cl -3.045867 -2.922326 -2.904031 0
M  V30 28 C 0.150666 0.830774 -0.347978 0
M  V30 29 C 1.403908 0.268839 -0.161994 0
M  V30 30 H 3.676815 -2.412947 3.378266 0
M  V30 31 H 2.243773 -3.113179 2.595767 0
M  V30 32 H 3.877873 -3.314201 1.804104 0
M  V30 33 H 7.855194 -0.520933 0.988569 0
M  V30 34 H 7.750875 1.208776 0.667824 0
M  V30 35 H 7.644060 0.094741 -0.726792 0
M  V30 36 H 5.131329 1.913501 -0.449633 0
M  V30 37 H 2.867840 3.143414 0.764064 0
M  V30 38 H -1.992242 3.267513 -0.369708 0
M  V30 39 H -3.062269 1.057670 -1.068417 0
M  V30 40 H -2.018197 -0.957913 1.386427 0
M  V30 41 H -2.990629 -1.553088 3.429204 0
M  V30 42 H -4.498138 -2.596172 3.429660 0
M  V30 43 H -4.937087 -0.293749 4.146974 0
M  V30 44 H -4.266262 0.359939 2.620660 0
M  V30 45 H -5.959063 -0.652000 1.481517 0
M  V30 46 H -5.541543 -3.261639 1.324668 0
M  V30 47 H -5.164480 -3.751388 -1.102631 0
M  V30 48 H 1.600116 -0.773330 -0.324423 0
M  V30 END ATOM
M  V30 BEGIN BOND
M  V30 1 1 1 2
M  V30 2 1 2 3
M  V30 3 2 3 4
M  V30 4 1 4 5
M  V30 5 1 5 6
M  V30 6 1 5 7
M  V30 7 2 7 8
M  V30 8 1 8 9
M  V30 9 2 9 10
M  V30 10 1 10 11
M  V30 11 2 11 12
M  V30 12 1 12 13
M  V30 13 1 13 14
M  V30 14 2 14 15
M  V30 15 1 15 16
M  V30 16 2 16 17
M  V30 17 1 16 18
M  V30 18 2 18 19
M  V30 19 1 19 20
M  V30 20 1 20 21
M  V30 21 1 21 22
M  V30 22 1 22 23
M  V30 23 2 20 24
M  V30 24 1 24 25
M  V30 25 2 25 26
M  V30 26 1 26 27
M  V30 27 1 15 28
M  V30 28 2 28 29
M  V30 29 1 8 3
M  V30 30 1 29 9
M  V30 31 1 28 12
M  V30 32 1 26 18
M  V30 33 1 1 30
M  V30 34 1 1 31
M  V30 35 1 1 32
M  V30 36 1 6 33
M  V30 37 1 6 34
M  V30 38 1 6 35
M  V30 39 1 7 36
M  V30 40 1 10 37
M  V30 41 1 13 38
M  V30 42 1 14 39
M  V30 43 1 19 40
M  V30 44 1 21 41
M  V30 45 1 21 42
M  V30 46 1 22 43
M  V30 47 1 22 44
M  V30 48 1 23 45
M  V30 49 1 24 46
M  V30 50 1 25 47
M  V30 51 1 29 48
M  V30 END BOND
M  V30 END CTAB
M  END
>  <Dataset>  (123) 
ChEMBL_Kinases

>  <Ligand_Instance>  (123) 
nan

>  <PDB_ID>  (123) 
nan

>  <Standardized_SMILES>  (123) 
COc1nn(C)cc1-c1cnc2[nH]cc(C(=O)c3cc(CCO)ccc3Cl)c2c1

>  <Name>  (123) 
nan

>  <Pocket>  (123) 
nan

>  <ATP_Site>  (123) 
nan

>  <Peripheral>  (123) 
nan

>  <Num_H_Atoms_ProtBoundConf>  (123) 
nan

>  <Num_Resolved_Atoms>  (123) 
nan

>  <Num_Not_Resolved_Atoms>  (123) 
nan

$$$$
CHEMBL3596929
     RDKit          3D

  0  0  0  0  0  0  0  0  0  0999 V3000
M  V30 BEGIN CTAB
M  V30 COUNTS 48 51 0 0 0
M  V30 BEGIN ATOM
M  V30 1 C 3.124043 -2.594495 2.830626 0
M  V30 2 O 3.102391 -1.537058 1.915711 0
M  V30 3 C 4.190310 -1.155088 1.175566 0
M  V30 4 N 5.434592 -1.675394 1.164543 0
M  V30 5 N 6.216897 -1.030712 0.309352 0
M  V30 6 C 7.615335 -1.355960 0.070375 0
M  V30 7 C 5.497704 -0.052968 -0.275218 0
M  V30 8 C 4.223713 -0.107397 0.248577 0
M  V30 9 C 3.039422 0.728665 -0.038435 0
M  V30 10 C 3.086140 2.120432 -0.134628 0
M  V30 11 N 1.940799 2.794074 -0.402018 0
M  V30 12 C 0.770737 2.144899 -0.574263 0
M  V30 13 N -0.493640 2.539718 -0.843111 0
M  V30 14 C -1.305638 1.444530 -0.913990 0
M  V30 15 C -0.563226 0.316794 -0.688522 0
M  V30 16 C -1.163738 -1.012124 -0.701770 0
M  V30 17 O -0.623456 -1.999806 -1.303122 0
M  V30 18 C -2.428143 -1.233719 -0.005949 0
M  V30 19 C -2.511847 -0.682917 1.256799 0
M  V30 20 C -3.651447 -0.818372 2.022197 0
M  V30 21 C -4.725444 -1.531297 1.484255 0
M  V30 22 C -5.929055 -1.643783 2.358475 0
M  V30 23 C -6.873282 -0.473974 2.103736 0
M  V30 24 O -6.248065 0.732202 2.372164 0
M  V30 25 C -4.640573 -2.075986 0.233578 0
M  V30 26 C -3.496972 -1.935272 -0.524220 0
M  V30 27 Cl -3.335208 -2.611733 -2.129772 0
M  V30 28 C 0.723762 0.769097 -0.479326 0
M  V30 29 C 1.849561 0.012077 -0.209336 0
M  V30 30 H 3.281406 -2.129889 3.839740 0
M  V30 31 H 2.161963 -3.142623 2.813399 0
M  V30 32 H 3.928272 -3.302455 2.568533 0
M  V30 33 H 8.141272 -1.531999 1.040687 0
M  V30 34 H 7.700459 -2.226133 -0.620366 0
M  V30 35 H 8.148673 -0.510034 -0.411446 0
M  V30 36 H 5.818054 0.652532 -1.010787 0
M  V30 37 H 4.031843 2.591655 0.008640 0
M  V30 38 H -0.743238 3.551521 -0.966661 0
M  V30 39 H -2.376472 1.509685 -1.121366 0
M  V30 40 H -1.696997 -0.126978 1.697328 0
M  V30 41 H -3.713543 -0.381029 3.020771 0
M  V30 42 H -6.416347 -2.598627 2.075634 0
M  V30 43 H -5.627558 -1.685891 3.409150 0
M  V30 44 H -7.764792 -0.635770 2.745506 0
M  V30 45 H -7.214552 -0.473901 1.057459 0
M  V30 46 H -6.076386 0.880358 3.326416 0
M  V30 47 H -5.480846 -2.623642 -0.165508 0
M  V30 48 H 1.817142 -1.058427 -0.134678 0
M  V30 END ATOM
M  V30 BEGIN BOND
M  V30 1 1 1 2
M  V30 2 1 2 3
M  V30 3 2 3 4
M  V30 4 1 4 5
M  V30 5 1 5 6
M  V30 6 1 5 7
M  V30 7 2 7 8
M  V30 8 1 8 9
M  V30 9 2 9 10
M  V30 10 1 10 11
M  V30 11 2 11 12
M  V30 12 1 12 13
M  V30 13 1 13 14
M  V30 14 2 14 15
M  V30 15 1 15 16
M  V30 16 2 16 17
M  V30 17 1 16 18
M  V30 18 2 18 19
M  V30 19 1 19 20
M  V30 20 2 20 21
M  V30 21 1 21 22
M  V30 22 1 22 23
M  V30 23 1 23 24
M  V30 24 1 21 25
M  V30 25 2 25 26
M  V30 26 1 26 27
M  V30 27 1 15 28
M  V30 28 2 28 29
M  V30 29 1 8 3
M  V30 30 1 29 9
M  V30 31 1 28 12
M  V30 32 1 26 18
M  V30 33 1 1 30
M  V30 34 1 1 31
M  V30 35 1 1 32
M  V30 36 1 6 33
M  V30 37 1 6 34
M  V30 38 1 6 35
M  V30 39 1 7 36
M  V30 40 1 10 37
M  V30 41 1 13 38
M  V30 42 1 14 39
M  V30 43 1 19 40
M  V30 44 1 20 41
M  V30 45 1 22 42
M  V30 46 1 22 43
M  V30 47 1 23 44
M  V30 48 1 23 45
M  V30 49 1 24 46
M  V30 50 1 25 47
M  V30 51 1 29 48
M  V30 END BOND
M  V30 END CTAB
M  END
>  <Dataset>  (124) 
ChEMBL_Kinases

>  <Ligand_Instance>  (124) 
nan

>  <PDB_ID>  (124) 
nan

>  <Standardized_SMILES>  (124) 
COc1nn(C)cc1-c1cnc2[nH]cc(C(=O)c3ccc(CCO)cc3Cl)c2c1

>  <Name>  (124) 
nan

>  <Pocket>  (124) 
nan

>  <ATP_Site>  (124) 
nan

>  <Peripheral>  (124) 
nan

>  <Num_H_Atoms_ProtBoundConf>  (124) 
nan

>  <Num_Resolved_Atoms>  (124) 
nan

>  <Num_Not_Resolved_Atoms>  (124) 
nan

$$$$
CHEMBL3596928
     RDKit          3D

  0  0  0  0  0  0  0  0  0  0999 V3000
M  V30 BEGIN CTAB
M  V30 COUNTS 54 58 0 0 0
M  V30 BEGIN ATOM
M  V30 1 C 3.998602 -3.327227 0.149963 0
M  V30 2 O 3.373750 -2.054890 0.117771 0
M  V30 3 C 2.841076 -1.477968 1.264727 0
M  V30 4 N 2.747743 -1.851805 2.564234 0
M  V30 5 N 2.127691 -0.899064 3.248936 0
M  V30 6 C 1.901400 -1.061107 4.677917 0
M  V30 7 C 1.802770 0.111189 2.425747 0
M  V30 8 C 2.247717 -0.230495 1.143331 0
M  V30 9 C 1.999561 0.733115 0.070408 0
M  V30 10 C 3.010013 1.039460 -0.833395 0
M  V30 11 N 2.753011 1.939097 -1.822023 0
M  V30 12 C 1.550816 2.536625 -1.945840 0
M  V30 13 N 1.116730 3.439184 -2.846642 0
M  V30 14 C -0.169087 3.748230 -2.567676 0
M  V30 15 C -0.570119 3.028905 -1.463893 0
M  V30 16 C -1.824540 2.954074 -0.722650 0
M  V30 17 O -2.523957 3.940073 -0.371795 0
M  V30 18 C -2.411277 1.689700 -0.301262 0
M  V30 19 C -2.942812 1.407744 0.939861 0
M  V30 20 C -3.472856 0.141455 1.197672 0
M  V30 21 C -3.491609 -0.867729 0.247607 0
M  V30 22 C -4.112237 -2.087449 0.772298 0
M  V30 23 O -3.315072 -2.961579 1.468198 0
M  V30 24 C -2.203100 -3.652263 1.089236 0
M  V30 25 C -1.421911 -3.806738 -0.030803 0
M  V30 26 C -0.328807 -4.639016 -0.005103 0
M  V30 27 C 0.039183 -5.347630 1.110808 0
M  V30 28 N -0.710550 -5.222528 2.245160 0
M  V30 29 C -1.796014 -4.391648 2.208431 0
M  V30 30 C -2.953002 -0.551068 -0.980496 0
M  V30 31 C -2.431788 0.683238 -1.244253 0
M  V30 32 Cl -1.785833 0.902280 -2.875611 0
M  V30 33 C 0.507122 2.256645 -1.057728 0
M  V30 34 C 0.759972 1.346308 -0.053617 0
M  V30 35 H 5.107481 -3.183580 0.221253 0
M  V30 36 H 3.629786 -3.877289 1.046089 0
M  V30 37 H 3.721895 -3.923494 -0.731907 0
M  V30 38 H 2.834678 -1.231270 5.235553 0
M  V30 39 H 1.101801 -1.807195 4.891279 0
M  V30 40 H 1.466954 -0.079994 5.027783 0
M  V30 41 H 1.284818 0.977584 2.834550 0
M  V30 42 H 3.980092 0.587905 -0.771632 0
M  V30 43 H 1.609493 3.889282 -3.662220 0
M  V30 44 H -0.883441 4.426070 -3.043597 0
M  V30 45 H -2.910827 2.212217 1.648452 0
M  V30 46 H -3.851626 0.082514 2.223304 0
M  V30 47 H -4.529504 -2.664136 -0.112916 0
M  V30 48 H -5.020677 -1.859660 1.384348 0
M  V30 49 H -1.818539 -3.207986 -0.815107 0
M  V30 50 H 0.189875 -4.655857 -0.970036 0
M  V30 51 H 0.917725 -5.970794 1.013231 0
M  V30 52 H -2.225486 -4.459493 3.218729 0
M  V30 53 H -3.002955 -1.368600 -1.676984 0
M  V30 54 H -0.023171 1.123206 0.629012 0
M  V30 END ATOM
M  V30 BEGIN BOND
M  V30 1 1 1 2
M  V30 2 1 2 3
M  V30 3 2 3 4
M  V30 4 1 4 5
M  V30 5 1 5 6
M  V30 6 1 5 7
M  V30 7 2 7 8
M  V30 8 1 8 9
M  V30 9 2 9 10
M  V30 10 1 10 11
M  V30 11 2 11 12
M  V30 12 1 12 13
M  V30 13 1 13 14
M  V30 14 2 14 15
M  V30 15 1 15 16
M  V30 16 2 16 17
M  V30 17 1 16 18
M  V30 18 2 18 19
M  V30 19 1 19 20
M  V30 20 2 20 21
M  V30 21 1 21 22
M  V30 22 1 22 23
M  V30 23 1 23 24
M  V30 24 2 24 25
M  V30 25 1 25 26
M  V30 26 2 26 27
M  V30 27 1 27 28
M  V30 28 2 28 29
M  V30 29 1 21 30
M  V30 30 2 30 31
M  V30 31 1 31 32
M  V30 32 1 15 33
M  V30 33 2 33 34
M  V30 34 1 8 3
M  V30 35 1 34 9
M  V30 36 1 33 12
M  V30 37 1 31 18
M  V30 38 1 29 24
M  V30 39 1 1 35
M  V30 40 1 1 36
M  V30 41 1 1 37
M  V30 42 1 6 38
M  V30 43 1 6 39
M  V30 44 1 6 40
M  V30 45 1 7 41
M  V30 46 1 10 42
M  V30 47 1 13 43
M  V30 48 1 14 44
M  V30 49 1 19 45
M  V30 50 1 20 46
M  V30 51 1 22 47
M  V30 52 1 22 48
M  V30 53 1 25 49
M  V30 54 1 26 50
M  V30 55 1 27 51
M  V30 56 1 29 52
M  V30 57 1 30 53
M  V30 58 1 34 54
M  V30 END BOND
M  V30 END CTAB
M  END
>  <Dataset>  (125) 
ChEMBL_Kinases

>  <Ligand_Instance>  (125) 
nan

>  <PDB_ID>  (125) 
nan

>  <Standardized_SMILES>  (125) 
COc1nn(C)cc1-c1cnc2[nH]cc(C(=O)c3ccc(COc4cccnc4)cc3Cl)c2c1

>  <Name>  (125) 
nan

>  <Pocket>  (125) 
nan

>  <ATP_Site>  (125) 
nan

>  <Peripheral>  (125) 
nan

>  <Num_H_Atoms_ProtBoundConf>  (125) 
nan

>  <Num_Resolved_Atoms>  (125) 
nan

>  <Num_Not_Resolved_Atoms>  (125) 
nan

$$$$
CHEMBL3596927
     RDKit          3D

  0  0  0  0  0  0  0  0  0  0999 V3000
M  V30 BEGIN CTAB
M  V30 COUNTS 54 58 0 0 0
M  V30 BEGIN ATOM
M  V30 1 C 6.560642 -1.564143 1.337487 0
M  V30 2 O 5.509896 -0.668451 1.027859 0
M  V30 3 C 4.778382 -0.083967 2.050814 0
M  V30 4 N 4.930496 -0.254059 3.376532 0
M  V30 5 N 4.048029 0.468443 4.059019 0
M  V30 6 C 3.945579 0.509069 5.508261 0
M  V30 7 C 3.270108 1.150829 3.219655 0
M  V30 8 C 3.714263 0.816274 1.954472 0
M  V30 9 C 3.161361 1.322674 0.679746 0
M  V30 10 C 3.972733 1.752987 -0.348788 0
M  V30 11 N 3.360317 2.192498 -1.460770 0
M  V30 12 C 2.021959 2.220831 -1.587856 0
M  V30 13 N 1.292270 2.632414 -2.634505 0
M  V30 14 C 0.009136 2.474367 -2.298948 0
M  V30 15 C -0.175207 1.961142 -1.041055 0
M  V30 16 C -1.208976 1.559742 -0.112107 0
M  V30 17 O -1.018895 1.998324 1.081690 0
M  V30 18 C -2.424701 0.774638 -0.164550 0
M  V30 19 C -2.510396 -0.242459 0.806320 0
M  V30 20 C -3.552766 -1.159269 0.947200 0
M  V30 21 C -4.574830 -1.051033 0.059393 0
M  V30 22 C -5.738126 -1.952649 0.081803 0
M  V30 23 O -5.648123 -3.082968 -0.714885 0
M  V30 24 C -4.681272 -4.048704 -0.576090 0
M  V30 25 C -4.904217 -5.032959 -1.547750 0
M  V30 26 C -4.090529 -6.162331 -1.677345 0
M  V30 27 C -3.009743 -6.316950 -0.802001 0
M  V30 28 C -2.855453 -5.304888 0.128056 0
M  V30 29 N -3.635594 -4.241183 0.237434 0
M  V30 30 C -4.563910 -0.080819 -0.919252 0
M  V30 31 C -3.514173 0.774275 -0.991036 0
M  V30 32 Cl -3.527910 2.017078 -2.216660 0
M  V30 33 C 1.141468 1.799126 -0.583592 0
M  V30 34 C 1.788759 1.346358 0.562662 0
M  V30 35 H 6.278025 -2.163610 2.231152 0
M  V30 36 H 7.508401 -1.045527 1.552523 0
M  V30 37 H 6.676487 -2.267367 0.492457 0
M  V30 38 H 4.882387 0.241832 6.017237 0
M  V30 39 H 3.172846 -0.230316 5.843157 0
M  V30 40 H 3.548026 1.504500 5.805910 0
M  V30 41 H 2.465121 1.823161 3.421995 0
M  V30 42 H 5.036207 1.698178 -0.168017 0
M  V30 43 H 1.608500 3.009777 -3.552323 0
M  V30 44 H -0.824180 2.716802 -2.925804 0
M  V30 45 H -1.715842 -0.364311 1.535091 0
M  V30 46 H -3.532968 -1.891797 1.713980 0
M  V30 47 H -6.652216 -1.391898 -0.272833 0
M  V30 48 H -6.004926 -2.276022 1.107935 0
M  V30 49 H -5.685540 -5.079440 -2.303761 0
M  V30 50 H -4.203252 -6.947179 -2.392214 0
M  V30 51 H -2.299293 -7.107841 -0.763190 0
M  V30 52 H -2.051964 -5.295706 0.875449 0
M  V30 53 H -5.364175 0.009218 -1.619297 0
M  V30 54 H 1.178742 1.009857 1.368036 0
M  V30 END ATOM
M  V30 BEGIN BOND
M  V30 1 1 1 2
M  V30 2 1 2 3
M  V30 3 2 3 4
M  V30 4 1 4 5
M  V30 5 1 5 6
M  V30 6 1 5 7
M  V30 7 2 7 8
M  V30 8 1 8 9
M  V30 9 2 9 10
M  V30 10 1 10 11
M  V30 11 2 11 12
M  V30 12 1 12 13
M  V30 13 1 13 14
M  V30 14 2 14 15
M  V30 15 1 15 16
M  V30 16 2 16 17
M  V30 17 1 16 18
M  V30 18 2 18 19
M  V30 19 1 19 20
M  V30 20 2 20 21
M  V30 21 1 21 22
M  V30 22 1 22 23
M  V30 23 1 23 24
M  V30 24 2 24 25
M  V30 25 1 25 26
M  V30 26 2 26 27
M  V30 27 1 27 28
M  V30 28 2 28 29
M  V30 29 1 21 30
M  V30 30 2 30 31
M  V30 31 1 31 32
M  V30 32 1 15 33
M  V30 33 2 33 34
M  V30 34 1 8 3
M  V30 35 1 34 9
M  V30 36 1 33 12
M  V30 37 1 31 18
M  V30 38 1 29 24
M  V30 39 1 1 35
M  V30 40 1 1 36
M  V30 41 1 1 37
M  V30 42 1 6 38
M  V30 43 1 6 39
M  V30 44 1 6 40
M  V30 45 1 7 41
M  V30 46 1 10 42
M  V30 47 1 13 43
M  V30 48 1 14 44
M  V30 49 1 19 45
M  V30 50 1 20 46
M  V30 51 1 22 47
M  V30 52 1 22 48
M  V30 53 1 25 49
M  V30 54 1 26 50
M  V30 55 1 27 51
M  V30 56 1 28 52
M  V30 57 1 30 53
M  V30 58 1 34 54
M  V30 END BOND
M  V30 END CTAB
M  END
>  <Dataset>  (126) 
ChEMBL_Kinases

>  <Ligand_Instance>  (126) 
nan

>  <PDB_ID>  (126) 
nan

>  <Standardized_SMILES>  (126) 
COc1nn(C)cc1-c1cnc2[nH]cc(C(=O)c3ccc(COc4ccccn4)cc3Cl)c2c1

>  <Name>  (126) 
nan

>  <Pocket>  (126) 
nan

>  <ATP_Site>  (126) 
nan

>  <Peripheral>  (126) 
nan

>  <Num_H_Atoms_ProtBoundConf>  (126) 
nan

>  <Num_Resolved_Atoms>  (126) 
nan

>  <Num_Not_Resolved_Atoms>  (126) 
nan

$$$$
CHEMBL3604796
     RDKit          3D

  0  0  0  0  0  0  0  0  0  0999 V3000
M  V30 BEGIN CTAB
M  V30 COUNTS 32 34 0 0 0
M  V30 BEGIN ATOM
M  V30 1 O 0.047497 -3.112191 4.821275 0
M  V30 2 C 0.095522 -2.732690 3.467349 0
M  V30 3 C 1.218749 -3.042767 2.726435 0
M  V30 4 Cl 2.563220 -3.887774 3.436122 0
M  V30 5 C 1.200956 -2.640296 1.399872 0
M  V30 6 C 0.120303 -1.960409 0.828456 0
M  V30 7 C 0.345157 -1.647073 -0.582458 0
M  V30 8 C 0.536540 -2.657299 -1.515676 0
M  V30 9 N 0.747780 -2.379792 -2.835665 0
M  V30 10 C 0.773485 -1.086253 -3.258247 0
M  V30 11 C 0.580841 -0.067621 -2.319242 0
M  V30 12 C 0.362497 -0.320219 -0.962260 0
M  V30 13 C 0.170045 0.800211 -0.046394 0
M  V30 14 C 0.928074 1.180712 1.015499 0
M  V30 15 C 0.535051 2.285383 1.732784 0
M  V30 16 C -0.582343 3.043867 1.452218 0
M  V30 17 F -0.894400 4.126015 2.221435 0
M  V30 18 C -1.351767 2.640980 0.358053 0
M  V30 19 C -0.976792 1.526295 -0.385370 0
M  V30 20 C -0.990194 -1.663604 1.593673 0
M  V30 21 C -0.982365 -2.061641 2.921093 0
M  V30 22 Cl -2.403669 -1.669264 3.858425 0
M  V30 23 H 0.197769 -4.114490 5.016747 0
M  V30 24 H 2.117577 -2.910986 0.854655 0
M  V30 25 H 0.516772 -3.689003 -1.182703 0
M  V30 26 H 0.935915 -0.816562 -4.284825 0
M  V30 27 H 0.607257 0.961618 -2.688997 0
M  V30 28 H 1.777470 0.569557 1.194843 0
M  V30 29 H 1.156297 2.566140 2.572948 0
M  V30 30 H -2.233462 3.233982 0.131384 0
M  V30 31 H -1.655132 1.322022 -1.202951 0
M  V30 32 H -1.766764 -1.141148 1.068895 0
M  V30 END ATOM
M  V30 BEGIN BOND
M  V30 1 1 1 2
M  V30 2 2 2 3
M  V30 3 1 3 4
M  V30 4 1 3 5
M  V30 5 2 5 6
M  V30 6 1 6 7
M  V30 7 2 7 8
M  V30 8 1 8 9
M  V30 9 2 9 10
M  V30 10 1 10 11
M  V30 11 2 11 12
M  V30 12 1 12 13
M  V30 13 2 13 14
M  V30 14 1 14 15
M  V30 15 2 15 16
M  V30 16 1 16 17
M  V30 17 1 16 18
M  V30 18 2 18 19
M  V30 19 1 6 20
M  V30 20 2 20 21
M  V30 21 1 21 22
M  V30 22 1 21 2
M  V30 23 1 12 7
M  V30 24 1 19 13
M  V30 25 1 1 23
M  V30 26 1 5 24
M  V30 27 1 8 25
M  V30 28 1 10 26
M  V30 29 1 11 27
M  V30 30 1 14 28
M  V30 31 1 15 29
M  V30 32 1 18 30
M  V30 33 1 19 31
M  V30 34 1 20 32
M  V30 END BOND
M  V30 END CTAB
M  END
>  <Dataset>  (127) 
ChEMBL_Kinases

>  <Ligand_Instance>  (127) 
nan

>  <PDB_ID>  (127) 
nan

>  <Standardized_SMILES>  (127) 
Oc1c(Cl)cc(-c2cnccc2-c2ccc(F)cc2)cc1Cl

>  <Name>  (127) 
nan

>  <Pocket>  (127) 
nan

>  <ATP_Site>  (127) 
nan

>  <Peripheral>  (127) 
nan

>  <Num_H_Atoms_ProtBoundConf>  (127) 
nan

>  <Num_Resolved_Atoms>  (127) 
nan

>  <Num_Not_Resolved_Atoms>  (127) 
nan

$$$$
CHEMBL3596910
     RDKit          3D

  0  0  0  0  0  0  0  0  0  0999 V3000
M  V30 BEGIN CTAB
M  V30 COUNTS 63 68 0 0 0
M  V30 BEGIN ATOM
M  V30 1 O -0.072355 -2.045438 3.127072 0
M  V30 2 C 1.051439 -1.514425 2.888100 0
M  V30 3 C 1.325892 -0.294529 3.635787 0
M  V30 4 C 2.609198 0.165724 3.832820 0
M  V30 5 C 2.860643 1.335194 4.520907 0
M  V30 6 C 1.832427 2.089980 5.036743 0
M  V30 7 C 2.076794 3.360966 5.771158 0
M  V30 8 O 2.044319 4.518709 5.051389 0
M  V30 9 C 2.722541 5.039975 4.023613 0
M  V30 10 C 3.769571 4.668945 3.200015 0
M  V30 11 C 4.267114 5.450744 2.188275 0
M  V30 12 C 3.727509 6.698275 1.927078 0
M  V30 13 C 2.663714 7.127279 2.729089 0
M  V30 14 C 2.208528 6.314755 3.719949 0
M  V30 15 C 0.532808 1.637395 4.846704 0
M  V30 16 C 0.288441 0.447971 4.147457 0
M  V30 17 C 1.852784 -2.226591 1.903381 0
M  V30 18 C 3.152711 -2.660397 1.744185 0
M  V30 19 N 3.342347 -3.290671 0.579507 0
M  V30 20 C 2.175630 -3.297925 -0.073585 0
M  V30 21 N 1.869463 -3.830251 -1.304459 0
M  V30 22 C 0.579421 -3.692998 -1.727320 0
M  V30 23 C -0.416029 -3.072538 -1.021757 0
M  V30 24 C -1.808150 -2.907184 -1.414328 0
M  V30 25 C -2.675590 -1.881611 -1.112984 0
M  V30 26 N -3.845139 -2.208686 -1.697976 0
M  V30 27 N -3.716289 -3.387042 -2.336785 0
M  V30 28 C -4.939878 -3.850107 -2.998927 0
M  V30 29 C -5.247124 -2.892100 -4.106647 0
M  V30 30 C -4.221164 -3.114923 -5.216909 0
M  V30 31 N -4.432708 -4.435865 -5.747214 0
M  V30 32 C -4.197365 -5.479915 -4.798637 0
M  V30 33 C -4.768264 -5.259894 -3.439878 0
M  V30 34 C -2.445645 -3.864600 -2.184859 0
M  V30 35 C -0.085880 -2.536334 0.229157 0
M  V30 36 C 1.222305 -2.643306 0.720897 0
M  V30 37 H 3.488306 -0.336552 3.477722 0
M  V30 38 H 3.856239 1.709242 4.695147 0
M  V30 39 H 3.023079 3.298580 6.369080 0
M  V30 40 H 1.282276 3.427671 6.582602 0
M  V30 41 H 4.132910 3.692820 3.466326 0
M  V30 42 H 5.099581 4.953925 1.666059 0
M  V30 43 H 4.231454 7.173031 1.109152 0
M  V30 44 H 2.327201 8.100267 2.439381 0
M  V30 45 H 1.379688 6.827990 4.228015 0
M  V30 46 H -0.330377 2.176596 5.225830 0
M  V30 47 H -0.741504 0.083588 3.997024 0
M  V30 48 H 3.853375 -2.462387 2.534535 0
M  V30 49 H 4.287267 -3.671348 0.329581 0
M  V30 50 H 0.307832 -4.097052 -2.682882 0
M  V30 51 H -2.452272 -0.996142 -0.522286 0
M  V30 52 H -5.764385 -3.819961 -2.226521 0
M  V30 53 H -5.166812 -1.847798 -3.808223 0
M  V30 54 H -6.240122 -3.089455 -4.598372 0
M  V30 55 H -3.178677 -3.071282 -4.849798 0
M  V30 56 H -4.457523 -2.389754 -6.008332 0
M  V30 57 H -5.319810 -4.518394 -6.281681 0
M  V30 58 H -4.539402 -6.461626 -5.211271 0
M  V30 59 H -3.084065 -5.639942 -4.675723 0
M  V30 60 H -4.147016 -5.807880 -2.672970 0
M  V30 61 H -5.758881 -5.799400 -3.392834 0
M  V30 62 H -2.195804 -4.802663 -2.642167 0
M  V30 63 H -0.852042 -2.033226 0.831878 0
M  V30 END ATOM
M  V30 BEGIN BOND
M  V30 1 2 1 2
M  V30 2 1 2 3
M  V30 3 2 3 4
M  V30 4 1 4 5
M  V30 5 2 5 6
M  V30 6 1 6 7
M  V30 7 1 7 8
M  V30 8 1 8 9
M  V30 9 2 9 10
M  V30 10 1 10 11
M  V30 11 2 11 12
M  V30 12 1 12 13
M  V30 13 2 13 14
M  V30 14 1 6 15
M  V30 15 2 15 16
M  V30 16 1 2 17
M  V30 17 2 17 18
M  V30 18 1 18 19
M  V30 19 1 19 20
M  V30 20 2 20 21
M  V30 21 1 21 22
M  V30 22 2 22 23
M  V30 23 1 23 24
M  V30 24 1 24 25
M  V30 25 2 25 26
M  V30 26 1 26 27
M  V30 27 1 27 28
M  V30 28 1 28 29
M  V30 29 1 29 30
M  V30 30 1 30 31
M  V30 31 1 31 32
M  V30 32 1 32 33
M  V30 33 1 27 34
M  V30 34 1 23 35
M  V30 35 2 35 36
M  V30 36 1 16 3
M  V30 37 1 36 17
M  V30 38 1 14 9
M  V30 39 1 36 20
M  V30 40 2 34 24
M  V30 41 1 33 28
M  V30 42 1 4 37
M  V30 43 1 5 38
M  V30 44 1 7 39
M  V30 45 1 7 40
M  V30 46 1 10 41
M  V30 47 1 11 42
M  V30 48 1 12 43
M  V30 49 1 13 44
M  V30 50 1 14 45
M  V30 51 1 15 46
M  V30 52 1 16 47
M  V30 53 1 18 48
M  V30 54 1 19 49
M  V30 55 1 22 50
M  V30 56 1 25 51
M  V30 57 1 28 52
M  V30 58 1 29 53
M  V30 59 1 29 54
M  V30 60 1 30 55
M  V30 61 1 30 56
M  V30 62 1 31 57
M  V30 63 1 32 58
M  V30 64 1 32 59
M  V30 65 1 33 60
M  V30 66 1 33 61
M  V30 67 1 34 62
M  V30 68 1 35 63
M  V30 END BOND
M  V30 END CTAB
M  END
>  <Dataset>  (128) 
ChEMBL_Kinases

>  <Ligand_Instance>  (128) 
nan

>  <PDB_ID>  (128) 
nan

>  <Standardized_SMILES>  (128) 
O=C(c1ccc(COc2ccccc2)cc1)c1c[nH]c2ncc(-c3cnn(C4CCNCC4)c3)cc12

>  <Name>  (128) 
nan

>  <Pocket>  (128) 
nan

>  <ATP_Site>  (128) 
nan

>  <Peripheral>  (128) 
nan

>  <Num_H_Atoms_ProtBoundConf>  (128) 
nan

>  <Num_Resolved_Atoms>  (128) 
nan

>  <Num_Not_Resolved_Atoms>  (128) 
nan

$$$$
CHEMBL3596911
     RDKit          3D

  0  0  0  0  0  0  0  0  0  0999 V3000
M  V30 BEGIN CTAB
M  V30 COUNTS 52 56 0 0 0
M  V30 BEGIN ATOM
M  V30 1 C 5.114509 0.454647 -1.927096 0
M  V30 2 C 5.320177 1.243464 -0.678371 0
M  V30 3 C 6.634485 1.398937 -0.217037 0
M  V30 4 C 7.003353 2.107115 0.932776 0
M  V30 5 C 5.957009 2.671920 1.623542 0
M  V30 6 C 4.660897 2.525106 1.179230 0
M  V30 7 Cl 3.465452 3.285919 2.197858 0
M  V30 8 C 4.326781 1.821793 0.041356 0
M  V30 9 C 2.974485 1.669872 -0.388819 0
M  V30 10 O 2.771790 0.818564 -1.310333 0
M  V30 11 C 1.694601 2.253067 -0.044386 0
M  V30 12 C 1.440170 3.612569 0.051935 0
M  V30 13 N 0.159781 3.863930 0.367269 0
M  V30 14 C -0.431642 2.664607 0.478581 0
M  V30 15 N -1.702483 2.279548 0.775278 0
M  V30 16 C -2.059355 0.981888 0.827688 0
M  V30 17 C -1.146647 -0.026600 0.581227 0
M  V30 18 C -1.436048 -1.458386 0.615272 0
M  V30 19 C -0.934753 -2.548933 -0.064921 0
M  V30 20 N -1.558725 -3.661990 0.353918 0
M  V30 21 N -2.448424 -3.309071 1.287051 0
M  V30 22 C -3.193064 -4.454004 1.819572 0
M  V30 23 C -4.279609 -4.021327 2.739931 0
M  V30 24 C -5.381775 -3.321044 2.022549 0
M  V30 25 N -5.308380 -3.399652 0.589207 0
M  V30 26 C -4.966294 -4.703725 0.099326 0
M  V30 27 C -3.747457 -5.293348 0.722728 0
M  V30 28 C -2.397807 -1.977037 1.468143 0
M  V30 29 C 0.178522 0.297168 0.269882 0
M  V30 30 C 0.489591 1.639935 0.229708 0
M  V30 31 H 4.637315 1.135186 -2.662022 0
M  V30 32 H 4.627630 -0.507466 -1.780720 0
M  V30 33 H 6.109323 0.212679 -2.390589 0
M  V30 34 H 7.443544 0.932776 -0.796201 0
M  V30 35 H 8.054826 2.152068 1.179250 0
M  V30 36 H 6.240000 3.222618 2.517509 0
M  V30 37 H 2.073242 4.493839 -0.087627 0
M  V30 38 H -0.374791 4.732414 0.518796 0
M  V30 39 H -3.063933 0.662617 1.061802 0
M  V30 40 H -0.146203 -2.422304 -0.815925 0
M  V30 41 H -2.495506 -5.113486 2.414461 0
M  V30 42 H -4.710087 -4.961828 3.184451 0
M  V30 43 H -3.905069 -3.460146 3.631131 0
M  V30 44 H -6.393209 -3.679982 2.371991 0
M  V30 45 H -5.365722 -2.248976 2.307137 0
M  V30 46 H -4.880346 -2.604666 0.110512 0
M  V30 47 H -5.829677 -5.420944 0.171233 0
M  V30 48 H -4.775071 -4.587693 -0.995514 0
M  V30 49 H -4.000630 -6.301164 1.165661 0
M  V30 50 H -2.950991 -5.540072 -0.029263 0
M  V30 51 H -3.069787 -1.570447 2.197599 0
M  V30 52 H 0.940345 -0.436494 0.066954 0
M  V30 END ATOM
M  V30 BEGIN BOND
M  V30 1 1 1 2
M  V30 2 2 2 3
M  V30 3 1 3 4
M  V30 4 2 4 5
M  V30 5 1 5 6
M  V30 6 1 6 7
M  V30 7 2 6 8
M  V30 8 1 8 9
M  V30 9 2 9 10
M  V30 10 1 9 11
M  V30 11 2 11 12
M  V30 12 1 12 13
M  V30 13 1 13 14
M  V30 14 2 14 15
M  V30 15 1 15 16
M  V30 16 2 16 17
M  V30 17 1 17 18
M  V30 18 1 18 19
M  V30 19 2 19 20
M  V30 20 1 20 21
M  V30 21 1 21 22
M  V30 22 1 22 23
M  V30 23 1 23 24
M  V30 24 1 24 25
M  V30 25 1 25 26
M  V30 26 1 26 27
M  V30 27 1 21 28
M  V30 28 1 17 29
M  V30 29 2 29 30
M  V30 30 1 8 2
M  V30 31 1 30 11
M  V30 32 1 30 14
M  V30 33 2 28 18
M  V30 34 1 27 22
M  V30 35 1 1 31
M  V30 36 1 1 32
M  V30 37 1 1 33
M  V30 38 1 3 34
M  V30 39 1 4 35
M  V30 40 1 5 36
M  V30 41 1 12 37
M  V30 42 1 13 38
M  V30 43 1 16 39
M  V30 44 1 19 40
M  V30 45 1 22 41
M  V30 46 1 23 42
M  V30 47 1 23 43
M  V30 48 1 24 44
M  V30 49 1 24 45
M  V30 50 1 25 46
M  V30 51 1 26 47
M  V30 52 1 26 48
M  V30 53 1 27 49
M  V30 54 1 27 50
M  V30 55 1 28 51
M  V30 56 1 29 52
M  V30 END BOND
M  V30 END CTAB
M  END
>  <Dataset>  (129) 
ChEMBL_Kinases

>  <Ligand_Instance>  (129) 
nan

>  <PDB_ID>  (129) 
nan

>  <Standardized_SMILES>  (129) 
Cc1cccc(Cl)c1C(=O)c1c[nH]c2ncc(-c3cnn(C4CCNCC4)c3)cc12

>  <Name>  (129) 
nan

>  <Pocket>  (129) 
nan

>  <ATP_Site>  (129) 
nan

>  <Peripheral>  (129) 
nan

>  <Num_H_Atoms_ProtBoundConf>  (129) 
nan

>  <Num_Resolved_Atoms>  (129) 
nan

>  <Num_Not_Resolved_Atoms>  (129) 
nan

$$$$
CHEMBL3596912
     RDKit          3D

  0  0  0  0  0  0  0  0  0  0999 V3000
M  V30 BEGIN CTAB
M  V30 COUNTS 53 57 0 0 0
M  V30 BEGIN ATOM
M  V30 1 O 1.269167 2.071410 4.730147 0
M  V30 2 C 1.381954 1.917092 3.482241 0
M  V30 3 C 2.163108 0.879547 2.796655 0
M  V30 4 C 2.979577 1.158981 1.717343 0
M  V30 5 C 3.722791 0.228991 1.047885 0
M  V30 6 C 4.535834 0.774336 -0.096980 0
M  V30 7 O 5.792700 1.169958 0.314065 0
M  V30 8 C 3.678505 -1.073761 1.446570 0
M  V30 9 C 2.870289 -1.387495 2.524939 0
M  V30 10 C 2.122356 -0.442479 3.196356 0
M  V30 11 Cl 1.123490 -0.926439 4.554734 0
M  V30 12 C 0.684380 2.837439 2.579268 0
M  V30 13 C 0.589868 4.219945 2.636748 0
M  V30 14 N -0.160003 4.667565 1.589956 0
M  V30 15 C -0.569436 3.631656 0.835419 0
M  V30 16 N -1.316951 3.513921 -0.289374 0
M  V30 17 C -1.584779 2.322161 -0.857323 0
M  V30 18 C -1.097863 1.156207 -0.302856 0
M  V30 19 C -1.296235 -0.203923 -0.793661 0
M  V30 20 C -1.443962 -0.649486 -2.099011 0
M  V30 21 N -1.601064 -1.989329 -2.047639 0
M  V30 22 N -1.559486 -2.398581 -0.791482 0
M  V30 23 C -1.671699 -3.718285 -0.153596 0
M  V30 24 C -2.713708 -3.708663 0.917962 0
M  V30 25 C -4.062179 -4.209736 0.491063 0
M  V30 26 N -4.179541 -4.271369 -0.955442 0
M  V30 27 C -3.223944 -5.284185 -1.383519 0
M  V30 28 C -1.826597 -4.777807 -1.189418 0
M  V30 29 C -1.372159 -1.329255 0.025891 0
M  V30 30 C -0.335223 1.310298 0.849766 0
M  V30 31 C -0.044396 2.515793 1.453703 0
M  V30 32 H 2.976894 2.224805 1.438501 0
M  V30 33 H 4.595113 -0.080761 -0.822563 0
M  V30 34 H 3.973004 1.578515 -0.640926 0
M  V30 35 H 6.456886 0.540549 -0.062467 0
M  V30 36 H 4.282040 -1.776861 0.889014 0
M  V30 37 H 2.854421 -2.447349 2.824939 0
M  V30 38 H 1.051915 4.827120 3.408140 0
M  V30 39 H -0.383603 5.690749 1.405029 0
M  V30 40 H -2.176904 2.194012 -1.753311 0
M  V30 41 H -1.434228 -0.041752 -2.975635 0
M  V30 42 H -0.670758 -3.851687 0.354103 0
M  V30 43 H -2.353110 -4.315296 1.773692 0
M  V30 44 H -2.788837 -2.669766 1.318421 0
M  V30 45 H -4.219071 -5.242688 0.884700 0
M  V30 46 H -4.874833 -3.568558 0.874766 0
M  V30 47 H -3.942997 -3.366182 -1.372309 0
M  V30 48 H -3.435300 -5.571622 -2.421854 0
M  V30 49 H -3.415048 -6.181343 -0.731132 0
M  V30 50 H -1.208318 -5.662604 -0.870833 0
M  V30 51 H -1.346659 -4.443576 -2.137085 0
M  V30 52 H -1.286547 -1.274149 1.120570 0
M  V30 53 H 0.077211 0.419953 1.333431 0
M  V30 END ATOM
M  V30 BEGIN BOND
M  V30 1 2 1 2
M  V30 2 1 2 3
M  V30 3 2 3 4
M  V30 4 1 4 5
M  V30 5 1 5 6
M  V30 6 1 6 7
M  V30 7 2 5 8
M  V30 8 1 8 9
M  V30 9 2 9 10
M  V30 10 1 10 11
M  V30 11 1 2 12
M  V30 12 2 12 13
M  V30 13 1 13 14
M  V30 14 1 14 15
M  V30 15 2 15 16
M  V30 16 1 16 17
M  V30 17 2 17 18
M  V30 18 1 18 19
M  V30 19 1 19 20
M  V30 20 2 20 21
M  V30 21 1 21 22
M  V30 22 1 22 23
M  V30 23 1 23 24
M  V30 24 1 24 25
M  V30 25 1 25 26
M  V30 26 1 26 27
M  V30 27 1 27 28
M  V30 28 1 22 29
M  V30 29 1 18 30
M  V30 30 2 30 31
M  V30 31 1 10 3
M  V30 32 1 31 12
M  V30 33 1 31 15
M  V30 34 2 29 19
M  V30 35 1 28 23
M  V30 36 1 4 32
M  V30 37 1 6 33
M  V30 38 1 6 34
M  V30 39 1 7 35
M  V30 40 1 8 36
M  V30 41 1 9 37
M  V30 42 1 13 38
M  V30 43 1 14 39
M  V30 44 1 17 40
M  V30 45 1 20 41
M  V30 46 1 23 42
M  V30 47 1 24 43
M  V30 48 1 24 44
M  V30 49 1 25 45
M  V30 50 1 25 46
M  V30 51 1 26 47
M  V30 52 1 27 48
M  V30 53 1 27 49
M  V30 54 1 28 50
M  V30 55 1 28 51
M  V30 56 1 29 52
M  V30 57 1 30 53
M  V30 END BOND
M  V30 END CTAB
M  END
>  <Dataset>  (130) 
ChEMBL_Kinases

>  <Ligand_Instance>  (130) 
nan

>  <PDB_ID>  (130) 
nan

>  <Standardized_SMILES>  (130) 
O=C(c1cc(CO)ccc1Cl)c1c[nH]c2ncc(-c3cnn(C4CCNCC4)c3)cc12

>  <Name>  (130) 
nan

>  <Pocket>  (130) 
nan

>  <ATP_Site>  (130) 
nan

>  <Peripheral>  (130) 
nan

>  <Num_H_Atoms_ProtBoundConf>  (130) 
nan

>  <Num_Resolved_Atoms>  (130) 
nan

>  <Num_Not_Resolved_Atoms>  (130) 
nan

$$$$
CHEMBL3596913
     RDKit          3D

  0  0  0  0  0  0  0  0  0  0999 V3000
M  V30 BEGIN CTAB
M  V30 COUNTS 50 54 0 0 0
M  V30 BEGIN ATOM
M  V30 1 N 5.391061 -2.780057 0.758794 0
M  V30 2 C 4.838268 -2.251401 -0.110537 0
M  V30 3 C 4.139772 -1.583720 -1.171680 0
M  V30 4 C 3.478890 -2.261407 -2.161079 0
M  V30 5 C 2.814515 -1.622364 -3.170532 0
M  V30 6 C 2.813641 -0.247358 -3.187319 0
M  V30 7 Cl 1.956968 0.562882 -4.489060 0
M  V30 8 C 3.477316 0.466958 -2.194025 0
M  V30 9 C 3.403189 1.933407 -2.322792 0
M  V30 10 O 3.577611 2.553679 -3.402512 0
M  V30 11 C 3.098791 2.474178 -0.989864 0
M  V30 12 C 3.790815 3.567364 -0.512227 0
M  V30 13 N 3.332702 3.877814 0.733806 0
M  V30 14 C 2.363406 3.005104 1.059524 0
M  V30 15 N 1.550647 2.779774 2.097371 0
M  V30 16 C 0.645082 1.782563 2.126543 0
M  V30 17 C 0.487600 0.906630 1.070287 0
M  V30 18 C -0.502591 -0.162157 1.134114 0
M  V30 19 C -0.568946 -1.449675 0.596624 0
M  V30 20 N -1.733596 -2.002378 0.984966 0
M  V30 21 N -2.431432 -1.166426 1.737673 0
M  V30 22 C -3.732124 -1.368287 2.356181 0
M  V30 23 C -3.643125 -2.056845 3.699160 0
M  V30 24 C -3.278088 -3.497377 3.597046 0
M  V30 25 N -4.066506 -4.239707 2.655092 0
M  V30 26 C -4.278459 -3.594040 1.409682 0
M  V30 27 C -4.671278 -2.156742 1.501235 0
M  V30 28 C -1.682010 -0.029270 1.836003 0
M  V30 29 C 1.305687 1.095163 -0.032150 0
M  V30 30 C 2.210165 2.133996 0.003406 0
M  V30 31 C 4.138250 -0.207002 -1.189409 0
M  V30 32 H 3.503856 -3.345265 -2.110964 0
M  V30 33 H 2.302854 -2.164114 -3.936410 0
M  V30 34 H 4.584721 4.200100 -0.902839 0
M  V30 35 H 3.575125 4.613923 1.434190 0
M  V30 36 H 0.003428 1.632003 2.987054 0
M  V30 37 H 0.242035 -1.825191 -0.012650 0
M  V30 38 H -4.183963 -0.366644 2.499151 0
M  V30 39 H -4.648562 -1.918417 4.174512 0
M  V30 40 H -2.907318 -1.558435 4.357867 0
M  V30 41 H -3.465390 -3.945496 4.613107 0
M  V30 42 H -2.216819 -3.629917 3.390350 0
M  V30 43 H -4.894412 -4.718134 3.064657 0
M  V30 44 H -5.155446 -4.116441 0.924887 0
M  V30 45 H -3.422965 -3.794859 0.733774 0
M  V30 46 H -4.792220 -1.746302 0.481380 0
M  V30 47 H -5.666610 -2.103762 1.979376 0
M  V30 48 H -2.012766 0.834834 2.401015 0
M  V30 49 H 1.205168 0.426938 -0.870817 0
M  V30 50 H 4.624582 0.420444 -0.462692 0
M  V30 END ATOM
M  V30 BEGIN BOND
M  V30 1 3 1 2
M  V30 2 1 2 3
M  V30 3 2 3 4
M  V30 4 1 4 5
M  V30 5 2 5 6
M  V30 6 1 6 7
M  V30 7 1 6 8
M  V30 8 1 8 9
M  V30 9 2 9 10
M  V30 10 1 9 11
M  V30 11 2 11 12
M  V30 12 1 12 13
M  V30 13 1 13 14
M  V30 14 2 14 15
M  V30 15 1 15 16
M  V30 16 2 16 17
M  V30 17 1 17 18
M  V30 18 1 18 19
M  V30 19 2 19 20
M  V30 20 1 20 21
M  V30 21 1 21 22
M  V30 22 1 22 23
M  V30 23 1 23 24
M  V30 24 1 24 25
M  V30 25 1 25 26
M  V30 26 1 26 27
M  V30 27 1 21 28
M  V30 28 1 17 29
M  V30 29 2 29 30
M  V30 30 2 8 31
M  V30 31 1 31 3
M  V30 32 1 30 11
M  V30 33 1 30 14
M  V30 34 2 28 18
M  V30 35 1 27 22
M  V30 36 1 4 32
M  V30 37 1 5 33
M  V30 38 1 12 34
M  V30 39 1 13 35
M  V30 40 1 16 36
M  V30 41 1 19 37
M  V30 42 1 22 38
M  V30 43 1 23 39
M  V30 44 1 23 40
M  V30 45 1 24 41
M  V30 46 1 24 42
M  V30 47 1 25 43
M  V30 48 1 26 44
M  V30 49 1 26 45
M  V30 50 1 27 46
M  V30 51 1 27 47
M  V30 52 1 28 48
M  V30 53 1 29 49
M  V30 54 1 31 50
M  V30 END BOND
M  V30 END CTAB
M  END
>  <Dataset>  (131) 
ChEMBL_Kinases

>  <Ligand_Instance>  (131) 
nan

>  <PDB_ID>  (131) 
nan

>  <Standardized_SMILES>  (131) 
N#Cc1ccc(Cl)c(C(=O)c2c[nH]c3ncc(-c4cnn(C5CCNCC5)c4)cc23)c1

>  <Name>  (131) 
nan

>  <Pocket>  (131) 
nan

>  <ATP_Site>  (131) 
nan

>  <Peripheral>  (131) 
nan

>  <Num_H_Atoms_ProtBoundConf>  (131) 
nan

>  <Num_Resolved_Atoms>  (131) 
nan

>  <Num_Not_Resolved_Atoms>  (131) 
nan

$$$$
CHEMBL3596914
     RDKit          3D

  0  0  0  0  0  0  0  0  0  0999 V3000
M  V30 BEGIN CTAB
M  V30 COUNTS 49 53 0 0 0
M  V30 BEGIN ATOM
M  V30 1 O 3.718687 -0.860788 -0.208609 0
M  V30 2 C 3.798239 0.365600 -0.556097 0
M  V30 3 C 4.268974 0.513470 -1.910628 0
M  V30 4 C 5.326341 -0.155611 -2.488462 0
M  V30 5 C 5.638642 0.113580 -3.807212 0
M  V30 6 C 4.904977 1.038310 -4.538857 0
M  V30 7 F 5.208536 1.303247 -5.829352 0
M  V30 8 C 3.836907 1.717328 -3.962933 0
M  V30 9 C 3.534094 1.432976 -2.626840 0
M  V30 10 Cl 2.165246 2.342371 -1.984114 0
M  V30 11 C 3.425065 1.365036 0.407479 0
M  V30 12 C 3.999435 2.553519 0.803337 0
M  V30 13 N 3.213590 3.094616 1.755345 0
M  V30 14 C 2.154256 2.293525 1.983835 0
M  V30 15 N 1.120637 2.436511 2.843377 0
M  V30 16 C 0.151652 1.528392 2.930956 0
M  V30 17 C 0.200639 0.402072 2.118604 0
M  V30 18 C -0.778676 -0.695721 2.082485 0
M  V30 19 C -0.617304 -2.037958 1.806272 0
M  V30 20 N -1.850064 -2.560785 1.919762 0
M  V30 21 N -2.750645 -1.676879 2.237175 0
M  V30 22 C -4.186630 -1.892139 2.443009 0
M  V30 23 C -4.492787 -2.851518 3.539563 0
M  V30 24 C -4.437959 -4.294709 3.183040 0
M  V30 25 N -4.984310 -4.589781 1.876160 0
M  V30 26 C -4.507657 -3.708279 0.853598 0
M  V30 27 C -4.874532 -2.286374 1.168551 0
M  V30 28 C -2.114778 -0.473197 2.351709 0
M  V30 29 C 1.238678 0.219375 1.228301 0
M  V30 30 C 2.250450 1.182022 1.146884 0
M  V30 31 H 5.849112 -0.858729 -1.857895 0
M  V30 32 H 6.461945 -0.405276 -4.260601 0
M  V30 33 H 3.292568 2.427818 -4.563412 0
M  V30 34 H 4.925112 2.924707 0.377104 0
M  V30 35 H 3.384278 4.000006 2.253087 0
M  V30 36 H -0.715945 1.536853 3.574994 0
M  V30 37 H 0.341061 -2.462722 1.563462 0
M  V30 38 H -4.656177 -0.911055 2.748610 0
M  V30 39 H -5.544204 -2.641333 3.884731 0
M  V30 40 H -3.816702 -2.689189 4.414153 0
M  V30 41 H -3.431532 -4.730382 3.348907 0
M  V30 42 H -5.096785 -4.850632 3.910745 0
M  V30 43 H -4.685154 -5.565555 1.651827 0
M  V30 44 H -3.435103 -3.782913 0.640186 0
M  V30 45 H -5.044431 -3.976467 -0.081338 0
M  V30 46 H -5.966790 -2.179164 1.348843 0
M  V30 47 H -4.557579 -1.594283 0.352059 0
M  V30 48 H -2.613172 0.467541 2.610981 0
M  V30 49 H 1.342697 -0.634889 0.562818 0
M  V30 END ATOM
M  V30 BEGIN BOND
M  V30 1 2 1 2
M  V30 2 1 2 3
M  V30 3 2 3 4
M  V30 4 1 4 5
M  V30 5 2 5 6
M  V30 6 1 6 7
M  V30 7 1 6 8
M  V30 8 2 8 9
M  V30 9 1 9 10
M  V30 10 1 2 11
M  V30 11 2 11 12
M  V30 12 1 12 13
M  V30 13 1 13 14
M  V30 14 2 14 15
M  V30 15 1 15 16
M  V30 16 2 16 17
M  V30 17 1 17 18
M  V30 18 1 18 19
M  V30 19 2 19 20
M  V30 20 1 20 21
M  V30 21 1 21 22
M  V30 22 1 22 23
M  V30 23 1 23 24
M  V30 24 1 24 25
M  V30 25 1 25 26
M  V30 26 1 26 27
M  V30 27 1 21 28
M  V30 28 1 17 29
M  V30 29 2 29 30
M  V30 30 1 9 3
M  V30 31 1 30 11
M  V30 32 1 30 14
M  V30 33 2 28 18
M  V30 34 1 27 22
M  V30 35 1 4 31
M  V30 36 1 5 32
M  V30 37 1 8 33
M  V30 38 1 12 34
M  V30 39 1 13 35
M  V30 40 1 16 36
M  V30 41 1 19 37
M  V30 42 1 22 38
M  V30 43 1 23 39
M  V30 44 1 23 40
M  V30 45 1 24 41
M  V30 46 1 24 42
M  V30 47 1 25 43
M  V30 48 1 26 44
M  V30 49 1 26 45
M  V30 50 1 27 46
M  V30 51 1 27 47
M  V30 52 1 28 48
M  V30 53 1 29 49
M  V30 END BOND
M  V30 END CTAB
M  END
>  <Dataset>  (132) 
ChEMBL_Kinases

>  <Ligand_Instance>  (132) 
nan

>  <PDB_ID>  (132) 
nan

>  <Standardized_SMILES>  (132) 
O=C(c1ccc(F)cc1Cl)c1c[nH]c2ncc(-c3cnn(C4CCNCC4)c3)cc12

>  <Name>  (132) 
nan

>  <Pocket>  (132) 
nan

>  <ATP_Site>  (132) 
nan

>  <Peripheral>  (132) 
nan

>  <Num_H_Atoms_ProtBoundConf>  (132) 
nan

>  <Num_Resolved_Atoms>  (132) 
nan

>  <Num_Not_Resolved_Atoms>  (132) 
nan

$$$$
CHEMBL3596915
     RDKit          3D

  0  0  0  0  0  0  0  0  0  0999 V3000
M  V30 BEGIN CTAB
M  V30 COUNTS 49 53 0 0 0
M  V30 BEGIN ATOM
M  V30 1 O 0.928339 2.211097 -0.663196 0
M  V30 2 C 2.149324 1.990862 -0.912523 0
M  V30 3 C 2.400333 2.157233 -2.336272 0
M  V30 4 C 3.185103 1.137883 -2.886257 0
M  V30 5 C 3.500029 1.176005 -4.246131 0
M  V30 6 C 3.003331 2.243474 -4.973036 0
M  V30 7 Cl 3.399422 2.294867 -6.688922 0
M  V30 8 C 2.224690 3.255129 -4.428126 0
M  V30 9 C 1.921726 3.199988 -3.073196 0
M  V30 10 Cl 0.943536 4.429759 -2.285573 0
M  V30 11 C 3.041397 1.632672 0.183892 0
M  V30 12 C 4.304922 2.015211 0.579125 0
M  V30 13 N 4.615237 1.325904 1.695239 0
M  V30 14 C 3.592071 0.515789 2.026008 0
M  V30 15 N 3.472591 -0.353668 3.071504 0
M  V30 16 C 2.346800 -1.087932 3.229733 0
M  V30 17 C 1.306535 -0.964495 2.334019 0
M  V30 18 C 0.061719 -1.717589 2.428635 0
M  V30 19 C -0.234313 -2.980040 2.897844 0
M  V30 20 N -1.554950 -3.177786 2.749961 0
M  V30 21 N -2.147995 -2.148081 2.222509 0
M  V30 22 C -3.528413 -1.916126 1.885744 0
M  V30 23 C -4.335274 -1.928705 3.160873 0
M  V30 24 C -4.183966 -3.253901 3.811985 0
M  V30 25 N -4.211351 -4.403574 3.019163 0
M  V30 26 C -4.070984 -4.347887 1.632350 0
M  V30 27 C -4.075509 -3.006338 0.995952 0
M  V30 28 C -1.159870 -1.228051 2.014731 0
M  V30 29 C 1.465834 -0.075701 1.291776 0
M  V30 30 C 2.592837 0.693141 1.089040 0
M  V30 31 H 3.576855 0.304280 -2.336893 0
M  V30 32 H 4.101333 0.404049 -4.692516 0
M  V30 33 H 1.852120 4.077699 -5.031702 0
M  V30 34 H 4.822523 2.755348 -0.017242 0
M  V30 35 H 5.540466 1.466087 2.166940 0
M  V30 36 H 2.240025 -1.786714 4.062039 0
M  V30 37 H 0.549849 -3.628235 3.301667 0
M  V30 38 H -3.656206 -0.963371 1.327398 0
M  V30 39 H -5.387513 -1.621995 2.996116 0
M  V30 40 H -3.862621 -1.156970 3.827573 0
M  V30 41 H -4.995484 -3.323570 4.597642 0
M  V30 42 H -3.231178 -3.240820 4.416076 0
M  V30 43 H -4.679362 -5.239911 3.416150 0
M  V30 44 H -3.123200 -4.886344 1.343329 0
M  V30 45 H -4.883102 -4.954534 1.145526 0
M  V30 46 H -5.099682 -2.731041 0.678447 0
M  V30 47 H -3.460851 -3.064693 0.058473 0
M  V30 48 H -1.321986 -0.237344 1.578655 0
M  V30 49 H 0.657768 0.031488 0.581072 0
M  V30 END ATOM
M  V30 BEGIN BOND
M  V30 1 2 1 2
M  V30 2 1 2 3
M  V30 3 2 3 4
M  V30 4 1 4 5
M  V30 5 2 5 6
M  V30 6 1 6 7
M  V30 7 1 6 8
M  V30 8 2 8 9
M  V30 9 1 9 10
M  V30 10 1 2 11
M  V30 11 2 11 12
M  V30 12 1 12 13
M  V30 13 1 13 14
M  V30 14 2 14 15
M  V30 15 1 15 16
M  V30 16 2 16 17
M  V30 17 1 17 18
M  V30 18 1 18 19
M  V30 19 2 19 20
M  V30 20 1 20 21
M  V30 21 1 21 22
M  V30 22 1 22 23
M  V30 23 1 23 24
M  V30 24 1 24 25
M  V30 25 1 25 26
M  V30 26 1 26 27
M  V30 27 1 21 28
M  V30 28 1 17 29
M  V30 29 2 29 30
M  V30 30 1 9 3
M  V30 31 1 30 11
M  V30 32 1 30 14
M  V30 33 2 28 18
M  V30 34 1 27 22
M  V30 35 1 4 31
M  V30 36 1 5 32
M  V30 37 1 8 33
M  V30 38 1 12 34
M  V30 39 1 13 35
M  V30 40 1 16 36
M  V30 41 1 19 37
M  V30 42 1 22 38
M  V30 43 1 23 39
M  V30 44 1 23 40
M  V30 45 1 24 41
M  V30 46 1 24 42
M  V30 47 1 25 43
M  V30 48 1 26 44
M  V30 49 1 26 45
M  V30 50 1 27 46
M  V30 51 1 27 47
M  V30 52 1 28 48
M  V30 53 1 29 49
M  V30 END BOND
M  V30 END CTAB
M  END
>  <Dataset>  (133) 
ChEMBL_Kinases

>  <Ligand_Instance>  (133) 
nan

>  <PDB_ID>  (133) 
nan

>  <Standardized_SMILES>  (133) 
O=C(c1ccc(Cl)cc1Cl)c1c[nH]c2ncc(-c3cnn(C4CCNCC4)c3)cc12

>  <Name>  (133) 
nan

>  <Pocket>  (133) 
nan

>  <ATP_Site>  (133) 
nan

>  <Peripheral>  (133) 
nan

>  <Num_H_Atoms_ProtBoundConf>  (133) 
nan

>  <Num_Resolved_Atoms>  (133) 
nan

>  <Num_Not_Resolved_Atoms>  (133) 
nan

$$$$
CHEMBL3596916
     RDKit          3D

  0  0  0  0  0  0  0  0  0  0999 V3000
M  V30 BEGIN CTAB
M  V30 COUNTS 50 54 0 0 0
M  V30 BEGIN ATOM
M  V30 1 N -0.257219 -6.133005 -2.164319 0
M  V30 2 C 0.503816 -5.273525 -2.050337 0
M  V30 3 C 1.457012 -4.229507 -1.907274 0
M  V30 4 C 1.482937 -3.165668 -2.781085 0
M  V30 5 C 2.392770 -2.135776 -2.671730 0
M  V30 6 C 3.321054 -2.156005 -1.652050 0
M  V30 7 C 4.377462 -1.215201 -1.305588 0
M  V30 8 O 5.541980 -1.652070 -1.013371 0
M  V30 9 C 4.181858 0.217493 -1.271391 0
M  V30 10 C 4.894565 1.301991 -1.723856 0
M  V30 11 N 4.271797 2.463337 -1.436554 0
M  V30 12 C 3.119574 2.139079 -0.778282 0
M  V30 13 N 2.150290 2.942524 -0.281845 0
M  V30 14 C 1.068107 2.460321 0.342726 0
M  V30 15 C 0.942270 1.096988 0.482191 0
M  V30 16 C -0.164580 0.399399 1.121995 0
M  V30 17 C -0.256332 -0.788911 1.834327 0
M  V30 18 N -1.547855 -0.894717 2.157273 0
M  V30 19 N -2.262533 0.112745 1.713222 0
M  V30 20 C -3.692386 0.355462 1.856450 0
M  V30 21 C -3.851474 1.243805 3.083003 0
M  V30 22 C -3.105298 0.546953 4.178449 0
M  V30 23 N -3.552697 -0.766196 4.490364 0
M  V30 24 C -3.976932 -1.587221 3.414723 0
M  V30 25 C -4.443118 -0.903235 2.178474 0
M  V30 26 C -1.438955 0.968852 1.047051 0
M  V30 27 C 1.939607 0.259445 -0.027703 0
M  V30 28 C 3.050714 0.758736 -0.669507 0
M  V30 29 C 3.317480 -3.218569 -0.755378 0
M  V30 30 Cl 4.409896 -3.436869 0.608888 0
M  V30 31 C 2.394223 -4.260505 -0.869246 0
M  V30 32 H 0.777549 -3.074500 -3.619863 0
M  V30 33 H 2.501267 -1.262303 -3.294632 0
M  V30 34 H 5.837017 1.127218 -2.238455 0
M  V30 35 H 4.661111 3.378888 -1.699886 0
M  V30 36 H 0.278783 3.046538 0.750533 0
M  V30 37 H 0.612236 -1.394538 2.012902 0
M  V30 38 H -4.113541 0.794119 0.947427 0
M  V30 39 H -4.943485 1.322434 3.277953 0
M  V30 40 H -3.393665 2.235991 2.930588 0
M  V30 41 H -2.024585 0.631076 3.943653 0
M  V30 42 H -3.259641 1.176081 5.099798 0
M  V30 43 H -2.717483 -1.259775 4.930140 0
M  V30 44 H -3.242937 -2.383518 3.116578 0
M  V30 45 H -4.861783 -2.180136 3.793744 0
M  V30 46 H -4.408490 -1.630560 1.334264 0
M  V30 47 H -5.514470 -0.593056 2.321694 0
M  V30 48 H -1.766573 1.903486 0.568924 0
M  V30 49 H 1.881398 -0.816339 0.060231 0
M  V30 50 H 2.330780 -5.112694 -0.215944 0
M  V30 END ATOM
M  V30 BEGIN BOND
M  V30 1 3 1 2
M  V30 2 1 2 3
M  V30 3 2 3 4
M  V30 4 1 4 5
M  V30 5 2 5 6
M  V30 6 1 6 7
M  V30 7 2 7 8
M  V30 8 1 7 9
M  V30 9 2 9 10
M  V30 10 1 10 11
M  V30 11 1 11 12
M  V30 12 2 12 13
M  V30 13 1 13 14
M  V30 14 2 14 15
M  V30 15 1 15 16
M  V30 16 1 16 17
M  V30 17 2 17 18
M  V30 18 1 18 19
M  V30 19 1 19 20
M  V30 20 1 20 21
M  V30 21 1 21 22
M  V30 22 1 22 23
M  V30 23 1 23 24
M  V30 24 1 24 25
M  V30 25 1 19 26
M  V30 26 1 15 27
M  V30 27 2 27 28
M  V30 28 1 6 29
M  V30 29 1 29 30
M  V30 30 2 29 31
M  V30 31 1 31 3
M  V30 32 1 28 9
M  V30 33 1 28 12
M  V30 34 2 26 16
M  V30 35 1 25 20
M  V30 36 1 4 32
M  V30 37 1 5 33
M  V30 38 1 10 34
M  V30 39 1 11 35
M  V30 40 1 14 36
M  V30 41 1 17 37
M  V30 42 1 20 38
M  V30 43 1 21 39
M  V30 44 1 21 40
M  V30 45 1 22 41
M  V30 46 1 22 42
M  V30 47 1 23 43
M  V30 48 1 24 44
M  V30 49 1 24 45
M  V30 50 1 25 46
M  V30 51 1 25 47
M  V30 52 1 26 48
M  V30 53 1 27 49
M  V30 54 1 31 50
M  V30 END BOND
M  V30 END CTAB
M  END
>  <Dataset>  (134) 
ChEMBL_Kinases

>  <Ligand_Instance>  (134) 
nan

>  <PDB_ID>  (134) 
nan

>  <Standardized_SMILES>  (134) 
N#Cc1ccc(C(=O)c2c[nH]c3ncc(-c4cnn(C5CCNCC5)c4)cc23)c(Cl)c1

>  <Name>  (134) 
nan

>  <Pocket>  (134) 
nan

>  <ATP_Site>  (134) 
nan

>  <Peripheral>  (134) 
nan

>  <Num_H_Atoms_ProtBoundConf>  (134) 
nan

>  <Num_Resolved_Atoms>  (134) 
nan

>  <Num_Not_Resolved_Atoms>  (134) 
nan

$$$$
CHEMBL3596926
     RDKit          3D

  0  0  0  0  0  0  0  0  0  0999 V3000
M  V30 BEGIN CTAB
M  V30 COUNTS 55 59 0 0 0
M  V30 BEGIN ATOM
M  V30 1 C 2.928014 0.512572 4.337906 0
M  V30 2 O 2.683046 1.089930 3.071845 0
M  V30 3 C 3.540244 0.809060 2.034510 0
M  V30 4 N 4.644614 0.043454 1.967159 0
M  V30 5 N 5.132627 0.084118 0.746207 0
M  V30 6 C 6.334491 -0.662889 0.402295 0
M  V30 7 C 4.385710 0.868386 -0.045790 0
M  V30 8 C 3.375565 1.334744 0.751074 0
M  V30 9 C 2.303632 2.233275 0.329116 0
M  V30 10 C 2.551315 3.349519 -0.440119 0
M  V30 11 N 1.526412 4.165508 -0.815147 0
M  V30 12 C 0.267988 3.875216 -0.429654 0
M  V30 13 N -0.920135 4.503298 -0.656661 0
M  V30 14 C -1.926316 3.813649 -0.049142 0
M  V30 15 C -1.347031 2.715337 0.580137 0
M  V30 16 C -2.154918 1.756706 1.333332 0
M  V30 17 O -3.075819 1.949808 2.166896 0
M  V30 18 C -1.874112 0.340648 1.105600 0
M  V30 19 C -1.765182 -0.573692 2.134088 0
M  V30 20 C -1.495278 -1.906162 1.827091 0
M  V30 21 C -1.327244 -2.369170 0.514858 0
M  V30 22 C -1.043480 -3.818406 0.456483 0
M  V30 23 O -2.094776 -4.679603 0.417233 0
M  V30 24 C -3.129990 -4.894717 -0.412213 0
M  V30 25 C -3.562826 -4.322447 -1.589002 0
M  V30 26 C -4.688610 -4.733837 -2.268879 0
M  V30 27 C -5.431562 -5.774361 -1.753927 0
M  V30 28 C -5.060619 -6.396480 -0.580593 0
M  V30 29 C -3.911547 -5.951775 0.082358 0
M  V30 30 F -3.698440 -6.678635 1.219460 0
M  V30 31 C -1.442752 -1.426846 -0.487570 0
M  V30 32 C -1.709964 -0.106027 -0.190854 0
M  V30 33 Cl -1.825380 0.962451 -1.582350 0
M  V30 34 C 0.012929 2.757120 0.341929 0
M  V30 35 C 1.008566 1.903695 0.746017 0
M  V30 36 H 3.753118 1.118608 4.806949 0
M  V30 37 H 2.054949 0.651616 5.027430 0
M  V30 38 H 3.265533 -0.524048 4.287674 0
M  V30 39 H 7.177950 -0.119574 0.863018 0
M  V30 40 H 6.416697 -0.754196 -0.688576 0
M  V30 41 H 6.299521 -1.657850 0.893151 0
M  V30 42 H 4.598163 1.050742 -1.094611 0
M  V30 43 H 3.574383 3.582975 -0.751795 0
M  V30 44 H -1.022990 5.368812 -1.207391 0
M  V30 45 H -2.965444 4.136557 -0.099472 0
M  V30 46 H -1.892568 -0.227197 3.140295 0
M  V30 47 H -1.430351 -2.540020 2.712785 0
M  V30 48 H -0.443924 -3.961371 -0.492427 0
M  V30 49 H -0.312773 -4.085011 1.260789 0
M  V30 50 H -2.913508 -3.527242 -1.898279 0
M  V30 51 H -4.902434 -4.186323 -3.182111 0
M  V30 52 H -6.298977 -6.037347 -2.345407 0
M  V30 53 H -5.699807 -7.185993 -0.270140 0
M  V30 54 H -1.296766 -1.851614 -1.469915 0
M  V30 55 H 0.775138 1.034095 1.351592 0
M  V30 END ATOM
M  V30 BEGIN BOND
M  V30 1 1 1 2
M  V30 2 1 2 3
M  V30 3 2 3 4
M  V30 4 1 4 5
M  V30 5 1 5 6
M  V30 6 1 5 7
M  V30 7 2 7 8
M  V30 8 1 8 9
M  V30 9 2 9 10
M  V30 10 1 10 11
M  V30 11 2 11 12
M  V30 12 1 12 13
M  V30 13 1 13 14
M  V30 14 2 14 15
M  V30 15 1 15 16
M  V30 16 2 16 17
M  V30 17 1 16 18
M  V30 18 2 18 19
M  V30 19 1 19 20
M  V30 20 2 20 21
M  V30 21 1 21 22
M  V30 22 1 22 23
M  V30 23 1 23 24
M  V30 24 2 24 25
M  V30 25 1 25 26
M  V30 26 2 26 27
M  V30 27 1 27 28
M  V30 28 2 28 29
M  V30 29 1 29 30
M  V30 30 1 21 31
M  V30 31 2 31 32
M  V30 32 1 32 33
M  V30 33 1 15 34
M  V30 34 2 34 35
M  V30 35 1 8 3
M  V30 36 1 35 9
M  V30 37 1 34 12
M  V30 38 1 32 18
M  V30 39 1 29 24
M  V30 40 1 1 36
M  V30 41 1 1 37
M  V30 42 1 1 38
M  V30 43 1 6 39
M  V30 44 1 6 40
M  V30 45 1 6 41
M  V30 46 1 7 42
M  V30 47 1 10 43
M  V30 48 1 13 44
M  V30 49 1 14 45
M  V30 50 1 19 46
M  V30 51 1 20 47
M  V30 52 1 22 48
M  V30 53 1 22 49
M  V30 54 1 25 50
M  V30 55 1 26 51
M  V30 56 1 27 52
M  V30 57 1 28 53
M  V30 58 1 31 54
M  V30 59 1 35 55
M  V30 END BOND
M  V30 END CTAB
M  END
>  <Dataset>  (135) 
ChEMBL_Kinases

>  <Ligand_Instance>  (135) 
nan

>  <PDB_ID>  (135) 
nan

>  <Standardized_SMILES>  (135) 
COc1nn(C)cc1-c1cnc2[nH]cc(C(=O)c3ccc(COc4ccccc4F)cc3Cl)c2c1

>  <Name>  (135) 
nan

>  <Pocket>  (135) 
nan

>  <ATP_Site>  (135) 
nan

>  <Peripheral>  (135) 
nan

>  <Num_H_Atoms_ProtBoundConf>  (135) 
nan

>  <Num_Resolved_Atoms>  (135) 
nan

>  <Num_Not_Resolved_Atoms>  (135) 
nan

$$$$
CHEMBL3596918
     RDKit          3D

  0  0  0  0  0  0  0  0  0  0999 V3000
M  V30 BEGIN CTAB
M  V30 COUNTS 55 59 0 0 0
M  V30 BEGIN ATOM
M  V30 1 C 5.260005 -3.500313 2.256531 0
M  V30 2 S 3.571806 -3.024905 2.009313 0
M  V30 3 O 2.876933 -4.148407 1.307995 0
M  V30 4 O 2.958212 -2.821187 3.383944 0
M  V30 5 C 3.482847 -1.542715 1.108431 0
M  V30 6 C 3.474104 -0.368147 1.830345 0
M  V30 7 C 3.404679 0.829211 1.148981 0
M  V30 8 C 3.343845 0.866381 -0.248769 0
M  V30 9 C 3.275332 2.212041 -0.809374 0
M  V30 10 O 4.010119 2.475095 -1.788179 0
M  V30 11 C 2.336784 3.153018 -0.166611 0
M  V30 12 C 2.569731 4.460625 0.178767 0
M  V30 13 N 1.460327 4.971971 0.742828 0
M  V30 14 C 0.481916 4.050281 0.790445 0
M  V30 15 N -0.802490 3.990133 1.229591 0
M  V30 16 C -1.544043 2.862526 1.124686 0
M  V30 17 C -1.067306 1.712718 0.577437 0
M  V30 18 C -1.761823 0.456283 0.413025 0
M  V30 19 C -1.531361 -0.447007 -0.625862 0
M  V30 20 N -2.347058 -1.506109 -0.472844 0
M  V30 21 N -3.087287 -1.327410 0.609698 0
M  V30 22 C -4.063375 -2.316037 1.024472 0
M  V30 23 C -5.252605 -2.206621 0.107832 0
M  V30 24 C -5.542828 -3.548809 -0.510870 0
M  V30 25 N -4.388900 -3.957125 -1.286945 0
M  V30 26 C -3.228104 -4.166884 -0.473887 0
M  V30 27 C -3.365245 -3.658447 0.927532 0
M  V30 28 C -2.742589 -0.146503 1.152154 0
M  V30 29 C 0.256165 1.788952 0.129554 0
M  V30 30 C 1.034067 2.919784 0.222460 0
M  V30 31 C 3.354464 -0.327113 -0.942105 0
M  V30 32 Cl 3.275627 -0.196447 -2.687313 0
M  V30 33 C 3.423613 -1.530063 -0.270161 0
M  V30 34 H 5.949270 -2.792423 1.744603 0
M  V30 35 H 5.561898 -3.462699 3.331537 0
M  V30 36 H 5.469363 -4.522729 1.856364 0
M  V30 37 H 3.520343 -0.366205 2.906614 0
M  V30 38 H 3.399766 1.748166 1.754848 0
M  V30 39 H 3.525750 4.941141 -0.005644 0
M  V30 40 H 1.351188 5.955882 1.104512 0
M  V30 41 H -2.575439 2.833055 1.483224 0
M  V30 42 H -0.814689 -0.336524 -1.439370 0
M  V30 43 H -4.363514 -2.177578 2.091237 0
M  V30 44 H -6.126729 -1.885821 0.713282 0
M  V30 45 H -5.101763 -1.494288 -0.723760 0
M  V30 46 H -5.740406 -4.304389 0.260882 0
M  V30 47 H -6.380839 -3.416178 -1.225065 0
M  V30 48 H -4.243591 -3.352866 -2.112206 0
M  V30 49 H -2.311688 -3.826267 -1.001160 0
M  V30 50 H -3.089591 -5.284590 -0.385812 0
M  V30 51 H -2.330451 -3.494810 1.316975 0
M  V30 52 H -3.833033 -4.428560 1.561983 0
M  V30 53 H -3.178984 0.263523 2.042245 0
M  V30 54 H 0.702216 0.899569 -0.321764 0
M  V30 55 H 3.430443 -2.445111 -0.839378 0
M  V30 END ATOM
M  V30 BEGIN BOND
M  V30 1 1 1 2
M  V30 2 2 2 3
M  V30 3 2 2 4
M  V30 4 1 2 5
M  V30 5 2 5 6
M  V30 6 1 6 7
M  V30 7 2 7 8
M  V30 8 1 8 9
M  V30 9 2 9 10
M  V30 10 1 9 11
M  V30 11 2 11 12
M  V30 12 1 12 13
M  V30 13 1 13 14
M  V30 14 2 14 15
M  V30 15 1 15 16
M  V30 16 2 16 17
M  V30 17 1 17 18
M  V30 18 1 18 19
M  V30 19 2 19 20
M  V30 20 1 20 21
M  V30 21 1 21 22
M  V30 22 1 22 23
M  V30 23 1 23 24
M  V30 24 1 24 25
M  V30 25 1 25 26
M  V30 26 1 26 27
M  V30 27 1 21 28
M  V30 28 1 17 29
M  V30 29 2 29 30
M  V30 30 1 8 31
M  V30 31 1 31 32
M  V30 32 2 31 33
M  V30 33 1 33 5
M  V30 34 1 30 11
M  V30 35 1 30 14
M  V30 36 2 28 18
M  V30 37 1 27 22
M  V30 38 1 1 34
M  V30 39 1 1 35
M  V30 40 1 1 36
M  V30 41 1 6 37
M  V30 42 1 7 38
M  V30 43 1 12 39
M  V30 44 1 13 40
M  V30 45 1 16 41
M  V30 46 1 19 42
M  V30 47 1 22 43
M  V30 48 1 23 44
M  V30 49 1 23 45
M  V30 50 1 24 46
M  V30 51 1 24 47
M  V30 52 1 25 48
M  V30 53 1 26 49
M  V30 54 1 26 50
M  V30 55 1 27 51
M  V30 56 1 27 52
M  V30 57 1 28 53
M  V30 58 1 29 54
M  V30 59 1 33 55
M  V30 END BOND
M  V30 END CTAB
M  END
>  <Dataset>  (136) 
ChEMBL_Kinases

>  <Ligand_Instance>  (136) 
nan

>  <PDB_ID>  (136) 
nan

>  <Standardized_SMILES>  (136) 
CS(=O)(=O)c1ccc(C(=O)c2c[nH]c3ncc(-c4cnn(C5CCNCC5)c4)cc23)c(Cl)c1

>  <Name>  (136) 
nan

>  <Pocket>  (136) 
nan

>  <ATP_Site>  (136) 
nan

>  <Peripheral>  (136) 
nan

>  <Num_H_Atoms_ProtBoundConf>  (136) 
nan

>  <Num_Resolved_Atoms>  (136) 
nan

>  <Num_Not_Resolved_Atoms>  (136) 
nan

$$$$
CHEMBL3596919
     RDKit          3D

  0  0  0  0  0  0  0  0  0  0999 V3000
M  V30 BEGIN CTAB
M  V30 COUNTS 53 57 0 0 0
M  V30 BEGIN ATOM
M  V30 1 O 1.430067 -0.057170 2.465173 0
M  V30 2 C 1.885117 1.075384 2.096481 0
M  V30 3 C 3.329231 1.019107 1.925770 0
M  V30 4 C 3.992107 1.565746 0.835460 0
M  V30 5 C 5.372421 1.479842 0.729530 0
M  V30 6 C 6.111339 0.857815 1.691269 0
M  V30 7 C 7.600639 0.754338 1.596281 0
M  V30 8 O 8.233080 1.822899 2.189801 0
M  V30 9 C 5.479498 0.301353 2.793058 0
M  V30 10 C 4.101463 0.392329 2.889618 0
M  V30 11 Cl 3.306476 -0.301677 4.265361 0
M  V30 12 C 0.931651 2.165916 1.920759 0
M  V30 13 C 0.948090 3.487725 2.305415 0
M  V30 14 N -0.207714 4.040885 1.873171 0
M  V30 15 C -0.948327 3.108850 1.229954 0
M  V30 16 N -2.161979 3.179693 0.630931 0
M  V30 17 C -2.724388 2.108520 0.039150 0
M  V30 18 C -2.090110 0.903414 0.019772 0
M  V30 19 C -2.590520 -0.342071 -0.589779 0
M  V30 20 C -3.392754 -0.517155 -1.699040 0
M  V30 21 N -3.561806 -1.830573 -1.841206 0
M  V30 22 N -2.928461 -2.502692 -0.907305 0
M  V30 23 C -2.812678 -3.944930 -0.642481 0
M  V30 24 C -3.588282 -4.326051 0.591667 0
M  V30 25 C -5.068611 -4.394300 0.388466 0
M  V30 26 N -5.472560 -4.512633 -0.998163 0
M  V30 27 C -4.562417 -5.331270 -1.747089 0
M  V30 28 C -3.184806 -4.709726 -1.867509 0
M  V30 29 C -2.303955 -1.618375 -0.097477 0
M  V30 30 C -0.851991 0.853751 0.637295 0
M  V30 31 C -0.248388 1.920030 1.248663 0
M  V30 32 H 3.405449 2.060574 0.070127 0
M  V30 33 H 5.882817 1.907803 -0.122953 0
M  V30 34 H 7.905901 0.693185 0.522447 0
M  V30 35 H 7.903482 -0.218698 2.081793 0
M  V30 36 H 8.578754 1.508211 3.073262 0
M  V30 37 H 6.017235 -0.202811 3.583724 0
M  V30 38 H 1.778063 3.922210 2.852545 0
M  V30 39 H -0.445138 5.064384 2.043222 0
M  V30 40 H -3.701618 2.146186 -0.448670 0
M  V30 41 H -3.788023 0.283770 -2.309314 0
M  V30 42 H -1.738023 -4.184967 -0.402669 0
M  V30 43 H -3.165540 -5.308586 0.935972 0
M  V30 44 H -3.286871 -3.605509 1.386717 0
M  V30 45 H -5.614834 -3.539006 0.838110 0
M  V30 46 H -5.422197 -5.340409 0.884027 0
M  V30 47 H -5.680031 -3.621755 -1.467784 0
M  V30 48 H -4.977494 -5.487053 -2.765425 0
M  V30 49 H -4.462120 -6.325563 -1.274173 0
M  V30 50 H -2.452526 -5.505652 -2.062413 0
M  V30 51 H -3.177853 -4.010047 -2.745123 0
M  V30 52 H -1.688943 -1.803538 0.775612 0
M  V30 53 H -0.305856 -0.095683 0.645573 0
M  V30 END ATOM
M  V30 BEGIN BOND
M  V30 1 2 1 2
M  V30 2 1 2 3
M  V30 3 2 3 4
M  V30 4 1 4 5
M  V30 5 2 5 6
M  V30 6 1 6 7
M  V30 7 1 7 8
M  V30 8 1 6 9
M  V30 9 2 9 10
M  V30 10 1 10 11
M  V30 11 1 2 12
M  V30 12 2 12 13
M  V30 13 1 13 14
M  V30 14 1 14 15
M  V30 15 2 15 16
M  V30 16 1 16 17
M  V30 17 2 17 18
M  V30 18 1 18 19
M  V30 19 1 19 20
M  V30 20 2 20 21
M  V30 21 1 21 22
M  V30 22 1 22 23
M  V30 23 1 23 24
M  V30 24 1 24 25
M  V30 25 1 25 26
M  V30 26 1 26 27
M  V30 27 1 27 28
M  V30 28 1 22 29
M  V30 29 1 18 30
M  V30 30 2 30 31
M  V30 31 1 10 3
M  V30 32 1 31 12
M  V30 33 1 31 15
M  V30 34 2 29 19
M  V30 35 1 28 23
M  V30 36 1 4 32
M  V30 37 1 5 33
M  V30 38 1 7 34
M  V30 39 1 7 35
M  V30 40 1 8 36
M  V30 41 1 9 37
M  V30 42 1 13 38
M  V30 43 1 14 39
M  V30 44 1 17 40
M  V30 45 1 20 41
M  V30 46 1 23 42
M  V30 47 1 24 43
M  V30 48 1 24 44
M  V30 49 1 25 45
M  V30 50 1 25 46
M  V30 51 1 26 47
M  V30 52 1 27 48
M  V30 53 1 27 49
M  V30 54 1 28 50
M  V30 55 1 28 51
M  V30 56 1 29 52
M  V30 57 1 30 53
M  V30 END BOND
M  V30 END CTAB
M  END
>  <Dataset>  (137) 
ChEMBL_Kinases

>  <Ligand_Instance>  (137) 
nan

>  <PDB_ID>  (137) 
nan

>  <Standardized_SMILES>  (137) 
O=C(c1ccc(CO)cc1Cl)c1c[nH]c2ncc(-c3cnn(C4CCNCC4)c3)cc12

>  <Name>  (137) 
nan

>  <Pocket>  (137) 
nan

>  <ATP_Site>  (137) 
nan

>  <Peripheral>  (137) 
nan

>  <Num_H_Atoms_ProtBoundConf>  (137) 
nan

>  <Num_Resolved_Atoms>  (137) 
nan

>  <Num_Not_Resolved_Atoms>  (137) 
nan

$$$$
CHEMBL3596920
     RDKit          3D

  0  0  0  0  0  0  0  0  0  0999 V3000
M  V30 BEGIN CTAB
M  V30 COUNTS 56 60 0 0 0
M  V30 BEGIN ATOM
M  V30 1 C 0.277859 -2.718750 3.040237 0
M  V30 2 O -0.036019 -3.774568 2.177772 0
M  V30 3 C 1.100268 -4.223786 1.504289 0
M  V30 4 C 1.720379 -3.151286 0.685718 0
M  V30 5 C 2.701912 -2.288414 1.179761 0
M  V30 6 C 3.202059 -1.332846 0.330549 0
M  V30 7 C 2.777558 -1.193960 -0.975942 0
M  V30 8 C 3.373770 -0.132507 -1.817847 0
M  V30 9 O 3.780092 -0.225380 -3.011981 0
M  V30 10 C 3.466243 1.148378 -1.100085 0
M  V30 11 C 4.527271 2.046481 -1.040925 0
M  V30 12 N 4.190608 3.095130 -0.271191 0
M  V30 13 C 2.936247 2.946788 0.198857 0
M  V30 14 N 2.134944 3.699985 1.001050 0
M  V30 15 C 0.882248 3.308797 1.327975 0
M  V30 16 C 0.370440 2.118137 0.851943 0
M  V30 17 C -0.963771 1.592347 1.135078 0
M  V30 18 C -1.785476 1.707012 2.250804 0
M  V30 19 N -2.918742 1.022018 1.982661 0
M  V30 20 N -2.866663 0.487949 0.781919 0
M  V30 21 C -3.911409 -0.312654 0.170131 0
M  V30 22 C -4.429838 -1.350232 1.134830 0
M  V30 23 C -4.610391 -2.701083 0.476893 0
M  V30 24 N -3.407833 -3.242629 -0.078691 0
M  V30 25 C -2.576239 -2.237866 -0.710124 0
M  V30 26 C -3.405088 -1.031832 -1.062203 0
M  V30 27 C -1.680349 0.824046 0.246122 0
M  V30 28 C 1.217533 1.380210 0.038002 0
M  V30 29 C 2.498726 1.744767 -0.317151 0
M  V30 30 C 1.794359 -2.063085 -1.461300 0
M  V30 31 Cl 1.265695 -1.881248 -3.110495 0
M  V30 32 C 1.279033 -3.033942 -0.615400 0
M  V30 33 H 1.027030 -3.072113 3.788898 0
M  V30 34 H -0.601302 -2.385467 3.615466 0
M  V30 35 H 0.691544 -1.843071 2.532103 0
M  V30 36 H 0.946685 -5.166812 0.986251 0
M  V30 37 H 1.844490 -4.436313 2.318588 0
M  V30 38 H 3.020228 -2.416199 2.211362 0
M  V30 39 H 3.962049 -0.652004 0.686654 0
M  V30 40 H 5.462621 1.862925 -1.566307 0
M  V30 41 H 4.834518 3.910713 -0.074466 0
M  V30 42 H 0.234072 3.892492 1.963637 0
M  V30 43 H -1.471856 2.270328 3.126481 0
M  V30 44 H -4.698999 0.383495 -0.176798 0
M  V30 45 H -5.444746 -1.039015 1.460771 0
M  V30 46 H -3.786240 -1.392810 2.020057 0
M  V30 47 H -5.389874 -2.566135 -0.319268 0
M  V30 48 H -4.978789 -3.388673 1.269293 0
M  V30 49 H -2.881396 -3.847368 0.565662 0
M  V30 50 H -2.201075 -2.669851 -1.657018 0
M  V30 51 H -1.711546 -1.936399 -0.088258 0
M  V30 52 H -2.855800 -0.385063 -1.753317 0
M  V30 53 H -4.291752 -1.419158 -1.620191 0
M  V30 54 H -1.342348 0.530954 -0.740165 0
M  V30 55 H 0.844711 0.440705 -0.350553 0
M  V30 56 H 0.505855 -3.707000 -1.017294 0
M  V30 END ATOM
M  V30 BEGIN BOND
M  V30 1 1 1 2
M  V30 2 1 2 3
M  V30 3 1 3 4
M  V30 4 2 4 5
M  V30 5 1 5 6
M  V30 6 2 6 7
M  V30 7 1 7 8
M  V30 8 2 8 9
M  V30 9 1 8 10
M  V30 10 2 10 11
M  V30 11 1 11 12
M  V30 12 1 12 13
M  V30 13 2 13 14
M  V30 14 1 14 15
M  V30 15 2 15 16
M  V30 16 1 16 17
M  V30 17 1 17 18
M  V30 18 2 18 19
M  V30 19 1 19 20
M  V30 20 1 20 21
M  V30 21 1 21 22
M  V30 22 1 22 23
M  V30 23 1 23 24
M  V30 24 1 24 25
M  V30 25 1 25 26
M  V30 26 1 20 27
M  V30 27 1 16 28
M  V30 28 2 28 29
M  V30 29 1 7 30
M  V30 30 1 30 31
M  V30 31 2 30 32
M  V30 32 1 32 4
M  V30 33 1 29 10
M  V30 34 1 29 13
M  V30 35 2 27 17
M  V30 36 1 26 21
M  V30 37 1 1 33
M  V30 38 1 1 34
M  V30 39 1 1 35
M  V30 40 1 3 36
M  V30 41 1 3 37
M  V30 42 1 5 38
M  V30 43 1 6 39
M  V30 44 1 11 40
M  V30 45 1 12 41
M  V30 46 1 15 42
M  V30 47 1 18 43
M  V30 48 1 21 44
M  V30 49 1 22 45
M  V30 50 1 22 46
M  V30 51 1 23 47
M  V30 52 1 23 48
M  V30 53 1 24 49
M  V30 54 1 25 50
M  V30 55 1 25 51
M  V30 56 1 26 52
M  V30 57 1 26 53
M  V30 58 1 27 54
M  V30 59 1 28 55
M  V30 60 1 32 56
M  V30 END BOND
M  V30 END CTAB
M  END
>  <Dataset>  (138) 
ChEMBL_Kinases

>  <Ligand_Instance>  (138) 
nan

>  <PDB_ID>  (138) 
nan

>  <Standardized_SMILES>  (138) 
COCc1ccc(C(=O)c2c[nH]c3ncc(-c4cnn(C5CCNCC5)c4)cc23)c(Cl)c1

>  <Name>  (138) 
nan

>  <Pocket>  (138) 
nan

>  <ATP_Site>  (138) 
nan

>  <Peripheral>  (138) 
nan

>  <Num_H_Atoms_ProtBoundConf>  (138) 
nan

>  <Num_Resolved_Atoms>  (138) 
nan

>  <Num_Not_Resolved_Atoms>  (138) 
nan

$$$$
CHEMBL3596921
     RDKit          3D

  0  0  0  0  0  0  0  0  0  0999 V3000
M  V30 BEGIN CTAB
M  V30 COUNTS 63 68 0 0 0
M  V30 BEGIN ATOM
M  V30 1 O 2.208509 -4.441449 5.087135 0
M  V30 2 C 2.050509 -4.106903 3.880793 0
M  V30 3 C 2.245121 -2.774201 3.349441 0
M  V30 4 C 2.915335 -2.456026 2.185013 0
M  V30 5 C 3.003029 -1.124568 1.831059 0
M  V30 6 C 2.432468 -0.155462 2.628556 0
M  V30 7 C 2.549591 1.264046 2.211451 0
M  V30 8 O 1.480540 1.672033 1.392532 0
M  V30 9 C 1.475096 2.982711 0.935440 0
M  V30 10 C 2.403481 3.979016 1.179125 0
M  V30 11 C 2.264892 5.230034 0.658232 0
M  V30 12 C 1.137090 5.448238 -0.132272 0
M  V30 13 C 0.183354 4.504135 -0.410062 0
M  V30 14 C 0.358136 3.233708 0.140502 0
M  V30 15 C 1.756002 -0.447775 3.799378 0
M  V30 16 C 1.668481 -1.781698 4.153435 0
M  V30 17 Cl 0.806151 -2.115090 5.639830 0
M  V30 18 C 1.641604 -5.011582 2.805484 0
M  V30 19 C 2.143837 -6.294242 2.575232 0
M  V30 20 N 1.532028 -6.822301 1.500954 0
M  V30 21 C 0.635653 -5.950418 0.993434 0
M  V30 22 N -0.230477 -5.960109 -0.049193 0
M  V30 23 C -1.034172 -4.918738 -0.335945 0
M  V30 24 C -1.003133 -3.775846 0.441858 0
M  V30 25 C -1.826441 -2.576207 0.233829 0
M  V30 26 C -2.248352 -1.759617 1.276688 0
M  V30 27 N -2.974868 -0.762043 0.741890 0
M  V30 28 N -3.025974 -0.918208 -0.586757 0
M  V30 29 C -3.735822 -0.006012 -1.466321 0
M  V30 30 C -4.076789 -0.628286 -2.786282 0
M  V30 31 C -3.136442 -0.289088 -3.888419 0
M  V30 32 N -2.719510 1.072774 -3.968817 0
M  V30 33 C -3.257940 1.937712 -2.965280 0
M  V30 34 C -2.981738 1.297361 -1.613674 0
M  V30 35 C -2.329228 -2.024997 -0.929908 0
M  V30 36 C -0.104478 -3.786648 1.510110 0
M  V30 37 C 0.712618 -4.850194 1.798527 0
M  V30 38 H 3.331101 -3.282880 1.622754 0
M  V30 39 H 3.527621 -0.870250 0.918807 0
M  V30 40 H 3.482477 1.385811 1.613159 0
M  V30 41 H 2.605201 1.891472 3.101983 0
M  V30 42 H 3.232958 3.665289 1.813609 0
M  V30 43 H 3.000224 5.987797 0.862122 0
M  V30 44 H 1.007579 6.448293 -0.560608 0
M  V30 45 H -0.675567 4.732988 -1.033790 0
M  V30 46 H -0.421956 2.522396 -0.107684 0
M  V30 47 H 1.319767 0.340587 4.401574 0
M  V30 48 H 2.901624 -6.779317 3.167704 0
M  V30 49 H 1.671803 -7.774764 1.051012 0
M  V30 50 H -1.731789 -4.911108 -1.165753 0
M  V30 51 H -2.048074 -1.872169 2.351092 0
M  V30 52 H -4.686575 0.237369 -0.947721 0
M  V30 53 H -5.138416 -0.460749 -3.040614 0
M  V30 54 H -3.996500 -1.742573 -2.631827 0
M  V30 55 H -3.673485 -0.506717 -4.852769 0
M  V30 56 H -2.234664 -0.941635 -3.918661 0
M  V30 57 H -1.721091 1.240752 -4.118698 0
M  V30 58 H -4.310000 2.189319 -3.123051 0
M  V30 59 H -2.686327 2.888265 -2.992308 0
M  V30 60 H -3.201609 2.033174 -0.827690 0
M  V30 61 H -1.888767 1.103540 -1.601456 0
M  V30 62 H -2.177054 -2.423912 -1.901861 0
M  V30 63 H -0.062108 -2.917606 2.123970 0
M  V30 END ATOM
M  V30 BEGIN BOND
M  V30 1 2 1 2
M  V30 2 1 2 3
M  V30 3 2 3 4
M  V30 4 1 4 5
M  V30 5 2 5 6
M  V30 6 1 6 7
M  V30 7 1 7 8
M  V30 8 1 8 9
M  V30 9 2 9 10
M  V30 10 1 10 11
M  V30 11 2 11 12
M  V30 12 1 12 13
M  V30 13 2 13 14
M  V30 14 1 6 15
M  V30 15 2 15 16
M  V30 16 1 16 17
M  V30 17 1 2 18
M  V30 18 2 18 19
M  V30 19 1 19 20
M  V30 20 1 20 21
M  V30 21 2 21 22
M  V30 22 1 22 23
M  V30 23 2 23 24
M  V30 24 1 24 25
M  V30 25 1 25 26
M  V30 26 2 26 27
M  V30 27 1 27 28
M  V30 28 1 28 29
M  V30 29 1 29 30
M  V30 30 1 30 31
M  V30 31 1 31 32
M  V30 32 1 32 33
M  V30 33 1 33 34
M  V30 34 1 28 35
M  V30 35 1 24 36
M  V30 36 2 36 37
M  V30 37 1 16 3
M  V30 38 1 37 18
M  V30 39 1 14 9
M  V30 40 1 37 21
M  V30 41 2 35 25
M  V30 42 1 34 29
M  V30 43 1 4 38
M  V30 44 1 5 39
M  V30 45 1 7 40
M  V30 46 1 7 41
M  V30 47 1 10 42
M  V30 48 1 11 43
M  V30 49 1 12 44
M  V30 50 1 13 45
M  V30 51 1 14 46
M  V30 52 1 15 47
M  V30 53 1 19 48
M  V30 54 1 20 49
M  V30 55 1 23 50
M  V30 56 1 26 51
M  V30 57 1 29 52
M  V30 58 1 30 53
M  V30 59 1 30 54
M  V30 60 1 31 55
M  V30 61 1 31 56
M  V30 62 1 32 57
M  V30 63 1 33 58
M  V30 64 1 33 59
M  V30 65 1 34 60
M  V30 66 1 34 61
M  V30 67 1 35 62
M  V30 68 1 36 63
M  V30 END BOND
M  V30 END CTAB
M  END
>  <Dataset>  (139) 
ChEMBL_Kinases

>  <Ligand_Instance>  (139) 
nan

>  <PDB_ID>  (139) 
nan

>  <Standardized_SMILES>  (139) 
O=C(c1ccc(COc2ccccc2)cc1Cl)c1c[nH]c2ncc(-c3cnn(C4CCNCC4)c3)cc12

>  <Name>  (139) 
nan

>  <Pocket>  (139) 
nan

>  <ATP_Site>  (139) 
nan

>  <Peripheral>  (139) 
nan

>  <Num_H_Atoms_ProtBoundConf>  (139) 
nan

>  <Num_Resolved_Atoms>  (139) 
nan

>  <Num_Not_Resolved_Atoms>  (139) 
nan

$$$$
CHEMBL3596922
     RDKit          3D

  0  0  0  0  0  0  0  0  0  0999 V3000
M  V30 BEGIN CTAB
M  V30 COUNTS 56 60 0 0 0
M  V30 BEGIN ATOM
M  V30 1 C 1.116080 -0.577954 7.500498 0
M  V30 2 N 2.247492 -0.492442 6.598944 0
M  V30 3 C 2.320750 -1.728179 5.828714 0
M  V30 4 C 3.479952 -1.732546 4.873408 0
M  V30 5 C 3.615054 -0.475804 4.076132 0
M  V30 6 N 2.892860 -0.569021 2.817779 0
M  V30 7 C 3.098241 -0.014855 1.619101 0
M  V30 8 C 2.100478 -0.441618 0.761546 0
M  V30 9 C 1.932165 -0.085190 -0.645394 0
M  V30 10 C 2.942263 0.194285 -1.542241 0
M  V30 11 N 2.642539 0.511458 -2.813987 0
M  V30 12 C 1.376921 0.571390 -3.266992 0
M  V30 13 N 0.851356 0.864936 -4.487637 0
M  V30 14 C -0.491365 0.786183 -4.419905 0
M  V30 15 C -0.859800 0.434743 -3.133767 0
M  V30 16 C -2.179272 0.219501 -2.537898 0
M  V30 17 O -2.410463 0.736306 -1.392711 0
M  V30 18 C -3.304828 -0.519341 -3.071433 0
M  V30 19 C -4.607896 -0.065860 -3.053346 0
M  V30 20 C -5.586803 -0.878765 -3.599305 0
M  V30 21 C -5.341536 -2.114525 -4.160687 0
M  V30 22 C -6.425866 -2.951914 -4.734742 0
M  V30 23 O -6.980648 -3.803639 -3.771103 0
M  V30 24 C -4.011337 -2.542678 -4.162233 0
M  V30 25 C -3.027205 -1.738498 -3.619801 0
M  V30 26 Cl -1.380794 -2.383268 -3.677863 0
M  V30 27 C 0.312881 0.301369 -2.416086 0
M  V30 28 C 0.633799 -0.022623 -1.114192 0
M  V30 29 C 1.280045 -1.278599 1.489015 0
M  V30 30 N 1.801180 -1.323852 2.727628 0
M  V30 31 C 3.166330 0.761254 4.791984 0
M  V30 32 C 1.937891 0.550029 5.637920 0
M  V30 33 H 1.160912 -1.437800 8.186424 0
M  V30 34 H 0.165572 -0.673013 6.919615 0
M  V30 35 H 1.082734 0.357034 8.103861 0
M  V30 36 H 2.456675 -2.554992 6.552173 0
M  V30 37 H 1.332114 -1.861014 5.342383 0
M  V30 38 H 3.328548 -2.580550 4.170412 0
M  V30 39 H 4.404000 -1.968768 5.447600 0
M  V30 40 H 4.684994 -0.343178 3.812740 0
M  V30 41 H 3.917983 0.646003 1.409068 0
M  V30 42 H 3.947907 0.136324 -1.142531 0
M  V30 43 H 1.359934 1.116259 -5.364977 0
M  V30 44 H -1.278598 0.940704 -5.152594 0
M  V30 45 H -4.817518 0.902381 -2.615848 0
M  V30 46 H -6.625759 -0.523705 -3.587935 0
M  V30 47 H -7.258884 -2.292942 -5.080124 0
M  V30 48 H -6.116279 -3.565176 -5.591154 0
M  V30 49 H -6.277302 -4.164274 -3.145038 0
M  V30 50 H -3.805963 -3.503470 -4.596137 0
M  V30 51 H -0.217075 -0.232973 -0.456147 0
M  V30 52 H 0.385271 -1.806982 1.149478 0
M  V30 53 H 3.959650 1.166198 5.445909 0
M  V30 54 H 2.907923 1.538842 4.031241 0
M  V30 55 H 1.718677 1.509652 6.144362 0
M  V30 56 H 1.067526 0.199297 5.038716 0
M  V30 END ATOM
M  V30 BEGIN BOND
M  V30 1 1 1 2
M  V30 2 1 2 3
M  V30 3 1 3 4
M  V30 4 1 4 5
M  V30 5 1 5 6
M  V30 6 1 6 7
M  V30 7 2 7 8
M  V30 8 1 8 9
M  V30 9 2 9 10
M  V30 10 1 10 11
M  V30 11 2 11 12
M  V30 12 1 12 13
M  V30 13 1 13 14
M  V30 14 2 14 15
M  V30 15 1 15 16
M  V30 16 2 16 17
M  V30 17 1 16 18
M  V30 18 2 18 19
M  V30 19 1 19 20
M  V30 20 2 20 21
M  V30 21 1 21 22
M  V30 22 1 22 23
M  V30 23 1 21 24
M  V30 24 2 24 25
M  V30 25 1 25 26
M  V30 26 1 15 27
M  V30 27 2 27 28
M  V30 28 1 8 29
M  V30 29 2 29 30
M  V30 30 1 5 31
M  V30 31 1 31 32
M  V30 32 1 32 2
M  V30 33 1 30 6
M  V30 34 1 28 9
M  V30 35 1 27 12
M  V30 36 1 25 18
M  V30 37 1 1 33
M  V30 38 1 1 34
M  V30 39 1 1 35
M  V30 40 1 3 36
M  V30 41 1 3 37
M  V30 42 1 4 38
M  V30 43 1 4 39
M  V30 44 1 5 40
M  V30 45 1 7 41
M  V30 46 1 10 42
M  V30 47 1 13 43
M  V30 48 1 14 44
M  V30 49 1 19 45
M  V30 50 1 20 46
M  V30 51 1 22 47
M  V30 52 1 22 48
M  V30 53 1 23 49
M  V30 54 1 24 50
M  V30 55 1 28 51
M  V30 56 1 29 52
M  V30 57 1 31 53
M  V30 58 1 31 54
M  V30 59 1 32 55
M  V30 60 1 32 56
M  V30 END BOND
M  V30 END CTAB
M  END
>  <Dataset>  (140) 
ChEMBL_Kinases

>  <Ligand_Instance>  (140) 
nan

>  <PDB_ID>  (140) 
nan

>  <Standardized_SMILES>  (140) 
CN1CCC(n2cc(-c3cnc4[nH]cc(C(=O)c5ccc(CO)cc5Cl)c4c3)cn2)CC1

>  <Name>  (140) 
nan

>  <Pocket>  (140) 
nan

>  <ATP_Site>  (140) 
nan

>  <Peripheral>  (140) 
nan

>  <Num_H_Atoms_ProtBoundConf>  (140) 
nan

>  <Num_Resolved_Atoms>  (140) 
nan

>  <Num_Not_Resolved_Atoms>  (140) 
nan

$$$$
CHEMBL3596923
     RDKit          3D

  0  0  0  0  0  0  0  0  0  0999 V3000
M  V30 BEGIN CTAB
M  V30 COUNTS 58 62 0 0 0
M  V30 BEGIN ATOM
M  V30 1 C 3.533323 -3.426703 2.790466 0
M  V30 2 C 3.671035 -1.970334 2.534987 0
M  V30 3 O 3.292040 -0.989287 3.261157 0
M  V30 4 N 4.258555 -1.339909 1.419368 0
M  V30 5 C 4.157301 0.085024 1.618193 0
M  V30 6 C 4.566075 0.767537 0.341367 0
M  V30 7 C 3.857420 0.197743 -0.866211 0
M  V30 8 N 2.421056 0.277314 -0.670942 0
M  V30 9 C 1.700742 1.281488 -0.139522 0
M  V30 10 C 0.360476 0.955465 -0.138540 0
M  V30 11 C -0.827978 1.678809 0.315601 0
M  V30 12 C -1.025985 3.045029 0.307161 0
M  V30 13 N -2.175556 3.577189 0.758299 0
M  V30 14 C -3.202001 2.850837 1.242107 0
M  V30 15 N -4.427302 3.088310 1.744635 0
M  V30 16 C -5.039812 1.938743 2.081155 0
M  V30 17 C -4.213351 0.865718 1.803595 0
M  V30 18 C -4.395019 -0.580014 1.977992 0
M  V30 19 O -4.892739 -0.761450 3.121707 0
M  V30 20 C -4.026003 -1.546383 0.935667 0
M  V30 21 C -4.430349 -1.181389 -0.347292 0
M  V30 22 C -4.142964 -2.010152 -1.440170 0
M  V30 23 C -3.455520 -3.187806 -1.220471 0
M  V30 24 C -3.102194 -4.141330 -2.333849 0
M  V30 25 O -1.864784 -3.841802 -2.882537 0
M  V30 26 C -3.052179 -3.548727 0.071507 0
M  V30 27 C -3.338499 -2.725546 1.151481 0
M  V30 28 Cl -2.874780 -3.095440 2.798069 0
M  V30 29 C -3.084671 1.470469 1.285532 0
M  V30 30 C -1.900578 0.934036 0.820056 0
M  V30 31 C 0.292792 -0.322563 -0.706077 0
M  V30 32 N 1.552943 -0.684230 -1.007667 0
M  V30 33 C 4.249080 -1.251533 -1.033109 0
M  V30 34 C 4.897582 -1.816320 0.204099 0
M  V30 35 H 4.471038 -3.818158 3.225015 0
M  V30 36 H 3.282787 -3.930431 1.815807 0
M  V30 37 H 2.651917 -3.602385 3.472129 0
M  V30 38 H 3.139315 0.426118 1.900295 0
M  V30 39 H 4.904759 0.366299 2.395869 0
M  V30 40 H 4.446664 1.849042 0.443339 0
M  V30 41 H 5.654679 0.529245 0.180796 0
M  V30 42 H 4.167207 0.762454 -1.760639 0
M  V30 43 H 2.072217 2.206774 0.235674 0
M  V30 44 H -0.203949 3.627754 -0.079732 0
M  V30 45 H -4.809780 4.053831 1.841048 0
M  V30 46 H -6.040283 1.799928 2.514457 0
M  V30 47 H -4.966953 -0.293357 -0.634655 0
M  V30 48 H -4.436677 -1.768861 -2.459962 0
M  V30 49 H -3.870692 -3.970835 -3.138737 0
M  V30 50 H -3.105579 -5.182800 -2.002442 0
M  V30 51 H -1.156141 -4.292701 -2.328282 0
M  V30 52 H -2.512301 -4.470709 0.259894 0
M  V30 53 H -1.784875 -0.159658 0.843150 0
M  V30 54 H -0.547037 -0.987587 -0.912607 0
M  V30 55 H 3.353081 -1.890607 -1.256407 0
M  V30 56 H 4.964818 -1.351226 -1.864784 0
M  V30 57 H 4.753145 -2.916063 0.181251 0
M  V30 58 H 5.979091 -1.616714 0.218974 0
M  V30 END ATOM
M  V30 BEGIN BOND
M  V30 1 1 1 2
M  V30 2 2 2 3
M  V30 3 1 2 4
M  V30 4 1 4 5
M  V30 5 1 5 6
M  V30 6 1 6 7
M  V30 7 1 7 8
M  V30 8 1 8 9
M  V30 9 2 9 10
M  V30 10 1 10 11
M  V30 11 2 11 12
M  V30 12 1 12 13
M  V30 13 2 13 14
M  V30 14 1 14 15
M  V30 15 1 15 16
M  V30 16 2 16 17
M  V30 17 1 17 18
M  V30 18 2 18 19
M  V30 19 1 18 20
M  V30 20 2 20 21
M  V30 21 1 21 22
M  V30 22 2 22 23
M  V30 23 1 23 24
M  V30 24 1 24 25
M  V30 25 1 23 26
M  V30 26 2 26 27
M  V30 27 1 27 28
M  V30 28 1 17 29
M  V30 29 2 29 30
M  V30 30 1 10 31
M  V30 31 2 31 32
M  V30 32 1 7 33
M  V30 33 1 33 34
M  V30 34 1 34 4
M  V30 35 1 32 8
M  V30 36 1 30 11
M  V30 37 1 29 14
M  V30 38 1 27 20
M  V30 39 1 1 35
M  V30 40 1 1 36
M  V30 41 1 1 37
M  V30 42 1 5 38
M  V30 43 1 5 39
M  V30 44 1 6 40
M  V30 45 1 6 41
M  V30 46 1 7 42
M  V30 47 1 9 43
M  V30 48 1 12 44
M  V30 49 1 15 45
M  V30 50 1 16 46
M  V30 51 1 21 47
M  V30 52 1 22 48
M  V30 53 1 24 49
M  V30 54 1 24 50
M  V30 55 1 25 51
M  V30 56 1 26 52
M  V30 57 1 30 53
M  V30 58 1 31 54
M  V30 59 1 33 55
M  V30 60 1 33 56
M  V30 61 1 34 57
M  V30 62 1 34 58
M  V30 END BOND
M  V30 END CTAB
M  END
>  <Dataset>  (141) 
ChEMBL_Kinases

>  <Ligand_Instance>  (141) 
nan

>  <PDB_ID>  (141) 
nan

>  <Standardized_SMILES>  (141) 
CC(=O)N1CCC(n2cc(-c3cnc4[nH]cc(C(=O)c5ccc(CO)cc5Cl)c4c3)cn2)CC1

>  <Name>  (141) 
nan

>  <Pocket>  (141) 
nan

>  <ATP_Site>  (141) 
nan

>  <Peripheral>  (141) 
nan

>  <Num_H_Atoms_ProtBoundConf>  (141) 
nan

>  <Num_Resolved_Atoms>  (141) 
nan

>  <Num_Not_Resolved_Atoms>  (141) 
nan

$$$$
CHEMBL3596924
     RDKit          3D

  0  0  0  0  0  0  0  0  0  0999 V3000
M  V30 BEGIN CTAB
M  V30 COUNTS 45 48 0 0 0
M  V30 BEGIN ATOM
M  V30 1 C -3.382824 -4.674498 -0.445493 0
M  V30 2 O -2.424058 -3.703403 -0.711592 0
M  V30 3 C -1.070405 -3.871531 -0.823785 0
M  V30 4 C -0.300620 -2.744136 -1.096963 0
M  V30 5 C -0.662578 -1.342317 -1.299240 0
M  V30 6 C -1.748739 -1.003366 -2.116102 0
M  V30 7 N -2.143457 0.273362 -2.350554 0
M  V30 8 C -1.480586 1.299206 -1.785047 0
M  V30 9 N -1.578089 2.623299 -1.798372 0
M  V30 10 C -0.616078 3.128172 -1.035883 0
M  V30 11 C 0.182722 2.122760 -0.468043 0
M  V30 12 C 1.244777 2.522086 0.433291 0
M  V30 13 O 2.029201 3.385882 -0.073313 0
M  V30 14 C 1.667361 2.208227 1.783921 0
M  V30 15 C 1.829919 1.035774 2.475359 0
M  V30 16 C 2.235271 0.907070 3.779334 0
M  V30 17 C 2.499474 2.084323 4.439292 0
M  V30 18 C 2.940277 1.985894 5.854909 0
M  V30 19 O 4.334620 1.899015 5.816668 0
M  V30 20 C 2.383710 3.336750 3.882868 0
M  V30 21 C 1.962005 3.354863 2.543284 0
M  V30 22 Cl 1.829563 4.991815 1.873949 0
M  V30 23 C -0.410380 0.991757 -0.977966 0
M  V30 24 C 0.014452 -0.290724 -0.721533 0
M  V30 25 C 1.028173 -3.181829 -1.160419 0
M  V30 26 N 1.012660 -4.488436 -0.935113 0
M  V30 27 N -0.221919 -4.916330 -0.733283 0
M  V30 28 C -0.723087 -6.249651 -0.452832 0
M  V30 29 H -4.258862 -4.131723 0.017934 0
M  V30 30 H -3.083556 -5.399785 0.339302 0
M  V30 31 H -3.815034 -5.152407 -1.349782 0
M  V30 32 H -2.299416 -1.800740 -2.582675 0
M  V30 33 H -2.322674 3.089284 -2.348684 0
M  V30 34 H -0.551429 4.221177 -0.936112 0
M  V30 35 H 1.612149 0.160196 1.913310 0
M  V30 36 H 2.315980 -0.084662 4.184487 0
M  V30 37 H 2.599627 2.853195 6.454494 0
M  V30 38 H 2.574447 1.038952 6.314056 0
M  V30 39 H 4.686506 1.036916 6.106263 0
M  V30 40 H 2.600604 4.225241 4.436039 0
M  V30 41 H 0.841593 -0.530623 -0.112648 0
M  V30 42 H 1.935200 -2.601241 -1.354275 0
M  V30 43 H -1.571633 -6.535036 -1.141326 0
M  V30 44 H 0.069423 -7.008859 -0.721226 0
M  V30 45 H -0.935454 -6.436921 0.603648 0
M  V30 END ATOM
M  V30 BEGIN BOND
M  V30 1 1 1 2
M  V30 2 1 2 3
M  V30 3 2 3 4
M  V30 4 1 4 5
M  V30 5 2 5 6
M  V30 6 1 6 7
M  V30 7 2 7 8
M  V30 8 1 8 9
M  V30 9 1 9 10
M  V30 10 2 10 11
M  V30 11 1 11 12
M  V30 12 2 12 13
M  V30 13 1 12 14
M  V30 14 2 14 15
M  V30 15 1 15 16
M  V30 16 2 16 17
M  V30 17 1 17 18
M  V30 18 1 18 19
M  V30 19 1 17 20
M  V30 20 2 20 21
M  V30 21 1 21 22
M  V30 22 1 11 23
M  V30 23 2 23 24
M  V30 24 1 4 25
M  V30 25 2 25 26
M  V30 26 1 26 27
M  V30 27 1 27 28
M  V30 28 1 27 3
M  V30 29 1 24 5
M  V30 30 1 23 8
M  V30 31 1 21 14
M  V30 32 1 1 29
M  V30 33 1 1 30
M  V30 34 1 1 31
M  V30 35 1 6 32
M  V30 36 1 9 33
M  V30 37 1 10 34
M  V30 38 1 15 35
M  V30 39 1 16 36
M  V30 40 1 18 37
M  V30 41 1 18 38
M  V30 42 1 19 39
M  V30 43 1 20 40
M  V30 44 1 24 41
M  V30 45 1 25 42
M  V30 46 1 28 43
M  V30 47 1 28 44
M  V30 48 1 28 45
M  V30 END BOND
M  V30 END CTAB
M  END
>  <Dataset>  (142) 
ChEMBL_Kinases

>  <Ligand_Instance>  (142) 
nan

>  <PDB_ID>  (142) 
nan

>  <Standardized_SMILES>  (142) 
COc1c(-c2cnc3[nH]cc(C(=O)c4ccc(CO)cc4Cl)c3c2)cnn1C

>  <Name>  (142) 
nan

>  <Pocket>  (142) 
nan

>  <ATP_Site>  (142) 
nan

>  <Peripheral>  (142) 
nan

>  <Num_H_Atoms_ProtBoundConf>  (142) 
nan

>  <Num_Resolved_Atoms>  (142) 
nan

>  <Num_Not_Resolved_Atoms>  (142) 
nan

$$$$
CHEMBL3596925
     RDKit          3D

  0  0  0  0  0  0  0  0  0  0999 V3000
M  V30 BEGIN CTAB
M  V30 COUNTS 55 59 0 0 0
M  V30 BEGIN ATOM
M  V30 1 C 7.054794 -0.314457 0.872982 0
M  V30 2 O 5.839575 0.397059 0.825566 0
M  V30 3 C 5.095782 0.598572 1.980083 0
M  V30 4 N 5.382870 0.184100 3.237544 0
M  V30 5 N 4.415531 0.579348 4.065440 0
M  V30 6 C 4.318789 0.352026 5.498060 0
M  V30 7 C 3.465948 1.262010 3.387627 0
M  V30 8 C 3.888268 1.281389 2.055316 0
M  V30 9 C 3.166711 1.921186 0.927932 0
M  V30 10 C 3.751064 2.711753 -0.042230 0
M  V30 11 N 2.965803 3.227818 -1.009815 0
M  V30 12 C 1.640262 2.989696 -1.046960 0
M  V30 13 N 0.719340 3.412902 -1.919796 0
M  V30 14 C -0.495894 2.936770 -1.582850 0
M  V30 15 C -0.329044 2.166736 -0.427001 0
M  V30 16 C -1.254835 1.393137 0.420925 0
M  V30 17 O -1.162469 1.508537 1.689589 0
M  V30 18 C -2.280612 0.494909 -0.094308 0
M  V30 19 C -3.571417 0.477931 0.389779 0
M  V30 20 C -4.451474 -0.407020 -0.168245 0
M  V30 21 C -4.169326 -1.312050 -1.198090 0
M  V30 22 C -5.287045 -2.160583 -1.651520 0
M  V30 23 O -5.480882 -3.312069 -0.902847 0
M  V30 24 C -4.685202 -4.383192 -0.654958 0
M  V30 25 C -3.436849 -4.815279 -0.987181 0
M  V30 26 C -2.870687 -5.993167 -0.569159 0
M  V30 27 C -3.599496 -6.812855 0.245343 0
M  V30 28 C -4.874929 -6.455094 0.632960 0
M  V30 29 C -5.408155 -5.242684 0.179718 0
M  V30 30 C -2.876208 -1.229482 -1.616995 0
M  V30 31 C -1.946949 -0.370796 -1.104496 0
M  V30 32 Cl -0.319635 -0.408941 -1.775389 0
M  V30 33 C 1.016266 2.204409 -0.095755 0
M  V30 34 C 1.796096 1.650465 0.924780 0
M  V30 35 H 7.896170 0.403707 1.020201 0
M  V30 36 H 7.018791 -1.020397 1.721244 0
M  V30 37 H 7.240032 -0.850500 -0.083297 0
M  V30 38 H 3.243176 0.198508 5.791268 0
M  V30 39 H 4.875111 -0.576035 5.737353 0
M  V30 40 H 4.695558 1.200893 6.068987 0
M  V30 41 H 2.567763 1.700247 3.795956 0
M  V30 42 H 4.821218 2.862209 0.047888 0
M  V30 43 H 0.802768 4.014696 -2.761845 0
M  V30 44 H -1.506777 2.999089 -1.962161 0
M  V30 45 H -3.863478 1.148657 1.185229 0
M  V30 46 H -5.466108 -0.374029 0.259390 0
M  V30 47 H -6.224346 -1.551035 -1.555288 0
M  V30 48 H -5.157984 -2.398568 -2.743007 0
M  V30 49 H -2.951540 -4.105312 -1.630527 0
M  V30 50 H -1.878167 -6.180245 -0.923683 0
M  V30 51 H -3.110895 -7.735829 0.551936 0
M  V30 52 H -5.342199 -7.179503 1.270216 0
M  V30 53 H -6.418752 -5.149746 0.597143 0
M  V30 54 H -2.626156 -1.920639 -2.431419 0
M  V30 55 H 1.314905 1.039810 1.665617 0
M  V30 END ATOM
M  V30 BEGIN BOND
M  V30 1 1 1 2
M  V30 2 1 2 3
M  V30 3 2 3 4
M  V30 4 1 4 5
M  V30 5 1 5 6
M  V30 6 1 5 7
M  V30 7 2 7 8
M  V30 8 1 8 9
M  V30 9 2 9 10
M  V30 10 1 10 11
M  V30 11 2 11 12
M  V30 12 1 12 13
M  V30 13 1 13 14
M  V30 14 2 14 15
M  V30 15 1 15 16
M  V30 16 2 16 17
M  V30 17 1 16 18
M  V30 18 2 18 19
M  V30 19 1 19 20
M  V30 20 2 20 21
M  V30 21 1 21 22
M  V30 22 1 22 23
M  V30 23 1 23 24
M  V30 24 2 24 25
M  V30 25 1 25 26
M  V30 26 2 26 27
M  V30 27 1 27 28
M  V30 28 2 28 29
M  V30 29 1 21 30
M  V30 30 2 30 31
M  V30 31 1 31 32
M  V30 32 1 15 33
M  V30 33 2 33 34
M  V30 34 1 8 3
M  V30 35 1 34 9
M  V30 36 1 33 12
M  V30 37 1 31 18
M  V30 38 1 29 24
M  V30 39 1 1 35
M  V30 40 1 1 36
M  V30 41 1 1 37
M  V30 42 1 6 38
M  V30 43 1 6 39
M  V30 44 1 6 40
M  V30 45 1 7 41
M  V30 46 1 10 42
M  V30 47 1 13 43
M  V30 48 1 14 44
M  V30 49 1 19 45
M  V30 50 1 20 46
M  V30 51 1 22 47
M  V30 52 1 22 48
M  V30 53 1 25 49
M  V30 54 1 26 50
M  V30 55 1 27 51
M  V30 56 1 28 52
M  V30 57 1 29 53
M  V30 58 1 30 54
M  V30 59 1 34 55
M  V30 END BOND
M  V30 END CTAB
M  END
>  <Dataset>  (143) 
ChEMBL_Kinases

>  <Ligand_Instance>  (143) 
nan

>  <PDB_ID>  (143) 
nan

>  <Standardized_SMILES>  (143) 
COc1nn(C)cc1-c1cnc2[nH]cc(C(=O)c3ccc(COc4ccccc4)cc3Cl)c2c1

>  <Name>  (143) 
nan

>  <Pocket>  (143) 
nan

>  <ATP_Site>  (143) 
nan

>  <Peripheral>  (143) 
nan

>  <Num_H_Atoms_ProtBoundConf>  (143) 
nan

>  <Num_Resolved_Atoms>  (143) 
nan

>  <Num_Not_Resolved_Atoms>  (143) 
nan

$$$$
CHEMBL3596917
     RDKit          3D

  0  0  0  0  0  0  0  0  0  0999 V3000
M  V30 BEGIN CTAB
M  V30 COUNTS 53 57 0 0 0
M  V30 BEGIN ATOM
M  V30 1 N 4.108656 -3.714289 2.108848 0
M  V30 2 C 4.030768 -3.227602 0.755701 0
M  V30 3 O 4.025984 -4.314982 0.157872 0
M  V30 4 C 3.983034 -1.804759 0.443008 0
M  V30 5 C 4.014626 -0.895401 1.489480 0
M  V30 6 C 3.964068 0.420502 1.075624 0
M  V30 7 C 3.888756 0.824561 -0.246968 0
M  V30 8 C 3.837489 2.227771 -0.624086 0
M  V30 9 O 4.552411 2.665012 -1.574310 0
M  V30 10 C 2.903341 2.982498 0.206004 0
M  V30 11 C 3.145496 4.222801 0.775297 0
M  V30 12 N 2.047678 4.602236 1.473375 0
M  V30 13 C 1.110007 3.646287 1.370297 0
M  V30 14 N -0.136795 3.531608 1.864958 0
M  V30 15 C -0.914345 2.459589 1.626786 0
M  V30 16 C -0.452324 1.408891 0.846196 0
M  V30 17 C -1.190861 0.194314 0.512797 0
M  V30 18 C -1.057280 -0.541516 -0.666896 0
M  V30 19 N -1.884638 -1.573981 -0.614768 0
M  V30 20 N -2.561857 -1.559703 0.543099 0
M  V30 21 C -3.563881 -2.499113 1.010371 0
M  V30 22 C -4.927990 -1.947565 0.609373 0
M  V30 23 C -6.044599 -2.920156 0.853154 0
M  V30 24 N -5.629235 -4.294142 0.676398 0
M  V30 25 C -4.600246 -4.301207 -0.358123 0
M  V30 26 C -3.318651 -3.809502 0.280295 0
M  V30 27 C -2.157654 -0.491010 1.249895 0
M  V30 28 C 0.840902 1.519458 0.328567 0
M  V30 29 C 1.622486 2.627407 0.584568 0
M  V30 30 C 3.861997 -0.148571 -1.225022 0
M  V30 31 Cl 3.767366 0.322953 -2.901186 0
M  V30 32 C 3.909216 -1.488519 -0.890579 0
M  V30 33 H 3.423054 -3.627714 2.912685 0
M  V30 34 H 3.318744 -3.519905 2.747936 0
M  V30 35 H 4.072679 -1.191500 2.520755 0
M  V30 36 H 3.985245 1.199093 1.850112 0
M  V30 37 H 4.098976 4.753308 0.638831 0
M  V30 38 H 1.991399 5.513442 1.996241 0
M  V30 39 H -1.927883 2.334915 2.011645 0
M  V30 40 H -0.392497 -0.321245 -1.499367 0
M  V30 41 H -3.482812 -2.638482 2.108797 0
M  V30 42 H -4.838600 -1.637800 -0.454675 0
M  V30 43 H -5.106132 -1.045407 1.229227 0
M  V30 44 H -6.514787 -2.782673 1.848301 0
M  V30 45 H -6.827603 -2.730962 0.070672 0
M  V30 46 H -5.186302 -4.702176 1.534895 0
M  V30 47 H -4.450996 -5.278303 -0.814182 0
M  V30 48 H -4.898862 -3.555456 -1.149211 0
M  V30 49 H -2.995977 -4.590223 1.004340 0
M  V30 50 H -2.545510 -3.699845 -0.518774 0
M  V30 51 H -2.457241 -0.130739 2.221151 0
M  V30 52 H 1.259194 0.752928 -0.277271 0
M  V30 53 H 3.888053 -2.239104 -1.654530 0
M  V30 END ATOM
M  V30 BEGIN BOND
M  V30 1 1 1 2
M  V30 2 2 2 3
M  V30 3 1 2 4
M  V30 4 2 4 5
M  V30 5 1 5 6
M  V30 6 2 6 7
M  V30 7 1 7 8
M  V30 8 2 8 9
M  V30 9 1 8 10
M  V30 10 2 10 11
M  V30 11 1 11 12
M  V30 12 1 12 13
M  V30 13 2 13 14
M  V30 14 1 14 15
M  V30 15 2 15 16
M  V30 16 1 16 17
M  V30 17 1 17 18
M  V30 18 2 18 19
M  V30 19 1 19 20
M  V30 20 1 20 21
M  V30 21 1 21 22
M  V30 22 1 22 23
M  V30 23 1 23 24
M  V30 24 1 24 25
M  V30 25 1 25 26
M  V30 26 1 20 27
M  V30 27 1 16 28
M  V30 28 2 28 29
M  V30 29 1 7 30
M  V30 30 1 30 31
M  V30 31 2 30 32
M  V30 32 1 32 4
M  V30 33 1 29 10
M  V30 34 1 29 13
M  V30 35 2 27 17
M  V30 36 1 26 21
M  V30 37 1 1 33
M  V30 38 1 1 34
M  V30 39 1 5 35
M  V30 40 1 6 36
M  V30 41 1 11 37
M  V30 42 1 12 38
M  V30 43 1 15 39
M  V30 44 1 18 40
M  V30 45 1 21 41
M  V30 46 1 22 42
M  V30 47 1 22 43
M  V30 48 1 23 44
M  V30 49 1 23 45
M  V30 50 1 24 46
M  V30 51 1 25 47
M  V30 52 1 25 48
M  V30 53 1 26 49
M  V30 54 1 26 50
M  V30 55 1 27 51
M  V30 56 1 28 52
M  V30 57 1 32 53
M  V30 END BOND
M  V30 END CTAB
M  END
>  <Dataset>  (144) 
ChEMBL_Kinases

>  <Ligand_Instance>  (144) 
nan

>  <PDB_ID>  (144) 
nan

>  <Standardized_SMILES>  (144) 
NC(=O)c1ccc(C(=O)c2c[nH]c3ncc(-c4cnn(C5CCNCC5)c4)cc23)c(Cl)c1

>  <Name>  (144) 
nan

>  <Pocket>  (144) 
nan

>  <ATP_Site>  (144) 
nan

>  <Peripheral>  (144) 
nan

>  <Num_H_Atoms_ProtBoundConf>  (144) 
nan

>  <Num_Resolved_Atoms>  (144) 
nan

>  <Num_Not_Resolved_Atoms>  (144) 
nan

$$$$
CHEMBL3604781
     RDKit          3D

  0  0  0  0  0  0  0  0  0  0999 V3000
M  V30 BEGIN CTAB
M  V30 COUNTS 31 32 0 0 0
M  V30 BEGIN ATOM
M  V30 1 C -1.868298 -2.138439 0.101852 0
M  V30 2 C -0.731927 -2.210431 1.102671 0
M  V30 3 C -0.840245 -3.574656 1.791663 0
M  V30 4 C 0.586523 -2.118172 0.462412 0
M  V30 5 C 1.249409 -3.228724 -0.018197 0
M  V30 6 C 2.475762 -3.176113 -0.648171 0
M  V30 7 N 3.021781 -1.948052 -0.780550 0
M  V30 8 C 2.389841 -0.853990 -0.317491 0
M  V30 9 C 1.148806 -0.871820 0.325036 0
M  V30 10 C 0.697609 0.436500 0.757381 0
M  V30 11 C 0.627450 1.350687 -0.283788 0
M  V30 12 C 0.238475 2.675559 -0.121273 0
M  V30 13 F 0.165635 3.568782 -1.113697 0
M  V30 14 C -0.097873 3.116858 1.135954 0
M  V30 15 O -0.490894 4.419604 1.354806 0
M  V30 16 C -0.033553 2.222909 2.181410 0
M  V30 17 F -0.352323 2.595891 3.445058 0
M  V30 18 C 0.350947 0.930820 1.995017 0
M  V30 19 H -2.722478 -2.702268 0.545298 0
M  V30 20 H -2.255661 -1.093979 -0.001352 0
M  V30 21 H -1.531220 -2.566700 -0.848061 0
M  V30 22 H -0.883295 -1.420364 1.822643 0
M  V30 23 H -1.013658 -4.374690 1.061569 0
M  V30 24 H -1.758302 -3.588297 2.448128 0
M  V30 25 H 0.016109 -3.709386 2.460716 0
M  V30 26 H 0.777733 -4.193635 0.107909 0
M  V30 27 H 2.954674 -4.074754 -1.007199 0
M  V30 28 H 2.978166 0.046018 -0.512253 0
M  V30 29 H 0.866099 1.128603 -1.320170 0
M  V30 30 H -1.235465 4.614510 1.990524 0
M  V30 31 H 0.424809 0.213416 2.797619 0
M  V30 END ATOM
M  V30 BEGIN BOND
M  V30 1 1 1 2
M  V30 2 1 2 3
M  V30 3 1 2 4
M  V30 4 2 4 5
M  V30 5 1 5 6
M  V30 6 2 6 7
M  V30 7 1 7 8
M  V30 8 2 8 9
M  V30 9 1 9 10
M  V30 10 2 10 11
M  V30 11 1 11 12
M  V30 12 1 12 13
M  V30 13 2 12 14
M  V30 14 1 14 15
M  V30 15 1 14 16
M  V30 16 1 16 17
M  V30 17 2 16 18
M  V30 18 1 9 4
M  V30 19 1 18 10
M  V30 20 1 1 19
M  V30 21 1 1 20
M  V30 22 1 1 21
M  V30 23 1 2 22
M  V30 24 1 3 23
M  V30 25 1 3 24
M  V30 26 1 3 25
M  V30 27 1 5 26
M  V30 28 1 6 27
M  V30 29 1 8 28
M  V30 30 1 11 29
M  V30 31 1 15 30
M  V30 32 1 18 31
M  V30 END BOND
M  V30 END CTAB
M  END
>  <Dataset>  (145) 
ChEMBL_Kinases

>  <Ligand_Instance>  (145) 
nan

>  <PDB_ID>  (145) 
nan

>  <Standardized_SMILES>  (145) 
CC(C)c1ccncc1-c1cc(F)c(O)c(F)c1

>  <Name>  (145) 
nan

>  <Pocket>  (145) 
nan

>  <ATP_Site>  (145) 
nan

>  <Peripheral>  (145) 
nan

>  <Num_H_Atoms_ProtBoundConf>  (145) 
nan

>  <Num_Resolved_Atoms>  (145) 
nan

>  <Num_Not_Resolved_Atoms>  (145) 
nan

$$$$
CHEMBL3604780
     RDKit          3D

  0  0  0  0  0  0  0  0  0  0999 V3000
M  V30 BEGIN CTAB
M  V30 COUNTS 37 39 0 0 0
M  V30 BEGIN ATOM
M  V30 1 O 0.153760 -2.957929 5.531240 0
M  V30 2 C 0.278363 -2.694925 4.172302 0
M  V30 3 C 1.458466 -2.175158 3.688293 0
M  V30 4 F 2.524931 -1.898392 4.462938 0
M  V30 5 C 1.574282 -1.917496 2.342669 0
M  V30 6 C 0.577427 -2.144140 1.421312 0
M  V30 7 C 0.503718 -1.918758 -0.003845 0
M  V30 8 C 0.162627 -3.096442 -0.688949 0
M  V30 9 N 0.026907 -3.226203 -2.036819 0
M  V30 10 C 0.238639 -2.121580 -2.801323 0
M  V30 11 C 0.575068 -0.949407 -2.159679 0
M  V30 12 C 0.715096 -0.804004 -0.794013 0
M  V30 13 C 1.076867 0.398747 -0.034595 0
M  V30 14 C 0.115004 0.929279 0.947601 0
M  V30 15 C -0.991516 1.801789 0.465817 0
M  V30 16 N -0.465504 2.888424 -0.384334 0
M  V30 17 C 0.146684 2.136046 -1.502773 0
M  V30 18 C 1.390630 1.557809 -0.966758 0
M  V30 19 C -0.595921 -2.674952 1.987903 0
M  V30 20 C -0.774321 -2.954793 3.323528 0
M  V30 21 F -1.930224 -3.465748 3.807095 0
M  V30 22 H -0.698948 -2.793756 6.046743 0
M  V30 23 H 2.481704 -1.527390 1.941965 0
M  V30 24 H -0.038894 -4.066393 -0.223612 0
M  V30 25 H 0.150894 -2.141317 -3.879278 0
M  V30 26 H 0.751446 -0.100433 -2.771319 0
M  V30 27 H 2.064766 0.225830 0.498493 0
M  V30 28 H -0.294272 0.190593 1.662203 0
M  V30 29 H 0.726503 1.601075 1.632256 0
M  V30 30 H -1.391435 2.338371 1.359395 0
M  V30 31 H -1.829126 1.283266 -0.019510 0
M  V30 32 H -1.324733 3.316490 -0.819912 0
M  V30 33 H -0.664411 1.436251 -1.782999 0
M  V30 34 H 0.339136 2.821719 -2.353983 0
M  V30 35 H 1.862043 2.336471 -0.299003 0
M  V30 36 H 2.171191 1.315442 -1.698947 0
M  V30 37 H -1.469201 -2.904812 1.372870 0
M  V30 END ATOM
M  V30 BEGIN BOND
M  V30 1 1 1 2
M  V30 2 2 2 3
M  V30 3 1 3 4
M  V30 4 1 3 5
M  V30 5 2 5 6
M  V30 6 1 6 7
M  V30 7 2 7 8
M  V30 8 1 8 9
M  V30 9 2 9 10
M  V30 10 1 10 11
M  V30 11 2 11 12
M  V30 12 1 12 13
M  V30 13 1 13 14
M  V30 14 1 14 15
M  V30 15 1 15 16
M  V30 16 1 16 17
M  V30 17 1 17 18
M  V30 18 1 6 19
M  V30 19 2 19 20
M  V30 20 1 20 21
M  V30 21 1 20 2
M  V30 22 1 12 7
M  V30 23 1 18 13
M  V30 24 1 1 22
M  V30 25 1 5 23
M  V30 26 1 8 24
M  V30 27 1 10 25
M  V30 28 1 11 26
M  V30 29 1 13 27
M  V30 30 1 14 28
M  V30 31 1 14 29
M  V30 32 1 15 30
M  V30 33 1 15 31
M  V30 34 1 16 32
M  V30 35 1 17 33
M  V30 36 1 17 34
M  V30 37 1 18 35
M  V30 38 1 18 36
M  V30 39 1 19 37
M  V30 END BOND
M  V30 END CTAB
M  END
>  <Dataset>  (146) 
ChEMBL_Kinases

>  <Ligand_Instance>  (146) 
nan

>  <PDB_ID>  (146) 
nan

>  <Standardized_SMILES>  (146) 
Oc1c(F)cc(-c2cnccc2C2CCNCC2)cc1F

>  <Name>  (146) 
nan

>  <Pocket>  (146) 
nan

>  <ATP_Site>  (146) 
nan

>  <Peripheral>  (146) 
nan

>  <Num_H_Atoms_ProtBoundConf>  (146) 
nan

>  <Num_Resolved_Atoms>  (146) 
nan

>  <Num_Not_Resolved_Atoms>  (146) 
nan

$$$$
CHEMBL3604773
     RDKit          3D

  0  0  0  0  0  0  0  0  0  0999 V3000
M  V30 BEGIN CTAB
M  V30 COUNTS 30 32 0 0 0
M  V30 BEGIN ATOM
M  V30 1 O -2.680387 -3.863467 3.036922 0
M  V30 2 C -1.648145 -2.993158 2.715023 0
M  V30 3 C -0.848553 -3.234364 1.598592 0
M  V30 4 C 0.172090 -2.350228 1.302342 0
M  V30 5 C 0.436221 -1.233769 2.066296 0
M  V30 6 C 1.516329 -0.282088 1.768501 0
M  V30 7 C 2.520137 -0.148657 2.734416 0
M  V30 8 N 3.383004 0.767271 2.246351 0
M  V30 9 N 2.980268 1.199264 1.059447 0
M  V30 10 C 1.833402 0.582444 0.719898 0
M  V30 11 C 0.897704 0.585783 -0.397847 0
M  V30 12 C -0.437651 0.909667 -0.383102 0
M  V30 13 C -1.157342 0.849963 -1.573054 0
M  V30 14 C -0.528209 0.472658 -2.729686 0
M  V30 15 C 0.805575 0.142668 -2.778043 0
M  V30 16 C 1.508665 0.205936 -1.589655 0
M  V30 17 C -0.351559 -0.968449 3.192573 0
M  V30 18 C -1.378907 -1.876904 3.473262 0
M  V30 19 H -3.265771 -4.256997 2.322968 0
M  V30 20 H -0.997571 -4.088833 0.955246 0
M  V30 21 H 0.853508 -2.453056 0.447968 0
M  V30 22 H 2.741181 -0.584291 3.713007 0
M  V30 23 H 3.361180 1.888489 0.374266 0
M  V30 24 H -0.762092 1.181446 0.609420 0
M  V30 25 H -2.197247 1.122260 -1.457035 0
M  V30 26 H -1.155450 0.449722 -3.619533 0
M  V30 27 H 1.268114 -0.153961 -3.726819 0
M  V30 28 H 2.568755 -0.070583 -1.699789 0
M  V30 29 H -0.216686 -0.112112 3.854066 0
M  V30 30 H -2.017688 -1.703793 4.346904 0
M  V30 END ATOM
M  V30 BEGIN BOND
M  V30 1 1 1 2
M  V30 2 2 2 3
M  V30 3 1 3 4
M  V30 4 2 4 5
M  V30 5 1 5 6
M  V30 6 1 6 7
M  V30 7 2 7 8
M  V30 8 1 8 9
M  V30 9 1 9 10
M  V30 10 1 10 11
M  V30 11 2 11 12
M  V30 12 1 12 13
M  V30 13 2 13 14
M  V30 14 1 14 15
M  V30 15 2 15 16
M  V30 16 1 5 17
M  V30 17 2 17 18
M  V30 18 1 18 2
M  V30 19 2 10 6
M  V30 20 1 16 11
M  V30 21 1 1 19
M  V30 22 1 3 20
M  V30 23 1 4 21
M  V30 24 1 7 22
M  V30 25 1 9 23
M  V30 26 1 12 24
M  V30 27 1 13 25
M  V30 28 1 14 26
M  V30 29 1 15 27
M  V30 30 1 16 28
M  V30 31 1 17 29
M  V30 32 1 18 30
M  V30 END BOND
M  V30 END CTAB
M  END
>  <Dataset>  (147) 
ChEMBL_Kinases

>  <Ligand_Instance>  (147) 
nan

>  <PDB_ID>  (147) 
nan

>  <Standardized_SMILES>  (147) 
Oc1ccc(-c2cn[nH]c2-c2ccccc2)cc1

>  <Name>  (147) 
nan

>  <Pocket>  (147) 
nan

>  <ATP_Site>  (147) 
nan

>  <Peripheral>  (147) 
nan

>  <Num_H_Atoms_ProtBoundConf>  (147) 
nan

>  <Num_Resolved_Atoms>  (147) 
nan

>  <Num_Not_Resolved_Atoms>  (147) 
nan

$$$$
CHEMBL3604772
     RDKit          3D

  0  0  0  0  0  0  0  0  0  0999 V3000
M  V30 BEGIN CTAB
M  V30 COUNTS 30 32 0 0 0
M  V30 BEGIN ATOM
M  V30 1 O -3.235383 -3.213802 2.765120 0
M  V30 2 C -2.009895 -2.619332 2.480617 0
M  V30 3 C -1.324889 -2.893668 1.306795 0
M  V30 4 C -0.119752 -2.259294 1.110281 0
M  V30 5 C 0.442073 -1.368985 2.013055 0
M  V30 6 C 1.727232 -0.750021 1.707805 0
M  V30 7 N 2.847166 -0.934402 2.460366 0
M  V30 8 N 3.843841 -0.256162 1.944501 0
M  V30 9 C 3.460053 0.408874 0.839405 0
M  V30 10 C 2.124705 0.106010 0.677749 0
M  V30 11 C 1.095075 0.483653 -0.306133 0
M  V30 12 C -0.040045 1.195314 0.027165 0
M  V30 13 C -0.939636 1.492247 -0.988892 0
M  V30 14 C -0.630894 1.052484 -2.260302 0
M  V30 15 C 0.502096 0.341160 -2.598050 0
M  V30 16 C 1.397874 0.047966 -1.573988 0
M  V30 17 C -0.254276 -1.106186 3.179515 0
M  V30 18 C -1.481009 -1.734145 3.409431 0
M  V30 19 H -3.503658 -4.010133 2.200997 0
M  V30 20 H -1.751633 -3.588409 0.590086 0
M  V30 21 H 0.413423 -2.484474 0.177137 0
M  V30 22 H 3.010087 -1.492331 3.318241 0
M  V30 23 H 3.952653 1.065602 0.131904 0
M  V30 24 H -0.184038 1.490661 1.053040 0
M  V30 25 H -1.838332 2.047776 -0.763161 0
M  V30 26 H -1.366690 1.308269 -3.027403 0
M  V30 27 H 0.604725 0.063479 -3.650910 0
M  V30 28 H 2.262892 -0.500806 -1.857526 0
M  V30 29 H 0.185388 -0.403525 3.895965 0
M  V30 30 H -1.986279 -1.504963 4.320093 0
M  V30 END ATOM
M  V30 BEGIN BOND
M  V30 1 1 1 2
M  V30 2 2 2 3
M  V30 3 1 3 4
M  V30 4 2 4 5
M  V30 5 1 5 6
M  V30 6 1 6 7
M  V30 7 1 7 8
M  V30 8 2 8 9
M  V30 9 1 9 10
M  V30 10 1 10 11
M  V30 11 2 11 12
M  V30 12 1 12 13
M  V30 13 2 13 14
M  V30 14 1 14 15
M  V30 15 2 15 16
M  V30 16 1 5 17
M  V30 17 2 17 18
M  V30 18 1 18 2
M  V30 19 2 10 6
M  V30 20 1 16 11
M  V30 21 1 1 19
M  V30 22 1 3 20
M  V30 23 1 4 21
M  V30 24 1 7 22
M  V30 25 1 9 23
M  V30 26 1 12 24
M  V30 27 1 13 25
M  V30 28 1 14 26
M  V30 29 1 15 27
M  V30 30 1 16 28
M  V30 31 1 17 29
M  V30 32 1 18 30
M  V30 END BOND
M  V30 END CTAB
M  END
>  <Dataset>  (148) 
ChEMBL_Kinases

>  <Ligand_Instance>  (148) 
nan

>  <PDB_ID>  (148) 
nan

>  <Standardized_SMILES>  (148) 
Oc1ccc(-c2[nH]ncc2-c2ccccc2)cc1

>  <Name>  (148) 
nan

>  <Pocket>  (148) 
nan

>  <ATP_Site>  (148) 
nan

>  <Peripheral>  (148) 
nan

>  <Num_H_Atoms_ProtBoundConf>  (148) 
nan

>  <Num_Resolved_Atoms>  (148) 
nan

>  <Num_Not_Resolved_Atoms>  (148) 
nan

$$$$
CHEMBL3604124
     RDKit          3D

  0  0  0  0  0  0  0  0  0  0999 V3000
M  V30 BEGIN CTAB
M  V30 COUNTS 56 59 0 0 0
M  V30 BEGIN ATOM
M  V30 1 C 3.888760 3.255795 -1.403484 0
M  V30 2 N 3.603312 2.119055 -0.551737 0
M  V30 3 C 4.139807 2.397464 0.786899 0
M  V30 4 C 3.937284 1.201409 1.722426 0
M  V30 5 N 3.354260 0.162881 0.890350 0
M  V30 6 C 2.075226 -0.413856 1.115423 0
M  V30 7 C 1.446981 -0.302850 2.336980 0
M  V30 8 C 0.199572 -0.863416 2.499771 0
M  V30 9 C -0.466675 -1.539665 1.493547 0
M  V30 10 O -1.660912 -2.103653 1.575029 0
M  V30 11 C -2.658193 -2.274078 2.512241 0
M  V30 12 C -3.284753 -1.071941 3.063487 0
M  V30 13 C -2.991752 -0.379043 4.200693 0
M  V30 14 C -3.595062 0.755941 4.700180 0
M  V30 15 C -4.641180 1.218471 3.896724 0
M  V30 16 C -5.012745 0.570513 2.709811 0
M  V30 17 C -4.323517 -0.566261 2.316487 0
M  V30 18 C 0.143175 -1.658244 0.275704 0
M  V30 19 C -0.298801 -2.290931 -0.965501 0
M  V30 20 O 0.348293 -2.350138 -2.037887 0
M  V30 21 N -1.530862 -2.939320 -1.156203 0
M  V30 22 C -2.203579 -3.611804 -2.196198 0
M  V30 23 C -2.219863 -4.930432 -2.602899 0
M  V30 24 C -2.981126 -5.361390 -3.664736 0
M  V30 25 C -3.754359 -4.445403 -4.347072 0
M  V30 26 N -3.763031 -3.154708 -3.977318 0
M  V30 27 C -3.008588 -2.723241 -2.923889 0
M  V30 28 C 1.416228 -1.085993 0.111072 0
M  V30 29 C 4.230698 -0.224711 -0.198631 0
M  V30 30 C 4.277732 0.966115 -1.133912 0
M  V30 31 H 3.845786 2.872706 -2.460409 0
M  V30 32 H 4.943460 3.543279 -1.239810 0
M  V30 33 H 3.168152 4.093416 -1.265089 0
M  V30 34 H 3.591183 3.245941 1.233826 0
M  V30 35 H 5.230491 2.652796 0.742049 0
M  V30 36 H 4.935646 0.813071 2.072765 0
M  V30 37 H 3.296988 1.494165 2.559577 0
M  V30 38 H 1.889136 0.208898 3.193188 0
M  V30 39 H -0.246893 -0.759064 3.454468 0
M  V30 40 H -3.452305 -2.993190 2.117457 0
M  V30 41 H -2.235599 -2.873403 3.385478 0
M  V30 42 H -2.178105 -0.775356 4.802502 0
M  V30 43 H -3.266089 1.211468 5.618291 0
M  V30 44 H -5.166394 2.089373 4.207027 0
M  V30 45 H -5.840764 0.988992 2.129326 0
M  V30 46 H -4.705948 -0.978046 1.379588 0
M  V30 47 H -2.221568 -2.998596 -0.380461 0
M  V30 48 H -1.553394 -5.533508 -1.965093 0
M  V30 49 H -2.924897 -6.398829 -3.900233 0
M  V30 50 H -4.347126 -4.819935 -5.186175 0
M  V30 51 H -3.112017 -1.645598 -2.739236 0
M  V30 52 H 1.975546 -1.128697 -0.818036 0
M  V30 53 H 3.982124 -1.174206 -0.672338 0
M  V30 54 H 5.254303 -0.343851 0.228167 0
M  V30 55 H 5.317976 1.280249 -1.318735 0
M  V30 56 H 3.777481 0.765495 -2.102611 0
M  V30 END ATOM
M  V30 BEGIN BOND
M  V30 1 1 1 2
M  V30 2 1 2 3
M  V30 3 1 3 4
M  V30 4 1 4 5
M  V30 5 1 5 6
M  V30 6 2 6 7
M  V30 7 1 7 8
M  V30 8 2 8 9
M  V30 9 1 9 10
M  V30 10 1 10 11
M  V30 11 1 11 12
M  V30 12 2 12 13
M  V30 13 1 13 14
M  V30 14 2 14 15
M  V30 15 1 15 16
M  V30 16 2 16 17
M  V30 17 1 9 18
M  V30 18 1 18 19
M  V30 19 2 19 20
M  V30 20 1 19 21
M  V30 21 1 21 22
M  V30 22 2 22 23
M  V30 23 1 23 24
M  V30 24 2 24 25
M  V30 25 1 25 26
M  V30 26 2 26 27
M  V30 27 2 18 28
M  V30 28 1 5 29
M  V30 29 1 29 30
M  V30 30 1 30 2
M  V30 31 1 28 6
M  V30 32 1 17 12
M  V30 33 1 27 22
M  V30 34 1 1 31
M  V30 35 1 1 32
M  V30 36 1 1 33
M  V30 37 1 3 34
M  V30 38 1 3 35
M  V30 39 1 4 36
M  V30 40 1 4 37
M  V30 41 1 7 38
M  V30 42 1 8 39
M  V30 43 1 11 40
M  V30 44 1 11 41
M  V30 45 1 13 42
M  V30 46 1 14 43
M  V30 47 1 15 44
M  V30 48 1 16 45
M  V30 49 1 17 46
M  V30 50 1 21 47
M  V30 51 1 23 48
M  V30 52 1 24 49
M  V30 53 1 25 50
M  V30 54 1 27 51
M  V30 55 1 28 52
M  V30 56 1 29 53
M  V30 57 1 29 54
M  V30 58 1 30 55
M  V30 59 1 30 56
M  V30 END BOND
M  V30 END CTAB
M  END
>  <Dataset>  (149) 
ChEMBL_Kinases

>  <Ligand_Instance>  (149) 
nan

>  <PDB_ID>  (149) 
nan

>  <Standardized_SMILES>  (149) 
CN1CCN(c2ccc(OCc3ccccc3)c(C(=O)Nc3cccnc3)c2)CC1

>  <Name>  (149) 
nan

>  <Pocket>  (149) 
nan

>  <ATP_Site>  (149) 
nan

>  <Peripheral>  (149) 
nan

>  <Num_H_Atoms_ProtBoundConf>  (149) 
nan

>  <Num_Resolved_Atoms>  (149) 
nan

>  <Num_Not_Resolved_Atoms>  (149) 
nan

$$$$
CHEMBL360340
     RDKit          3D

  0  0  0  0  0  0  0  0  0  0999 V3000
M  V30 BEGIN CTAB
M  V30 COUNTS 47 50 0 0 0
M  V30 BEGIN ATOM
M  V30 1 C 0.127541 -7.184381 3.618616 0
M  V30 2 O -0.844301 -6.985784 2.625186 0
M  V30 3 C -1.010243 -5.827525 1.913048 0
M  V30 4 C -0.191595 -4.720667 2.135094 0
M  V30 5 C -0.419198 -3.589113 1.378896 0
M  V30 6 C -1.413957 -3.515037 0.424384 0
M  V30 7 C -1.648099 -2.302708 -0.376845 0
M  V30 8 C -0.880936 -1.146235 -0.226326 0
M  V30 9 C -1.405855 -0.254472 -1.141441 0
M  V30 10 C -1.056922 1.046802 -1.447072 0
M  V30 11 N 0.027370 1.632046 -0.728013 0
M  V30 12 C -0.309868 2.319004 0.476669 0
M  V30 13 O -1.568155 2.284643 0.702056 0
M  V30 14 C 0.654598 2.983661 1.353104 0
M  V30 15 C 1.436203 4.100417 0.661987 0
M  V30 16 C 2.550965 4.511335 1.589419 0
M  V30 17 C 3.560594 3.437821 1.841667 0
M  V30 18 C 2.937849 2.098110 1.515784 0
M  V30 19 C 1.563856 2.072974 2.120984 0
M  V30 20 N -1.761840 1.697060 -2.411901 0
M  V30 21 C -2.782886 1.081587 -3.057950 0
M  V30 22 N -3.106691 -0.193755 -2.741622 0
M  V30 23 C -2.445101 -0.883837 -1.797597 0
M  V30 24 O -2.563315 -2.116874 -1.311806 0
M  V30 25 C -2.239478 -4.619791 0.194975 0
M  V30 26 C -1.991631 -5.740696 0.964731 0
M  V30 27 H 1.100828 -7.443372 3.143061 0
M  V30 28 H -0.180293 -8.069446 4.226334 0
M  V30 29 H 0.207491 -6.345921 4.344252 0
M  V30 30 H 0.602092 -4.734545 2.874848 0
M  V30 31 H 0.202617 -2.712915 1.530447 0
M  V30 32 H -0.055902 -0.963353 0.447422 0
M  V30 33 H 1.034566 1.593784 -1.016520 0
M  V30 34 H 0.043329 3.520186 2.137728 0
M  V30 35 H 1.762109 3.837508 -0.340403 0
M  V30 36 H 0.761686 4.974984 0.568992 0
M  V30 37 H 3.087495 5.346607 1.059367 0
M  V30 38 H 2.130906 4.883573 2.527992 0
M  V30 39 H 4.509678 3.598709 1.287318 0
M  V30 40 H 3.850278 3.406257 2.927450 0
M  V30 41 H 2.922659 1.929612 0.427177 0
M  V30 42 H 3.546359 1.253180 1.930568 0
M  V30 43 H 1.137781 1.045539 2.117047 0
M  V30 44 H 1.666125 2.332088 3.200877 0
M  V30 45 H -3.290098 1.671213 -3.810914 0
M  V30 46 H -3.039265 -4.629845 -0.538861 0
M  V30 47 H -2.629261 -6.622695 0.801385 0
M  V30 END ATOM
M  V30 BEGIN BOND
M  V30 1 1 1 2
M  V30 2 1 2 3
M  V30 3 2 3 4
M  V30 4 1 4 5
M  V30 5 2 5 6
M  V30 6 1 6 7
M  V30 7 2 7 8
M  V30 8 1 8 9
M  V30 9 2 9 10
M  V30 10 1 10 11
M  V30 11 1 11 12
M  V30 12 2 12 13
M  V30 13 1 12 14
M  V30 14 1 14 15
M  V30 15 1 15 16
M  V30 16 1 16 17
M  V30 17 1 17 18
M  V30 18 1 18 19
M  V30 19 1 10 20
M  V30 20 2 20 21
M  V30 21 1 21 22
M  V30 22 2 22 23
M  V30 23 1 23 24
M  V30 24 1 6 25
M  V30 25 2 25 26
M  V30 26 1 26 3
M  V30 27 1 24 7
M  V30 28 1 23 9
M  V30 29 1 19 14
M  V30 30 1 1 27
M  V30 31 1 1 28
M  V30 32 1 1 29
M  V30 33 1 4 30
M  V30 34 1 5 31
M  V30 35 1 8 32
M  V30 36 1 11 33
M  V30 37 1 14 34
M  V30 38 1 15 35
M  V30 39 1 15 36
M  V30 40 1 16 37
M  V30 41 1 16 38
M  V30 42 1 17 39
M  V30 43 1 17 40
M  V30 44 1 18 41
M  V30 45 1 18 42
M  V30 46 1 19 43
M  V30 47 1 19 44
M  V30 48 1 21 45
M  V30 49 1 25 46
M  V30 50 1 26 47
M  V30 END BOND
M  V30 END CTAB
M  END
>  <Dataset>  (150) 
ChEMBL_Kinases

>  <Ligand_Instance>  (150) 
nan

>  <PDB_ID>  (150) 
nan

>  <Standardized_SMILES>  (150) 
COc1ccc(-c2cc3c(NC(=O)C4CCCCC4)ncnc3o2)cc1

>  <Name>  (150) 
nan

>  <Pocket>  (150) 
nan

>  <ATP_Site>  (150) 
nan

>  <Peripheral>  (150) 
nan

>  <Num_H_Atoms_ProtBoundConf>  (150) 
nan

>  <Num_Resolved_Atoms>  (150) 
nan

>  <Num_Not_Resolved_Atoms>  (150) 
nan

$$$$
CHEMBL360337
     RDKit          3D

  0  0  0  0  0  0  0  0  0  0999 V3000
M  V30 BEGIN CTAB
M  V30 COUNTS 53 55 0 0 0
M  V30 BEGIN ATOM
M  V30 1 C 1.841798 -2.401924 6.273943 0
M  V30 2 C 2.170609 -3.056041 4.931367 0
M  V30 3 C 1.993491 -2.005163 3.848761 0
M  V30 4 C 2.296892 -2.563716 2.494007 0
M  V30 5 O 2.135335 -1.592128 1.514027 0
M  V30 6 C 2.813356 -0.429160 1.340220 0
M  V30 7 C 3.843121 0.259768 1.931689 0
M  V30 8 C 4.328616 1.471564 1.503835 0
M  V30 9 C 3.747081 2.049899 0.397709 0
M  V30 10 C 2.705101 1.421102 -0.256525 0
M  V30 11 O 2.239849 2.136458 -1.343604 0
M  V30 12 C 2.248439 0.196193 0.214368 0
M  V30 13 C 1.138701 -0.267943 -0.646422 0
M  V30 14 C -0.143011 0.103744 -0.302742 0
M  V30 15 C -1.307853 -0.245763 -1.003448 0
M  V30 16 C -2.660781 0.196845 -0.581487 0
M  V30 17 C -3.411321 -0.830627 0.206670 0
M  V30 18 C -4.897630 -0.743548 0.100581 0
M  V30 19 N -5.384735 0.491501 -0.485006 0
M  V30 20 C -4.817684 0.517866 -1.833476 0
M  V30 21 C -3.374440 0.906856 -1.658071 0
M  V30 22 C -1.023484 -1.026156 -2.107783 0
M  V30 23 C -2.085800 -1.478193 -2.924695 0
M  V30 24 N -2.939616 -1.858103 -3.570379 0
M  V30 25 C 0.262524 -1.394017 -2.445441 0
M  V30 26 N 0.500103 -2.201791 -3.598194 0
M  V30 27 N 1.305257 -1.017001 -1.723951 0
M  V30 28 H 2.213694 -3.138903 7.038746 0
M  V30 29 H 2.437643 -1.478289 6.343049 0
M  V30 30 H 0.747231 -2.246807 6.357090 0
M  V30 31 H 1.499096 -3.911502 4.780356 0
M  V30 32 H 3.227718 -3.370824 4.960993 0
M  V30 33 H 0.916609 -1.681509 3.856344 0
M  V30 34 H 2.565221 -1.109714 4.081407 0
M  V30 35 H 1.587164 -3.425929 2.308915 0
M  V30 36 H 3.337677 -3.007068 2.487572 0
M  V30 37 H 4.242405 -0.275428 2.773536 0
M  V30 38 H 5.141078 1.853728 2.100175 0
M  V30 39 H 4.169584 2.996959 0.111113 0
M  V30 40 H 1.520502 1.779413 -1.975983 0
M  V30 41 H -0.276661 0.727420 0.595220 0
M  V30 42 H -2.442057 1.002894 0.197681 0
M  V30 43 H -3.156781 -0.830307 1.288267 0
M  V30 44 H -3.111075 -1.847648 -0.147447 0
M  V30 45 H -5.412159 -0.811348 1.099757 0
M  V30 46 H -5.341172 -1.562460 -0.508676 0
M  V30 47 H -6.414054 0.367645 -0.616129 0
M  V30 48 H -5.348613 1.318932 -2.386004 0
M  V30 49 H -4.997567 -0.404692 -2.377561 0
M  V30 50 H -2.881858 0.796678 -2.644394 0
M  V30 51 H -3.406449 2.034484 -1.525032 0
M  V30 52 H 0.730509 -2.211790 -4.623435 0
M  V30 53 H 0.514464 -3.218440 -3.783908 0
M  V30 END ATOM
M  V30 BEGIN BOND
M  V30 1 1 1 2
M  V30 2 1 2 3
M  V30 3 1 3 4
M  V30 4 1 4 5
M  V30 5 1 5 6
M  V30 6 2 6 7
M  V30 7 1 7 8
M  V30 8 2 8 9
M  V30 9 1 9 10
M  V30 10 1 10 11
M  V30 11 2 10 12
M  V30 12 1 12 13
M  V30 13 2 13 14
M  V30 14 1 14 15
M  V30 15 1 15 16
M  V30 16 1 16 17
M  V30 17 1 17 18
M  V30 18 1 18 19
M  V30 19 1 19 20
M  V30 20 1 20 21
M  V30 21 2 15 22
M  V30 22 1 22 23
M  V30 23 3 23 24
M  V30 24 1 22 25
M  V30 25 1 25 26
M  V30 26 2 25 27
M  V30 27 1 12 6
M  V30 28 1 27 13
M  V30 29 1 21 16
M  V30 30 1 1 28
M  V30 31 1 1 29
M  V30 32 1 1 30
M  V30 33 1 2 31
M  V30 34 1 2 32
M  V30 35 1 3 33
M  V30 36 1 3 34
M  V30 37 1 4 35
M  V30 38 1 4 36
M  V30 39 1 7 37
M  V30 40 1 8 38
M  V30 41 1 9 39
M  V30 42 1 11 40
M  V30 43 1 14 41
M  V30 44 1 16 42
M  V30 45 1 17 43
M  V30 46 1 17 44
M  V30 47 1 18 45
M  V30 48 1 18 46
M  V30 49 1 19 47
M  V30 50 1 20 48
M  V30 51 1 20 49
M  V30 52 1 21 50
M  V30 53 1 21 51
M  V30 54 1 26 52
M  V30 55 1 26 53
M  V30 END BOND
M  V30 END CTAB
M  END
>  <Dataset>  (151) 
ChEMBL_Kinases

>  <Ligand_Instance>  (151) 
nan

>  <PDB_ID>  (151) 
nan

>  <Standardized_SMILES>  (151) 
CCCCOc1cccc(O)c1-c1cc(C2CCNCC2)c(C#N)c(N)n1

>  <Name>  (151) 
nan

>  <Pocket>  (151) 
nan

>  <ATP_Site>  (151) 
nan

>  <Peripheral>  (151) 
nan

>  <Num_H_Atoms_ProtBoundConf>  (151) 
nan

>  <Num_Resolved_Atoms>  (151) 
nan

>  <Num_Not_Resolved_Atoms>  (151) 
nan

$$$$
CHEMBL360333
     RDKit          3D

  0  0  0  0  0  0  0  0  0  0999 V3000
M  V30 BEGIN CTAB
M  V30 COUNTS 55 59 0 0 0
M  V30 BEGIN ATOM
M  V30 1 N 5.551532 -7.824815 2.397000 0
M  V30 2 C 4.947858 -6.915010 2.008277 0
M  V30 3 C 4.217529 -5.772198 1.524441 0
M  V30 4 C 4.836855 -4.528900 1.601882 0
M  V30 5 N 4.173105 -3.440514 1.154859 0
M  V30 6 C 2.928100 -3.509665 0.633723 0
M  V30 7 C 2.311473 -2.266961 0.184484 0
M  V30 8 C 2.729663 -1.408302 -0.797769 0
M  V30 9 C 2.003932 -0.263948 -1.082508 0
M  V30 10 C 0.825171 0.075033 -0.397462 0
M  V30 11 C 0.292870 1.356833 -0.944225 0
M  V30 12 N 0.829948 2.523276 -0.286379 0
M  V30 13 C 0.384906 2.700879 1.074340 0
M  V30 14 C -1.035998 3.077555 1.195083 0
M  V30 15 C -1.272793 4.460971 1.147649 0
M  V30 16 C -2.523315 5.026124 1.245851 0
M  V30 17 C -3.647408 4.250061 1.400627 0
M  V30 18 C -4.997580 4.794527 1.510282 0
M  V30 19 C -6.119863 3.945957 1.670665 0
M  V30 20 S -7.468442 5.168295 1.745608 0
M  V30 21 N -6.296692 6.607711 1.549201 0
M  V30 22 N -5.277342 6.076441 1.471877 0
M  V30 23 C -3.414109 2.893202 1.447078 0
M  V30 24 C -2.167741 2.324457 1.349528 0
M  V30 25 C 0.419982 -0.794504 0.582475 0
M  V30 26 C 1.145324 -1.930680 0.861410 0
M  V30 27 C 2.292251 -4.730898 0.545824 0
M  V30 28 C 0.970507 -4.834519 -0.004070 0
M  V30 29 C -0.187999 -5.284447 0.597812 0
M  V30 30 C -1.384413 -5.310789 -0.106050 0
M  V30 31 C -1.464684 -4.893585 -1.420028 0
M  V30 32 C -0.300892 -4.434621 -2.045423 0
M  V30 33 C 0.872620 -4.420399 -1.320024 0
M  V30 34 C 2.938915 -5.880076 0.994729 0
M  V30 35 H 5.844425 -4.402945 2.013079 0
M  V30 36 H 3.634046 -1.710126 -1.292024 0
M  V30 37 H 2.489608 0.300253 -1.896211 0
M  V30 38 H 0.367680 1.411016 -2.030838 0
M  V30 39 H -0.807640 1.326897 -0.684332 0
M  V30 40 H 1.861022 2.606670 -0.375166 0
M  V30 41 H 0.998443 3.502373 1.532096 0
M  V30 42 H 0.597941 1.774401 1.674506 0
M  V30 43 H -0.457484 5.182109 1.027229 0
M  V30 44 H -2.664406 6.099021 1.204854 0
M  V30 45 H -6.136634 2.875235 1.728523 0
M  V30 46 H -4.229900 2.177435 1.567276 0
M  V30 47 H -2.004638 1.279541 1.389206 0
M  V30 48 H -0.477103 -0.456494 1.040893 0
M  V30 49 H 0.706686 -2.528114 1.662731 0
M  V30 50 H -0.060413 -5.597124 1.626343 0
M  V30 51 H -2.256167 -5.676701 0.429747 0
M  V30 52 H -2.396227 -4.914290 -1.968922 0
M  V30 53 H -0.382794 -4.112163 -3.073158 0
M  V30 54 H 1.719042 -4.041730 -1.909902 0
M  V30 55 H 2.486327 -6.872692 0.950548 0
M  V30 END ATOM
M  V30 BEGIN BOND
M  V30 1 3 1 2
M  V30 2 1 2 3
M  V30 3 2 3 4
M  V30 4 1 4 5
M  V30 5 2 5 6
M  V30 6 1 6 7
M  V30 7 2 7 8
M  V30 8 1 8 9
M  V30 9 2 9 10
M  V30 10 1 10 11
M  V30 11 1 11 12
M  V30 12 1 12 13
M  V30 13 1 13 14
M  V30 14 2 14 15
M  V30 15 1 15 16
M  V30 16 2 16 17
M  V30 17 1 17 18
M  V30 18 2 18 19
M  V30 19 1 19 20
M  V30 20 1 20 21
M  V30 21 2 21 22
M  V30 22 1 17 23
M  V30 23 2 23 24
M  V30 24 1 10 25
M  V30 25 2 25 26
M  V30 26 1 6 27
M  V30 27 1 27 28
M  V30 28 2 28 29
M  V30 29 1 29 30
M  V30 30 2 30 31
M  V30 31 1 31 32
M  V30 32 2 32 33
M  V30 33 2 27 34
M  V30 34 1 34 3
M  V30 35 1 26 7
M  V30 36 1 33 28
M  V30 37 1 24 14
M  V30 38 1 22 18
M  V30 39 1 4 35
M  V30 40 1 8 36
M  V30 41 1 9 37
M  V30 42 1 11 38
M  V30 43 1 11 39
M  V30 44 1 12 40
M  V30 45 1 13 41
M  V30 46 1 13 42
M  V30 47 1 15 43
M  V30 48 1 16 44
M  V30 49 1 19 45
M  V30 50 1 23 46
M  V30 51 1 24 47
M  V30 52 1 25 48
M  V30 53 1 26 49
M  V30 54 1 29 50
M  V30 55 1 30 51
M  V30 56 1 31 52
M  V30 57 1 32 53
M  V30 58 1 33 54
M  V30 59 1 34 55
M  V30 END BOND
M  V30 END CTAB
M  END
>  <Dataset>  (152) 
ChEMBL_Kinases

>  <Ligand_Instance>  (152) 
nan

>  <PDB_ID>  (152) 
nan

>  <Standardized_SMILES>  (152) 
N#Cc1cnc(-c2ccc(CNCc3ccc(-c4csnn4)cc3)cc2)c(-c2ccccc2)c1

>  <Name>  (152) 
nan

>  <Pocket>  (152) 
nan

>  <ATP_Site>  (152) 
nan

>  <Peripheral>  (152) 
nan

>  <Num_H_Atoms_ProtBoundConf>  (152) 
nan

>  <Num_Resolved_Atoms>  (152) 
nan

>  <Num_Not_Resolved_Atoms>  (152) 
nan

$$$$
CHEMBL360278
     RDKit          3D

  0  0  0  0  0  0  0  0  0  0999 V3000
M  V30 BEGIN CTAB
M  V30 COUNTS 32 34 0 0 0
M  V30 BEGIN ATOM
M  V30 1 C 0.593966 -0.653432 3.517616 0
M  V30 2 N 0.391366 -0.959561 2.104780 0
M  V30 3 C 0.433423 -2.276359 1.589435 0
M  V30 4 C 0.671615 -3.333280 2.420510 0
M  V30 5 C 0.725902 -4.636338 1.987696 0
M  V30 6 C 0.530796 -4.907370 0.641011 0
M  V30 7 C 0.284763 -3.842913 -0.233402 0
M  V30 8 C 0.244165 -2.555730 0.273469 0
M  V30 9 C -0.019980 -1.489509 -0.710162 0
M  V30 10 C -0.053149 -0.144117 -0.123945 0
M  V30 11 C 0.141315 0.133566 1.222715 0
M  V30 12 N 0.102474 1.381843 1.717504 0
M  V30 13 C -0.133497 2.411295 0.883874 0
M  V30 14 N -0.169758 3.728047 1.434506 0
M  V30 15 C -0.332016 2.179298 -0.460721 0
M  V30 16 C -0.576761 3.340084 -1.270782 0
M  V30 17 N -0.790267 4.296811 -1.921681 0
M  V30 18 C -0.298593 0.899569 -1.006916 0
M  V30 19 N -0.514916 0.741598 -2.416520 0
M  V30 20 H 1.673499 -0.506125 3.744595 0
M  V30 21 H 0.093518 -1.388398 4.160413 0
M  V30 22 H 0.122781 0.332408 3.753811 0
M  V30 23 H 0.829643 -3.165654 3.480844 0
M  V30 24 H 0.912430 -5.493825 2.621060 0
M  V30 25 H 0.570036 -5.931324 0.280117 0
M  V30 26 H 0.140976 -4.101724 -1.260458 0
M  V30 27 H -0.976132 -1.690970 -1.237229 0
M  V30 28 H 0.822057 -1.526673 -1.459510 0
M  V30 29 H -0.335398 3.869974 2.448159 0
M  V30 30 H -0.033044 4.553783 0.838960 0
M  V30 31 H 0.203671 0.678607 -3.165690 0
M  V30 32 H -1.557002 0.712122 -2.446685 0
M  V30 END ATOM
M  V30 BEGIN BOND
M  V30 1 1 1 2
M  V30 2 1 2 3
M  V30 3 2 3 4
M  V30 4 1 4 5
M  V30 5 2 5 6
M  V30 6 1 6 7
M  V30 7 2 7 8
M  V30 8 1 8 9
M  V30 9 1 9 10
M  V30 10 2 10 11
M  V30 11 1 11 12
M  V30 12 2 12 13
M  V30 13 1 13 14
M  V30 14 1 13 15
M  V30 15 1 15 16
M  V30 16 3 16 17
M  V30 17 2 15 18
M  V30 18 1 18 19
M  V30 19 1 11 2
M  V30 20 1 8 3
M  V30 21 1 18 10
M  V30 22 1 1 20
M  V30 23 1 1 21
M  V30 24 1 1 22
M  V30 25 1 4 23
M  V30 26 1 5 24
M  V30 27 1 6 25
M  V30 28 1 7 26
M  V30 29 1 9 27
M  V30 30 1 9 28
M  V30 31 1 14 29
M  V30 32 1 14 30
M  V30 33 1 19 31
M  V30 34 1 19 32
M  V30 END BOND
M  V30 END CTAB
M  END
>  <Dataset>  (153) 
ChEMBL_Kinases

>  <Ligand_Instance>  (153) 
nan

>  <PDB_ID>  (153) 
nan

>  <Standardized_SMILES>  (153) 
CN1c2ccccc2Cc2c1nc(N)c(C#N)c2N

>  <Name>  (153) 
nan

>  <Pocket>  (153) 
nan

>  <ATP_Site>  (153) 
nan

>  <Peripheral>  (153) 
nan

>  <Num_H_Atoms_ProtBoundConf>  (153) 
nan

>  <Num_Resolved_Atoms>  (153) 
nan

>  <Num_Not_Resolved_Atoms>  (153) 
nan

$$$$
CHEMBL360219
     RDKit          3D

  0  0  0  0  0  0  0  0  0  0999 V3000
M  V30 BEGIN CTAB
M  V30 COUNTS 45 48 0 0 0
M  V30 BEGIN ATOM
M  V30 1 C 0.905956 -2.811409 1.282856 0
M  V30 2 C 1.807729 -1.605054 1.425660 0
M  V30 3 N 1.857019 -0.749412 0.294904 0
M  V30 4 C 2.693066 -0.885555 -0.785580 0
M  V30 5 C 3.692084 -1.937062 -1.011257 0
M  V30 6 N 4.067284 -3.007600 -0.289931 0
M  V30 7 O 5.005438 -3.682437 -0.877771 0
M  V30 8 N 5.287584 -3.090181 -2.004821 0
M  V30 9 C 4.494794 -2.000084 -2.129009 0
M  V30 10 N 4.564202 -1.140730 -3.258667 0
M  V30 11 N 2.487657 0.099866 -1.662476 0
M  V30 12 C 1.519935 0.895483 -1.176942 0
M  V30 13 C 1.010620 2.035040 -1.770011 0
M  V30 14 N 0.041150 2.673849 -1.073535 0
M  V30 15 C -0.347301 2.181894 0.097695 0
M  V30 16 C 0.144482 1.026803 0.734869 0
M  V30 17 C -0.345007 0.561396 2.034133 0
M  V30 18 N -1.245564 -0.538483 1.993026 0
M  V30 19 C -1.663806 -0.950265 3.302026 0
M  V30 20 C -3.153651 -0.901800 3.497631 0
M  V30 21 C -3.580766 0.518570 3.183037 0
M  V30 22 C -3.353508 0.727751 1.704499 0
M  V30 23 C -2.346335 -0.229642 1.110682 0
M  V30 24 C 1.135318 0.361698 0.036379 0
M  V30 25 H 0.656384 -3.204212 2.286327 0
M  V30 26 H 0.011417 -2.631419 0.657517 0
M  V30 27 H 1.464133 -3.613365 0.763597 0
M  V30 28 H 2.843232 -2.079860 1.494397 0
M  V30 29 H 1.770364 -1.154876 2.423830 0
M  V30 30 H 4.291720 -1.362750 -4.235015 0
M  V30 31 H 4.928539 -0.179701 -3.094140 0
M  V30 32 H 1.362194 2.388943 -2.720932 0
M  V30 33 H -1.138824 2.763036 0.596140 0
M  V30 34 H -1.037563 1.406839 2.370864 0
M  V30 35 H 0.375683 0.601955 2.870621 0
M  V30 36 H -1.371448 -2.036677 3.384215 0
M  V30 37 H -1.144418 -0.418875 4.113241 0
M  V30 38 H -3.651162 -1.594805 2.773205 0
M  V30 39 H -3.371690 -1.143196 4.554195 0
M  V30 40 H -4.651104 0.638554 3.408413 0
M  V30 41 H -3.002207 1.239745 3.775626 0
M  V30 42 H -3.119941 1.790196 1.534035 0
M  V30 43 H -4.320926 0.546165 1.179803 0
M  V30 44 H -1.920672 0.268679 0.211501 0
M  V30 45 H -2.823260 -1.150017 0.715307 0
M  V30 END ATOM
M  V30 BEGIN BOND
M  V30 1 1 1 2
M  V30 2 1 2 3
M  V30 3 1 3 4
M  V30 4 1 4 5
M  V30 5 2 5 6
M  V30 6 1 6 7
M  V30 7 1 7 8
M  V30 8 2 8 9
M  V30 9 1 9 10
M  V30 10 2 4 11
M  V30 11 1 11 12
M  V30 12 2 12 13
M  V30 13 1 13 14
M  V30 14 2 14 15
M  V30 15 1 15 16
M  V30 16 1 16 17
M  V30 17 1 17 18
M  V30 18 1 18 19
M  V30 19 1 19 20
M  V30 20 1 20 21
M  V30 21 1 21 22
M  V30 22 1 22 23
M  V30 23 2 16 24
M  V30 24 1 24 3
M  V30 25 1 9 5
M  V30 26 1 24 12
M  V30 27 1 23 18
M  V30 28 1 1 25
M  V30 29 1 1 26
M  V30 30 1 1 27
M  V30 31 1 2 28
M  V30 32 1 2 29
M  V30 33 1 10 30
M  V30 34 1 10 31
M  V30 35 1 13 32
M  V30 36 1 15 33
M  V30 37 1 17 34
M  V30 38 1 17 35
M  V30 39 1 19 36
M  V30 40 1 19 37
M  V30 41 1 20 38
M  V30 42 1 20 39
M  V30 43 1 21 40
M  V30 44 1 21 41
M  V30 45 1 22 42
M  V30 46 1 22 43
M  V30 47 1 23 44
M  V30 48 1 23 45
M  V30 END BOND
M  V30 END CTAB
M  END
>  <Dataset>  (154) 
ChEMBL_Kinases

>  <Ligand_Instance>  (154) 
nan

>  <PDB_ID>  (154) 
nan

>  <Standardized_SMILES>  (154) 
CCn1c(-c2nonc2N)nc2cncc(CN3CCCCC3)c21

>  <Name>  (154) 
nan

>  <Pocket>  (154) 
nan

>  <ATP_Site>  (154) 
nan

>  <Peripheral>  (154) 
nan

>  <Num_H_Atoms_ProtBoundConf>  (154) 
nan

>  <Num_Resolved_Atoms>  (154) 
nan

>  <Num_Not_Resolved_Atoms>  (154) 
nan

$$$$
CHEMBL360209
     RDKit          3D

  0  0  0  0  0  0  0  0  0  0999 V3000
M  V30 BEGIN CTAB
M  V30 COUNTS 50 53 0 0 0
M  V30 BEGIN ATOM
M  V30 1 C 3.746665 -2.285899 6.055197 0
M  V30 2 O 3.234209 -2.573077 4.780313 0
M  V30 3 C 3.202529 -1.632628 3.779320 0
M  V30 4 C 3.716541 -0.406986 4.116936 0
M  V30 5 C 3.650723 0.453991 3.097069 0
M  V30 6 N 4.121826 1.775901 3.246895 0
M  V30 7 C 4.023060 2.620057 2.165032 0
M  V30 8 N 3.516114 2.367433 0.904562 0
M  V30 9 C 3.017060 1.069016 0.644854 0
M  V30 10 N 2.527059 0.881330 -0.625335 0
M  V30 11 C 1.214670 1.049595 -1.137313 0
M  V30 12 C 1.171364 2.003188 -2.131145 0
M  V30 13 C 0.009489 2.348505 -2.782730 0
M  V30 14 C -1.206927 1.729076 -2.455493 0
M  V30 15 Cl -2.737114 2.111431 -3.225893 0
M  V30 16 C -1.086365 0.763099 -1.431598 0
M  V30 17 N -2.344678 0.166998 -1.139110 0
M  V30 18 C -2.891253 -0.951181 -1.797938 0
M  V30 19 O -2.193298 -1.450647 -2.715095 0
M  V30 20 C -4.196510 -1.443776 -1.388179 0
M  V30 21 C -4.951561 -0.932264 -0.338958 0
M  V30 22 C -6.176151 -1.425351 -0.009125 0
M  V30 23 C -6.743460 -2.471694 -0.705232 0
M  V30 24 C -5.980039 -2.962889 -1.738399 0
M  V30 25 C -4.736379 -2.503501 -2.116037 0
M  V30 26 C 0.056912 0.408868 -0.775189 0
M  V30 27 C 3.333628 0.761788 1.869915 0
M  V30 28 C 2.776384 -0.680285 1.610484 0
M  V30 29 C 2.700108 -1.820030 2.477327 0
M  V30 30 O 2.236714 -3.125644 2.357067 0
M  V30 31 C 1.683377 -3.508416 1.100230 0
M  V30 32 H 3.459357 -1.248879 6.385301 0
M  V30 33 H 3.286609 -2.939094 6.842623 0
M  V30 34 H 4.839138 -2.353271 6.144328 0
M  V30 35 H 4.157837 0.000365 5.008887 0
M  V30 36 H 4.409961 3.688681 2.316874 0
M  V30 37 H 3.330141 0.567008 -1.208644 0
M  V30 38 H 2.035059 2.578462 -2.500472 0
M  V30 39 H -0.031023 3.112117 -3.576036 0
M  V30 40 H -2.775803 0.712214 -0.351286 0
M  V30 41 H -4.542986 -0.107735 0.228025 0
M  V30 42 H -6.738242 -0.998159 0.825664 0
M  V30 43 H -7.717128 -2.861660 -0.445330 0
M  V30 44 H -6.398723 -3.797559 -2.319392 0
M  V30 45 H -4.155759 -2.917448 -2.946417 0
M  V30 46 H 0.113939 -0.331372 -0.004331 0
M  V30 47 H 2.298745 -1.231926 0.726893 0
M  V30 48 H 0.868892 -2.788348 0.871502 0
M  V30 49 H 1.290326 -4.555651 1.147828 0
M  V30 50 H 2.476484 -3.505191 0.330817 0
M  V30 END ATOM
M  V30 BEGIN BOND
M  V30 1 1 1 2
M  V30 2 1 2 3
M  V30 3 2 3 4
M  V30 4 1 4 5
M  V30 5 2 5 6
M  V30 6 1 6 7
M  V30 7 2 7 8
M  V30 8 1 8 9
M  V30 9 1 9 10
M  V30 10 1 10 11
M  V30 11 2 11 12
M  V30 12 1 12 13
M  V30 13 2 13 14
M  V30 14 1 14 15
M  V30 15 1 14 16
M  V30 16 1 16 17
M  V30 17 1 17 18
M  V30 18 2 18 19
M  V30 19 1 18 20
M  V30 20 2 20 21
M  V30 21 1 21 22
M  V30 22 2 22 23
M  V30 23 1 23 24
M  V30 24 2 24 25
M  V30 25 2 16 26
M  V30 26 2 9 27
M  V30 27 1 27 28
M  V30 28 2 28 29
M  V30 29 1 29 30
M  V30 30 1 30 31
M  V30 31 1 29 3
M  V30 32 1 27 5
M  V30 33 1 26 11
M  V30 34 1 25 20
M  V30 35 1 1 32
M  V30 36 1 1 33
M  V30 37 1 1 34
M  V30 38 1 4 35
M  V30 39 1 7 36
M  V30 40 1 10 37
M  V30 41 1 12 38
M  V30 42 1 13 39
M  V30 43 1 17 40
M  V30 44 1 21 41
M  V30 45 1 22 42
M  V30 46 1 23 43
M  V30 47 1 24 44
M  V30 48 1 25 45
M  V30 49 1 26 46
M  V30 50 1 28 47
M  V30 51 1 31 48
M  V30 52 1 31 49
M  V30 53 1 31 50
M  V30 END BOND
M  V30 END CTAB
M  END
>  <Dataset>  (155) 
ChEMBL_Kinases

>  <Ligand_Instance>  (155) 
nan

>  <PDB_ID>  (155) 
nan

>  <Standardized_SMILES>  (155) 
COc1cc2ncnc(Nc3ccc(Cl)c(NC(=O)c4ccccc4)c3)c2cc1OC

>  <Name>  (155) 
nan

>  <Pocket>  (155) 
nan

>  <ATP_Site>  (155) 
nan

>  <Peripheral>  (155) 
nan

>  <Num_H_Atoms_ProtBoundConf>  (155) 
nan

>  <Num_Resolved_Atoms>  (155) 
nan

>  <Num_Not_Resolved_Atoms>  (155) 
nan

$$$$
CHEMBL360196
     RDKit          3D

  0  0  0  0  0  0  0  0  0  0999 V3000
M  V30 BEGIN CTAB
M  V30 COUNTS 36 37 0 0 0
M  V30 BEGIN ATOM
M  V30 1 C 0.042163 -2.847281 3.480149 0
M  V30 2 C -0.498518 -3.192075 2.142873 0
M  V30 3 N -1.099573 -4.541765 2.215014 0
M  V30 4 C 0.389640 -3.065426 0.970096 0
M  V30 5 C 0.932760 -1.722034 0.719772 0
M  V30 6 C 0.035190 -0.901282 0.012701 0
M  V30 7 C 0.368463 0.413271 -0.233252 0
M  V30 8 C -0.483606 1.340593 -0.968364 0
M  V30 9 C -1.757088 1.035730 -1.390087 0
M  V30 10 C -2.610979 1.840844 -2.098793 0
M  V30 11 C -2.173460 3.097255 -2.441504 0
M  V30 12 C -0.891471 3.451604 -2.037027 0
M  V30 13 C -0.085804 2.609415 -1.332952 0
M  V30 14 O 1.192525 3.016540 -0.952009 0
M  V30 15 N 1.530268 0.915979 0.189027 0
M  V30 16 C 2.439248 0.198252 0.868853 0
M  V30 17 N 3.698138 0.620448 1.364734 0
M  V30 18 C 2.121241 -1.116882 1.122756 0
M  V30 19 C 3.043036 -2.003402 1.782074 0
M  V30 20 N 3.783398 -2.732396 2.311449 0
M  V30 21 H 0.262081 -3.777324 4.065093 0
M  V30 22 H 0.932883 -2.241060 3.453940 0
M  V30 23 H -0.750694 -2.267330 4.048382 0
M  V30 24 H -1.429861 -2.563024 1.909621 0
M  V30 25 H -0.459264 -5.198681 2.709935 0
M  V30 26 H -1.325404 -4.853906 1.246633 0
M  V30 27 H -0.200530 -3.403906 0.060997 0
M  V30 28 H 1.226707 -3.828511 0.984344 0
M  V30 29 H -0.899760 -1.236824 -0.349172 0
M  V30 30 H -2.195485 0.057622 -1.161649 0
M  V30 31 H -3.604697 1.547983 -2.405100 0
M  V30 32 H -2.720987 3.841331 -2.994894 0
M  V30 33 H -0.512582 4.448836 -2.296058 0
M  V30 34 H 1.371210 3.409665 -0.034090 0
M  V30 35 H 4.423349 0.552316 0.588791 0
M  V30 36 H 4.121129 0.968551 2.242702 0
M  V30 END ATOM
M  V30 BEGIN BOND
M  V30 1 1 1 2
M  V30 2 1 2 3
M  V30 3 1 2 4
M  V30 4 1 4 5
M  V30 5 2 5 6
M  V30 6 1 6 7
M  V30 7 1 7 8
M  V30 8 2 8 9
M  V30 9 1 9 10
M  V30 10 2 10 11
M  V30 11 1 11 12
M  V30 12 2 12 13
M  V30 13 1 13 14
M  V30 14 2 7 15
M  V30 15 1 15 16
M  V30 16 1 16 17
M  V30 17 2 16 18
M  V30 18 1 18 19
M  V30 19 3 19 20
M  V30 20 1 18 5
M  V30 21 1 13 8
M  V30 22 1 1 21
M  V30 23 1 1 22
M  V30 24 1 1 23
M  V30 25 1 2 24
M  V30 26 1 3 25
M  V30 27 1 3 26
M  V30 28 1 4 27
M  V30 29 1 4 28
M  V30 30 1 6 29
M  V30 31 1 9 30
M  V30 32 1 10 31
M  V30 33 1 11 32
M  V30 34 1 12 33
M  V30 35 1 14 34
M  V30 36 1 17 35
M  V30 37 1 17 36
M  V30 END BOND
M  V30 END CTAB
M  END
>  <Dataset>  (156) 
ChEMBL_Kinases

>  <Ligand_Instance>  (156) 
nan

>  <PDB_ID>  (156) 
nan

>  <Standardized_SMILES>  (156) 
CC(N)Cc1cc(-c2ccccc2O)nc(N)c1C#N

>  <Name>  (156) 
nan

>  <Pocket>  (156) 
nan

>  <ATP_Site>  (156) 
nan

>  <Peripheral>  (156) 
nan

>  <Num_H_Atoms_ProtBoundConf>  (156) 
nan

>  <Num_Resolved_Atoms>  (156) 
nan

>  <Num_Not_Resolved_Atoms>  (156) 
nan

$$$$
CHEMBL3601951
     RDKit          3D

  0  0  0  0  0  0  0  0  0  0999 V3000
M  V30 BEGIN CTAB
M  V30 COUNTS 38 41 0 0 0
M  V30 BEGIN ATOM
M  V30 1 C 2.363721 3.480761 -2.482299 0
M  V30 2 C 1.520252 3.864322 -1.316030 0
M  V30 3 N 1.124453 5.009300 -0.728012 0
M  V30 4 N 0.364418 4.641669 0.292764 0
M  V30 5 C 0.273697 3.299761 0.359801 0
M  V30 6 C -0.466920 2.506611 1.336137 0
M  V30 7 C -1.177390 3.145216 2.331853 0
M  V30 8 C -1.900647 2.423133 3.287489 0
M  V30 9 C -1.836508 1.046327 3.141832 0
M  V30 10 O -2.420603 0.127201 3.899385 0
M  V30 11 C -2.135110 -1.083160 3.458946 0
M  V30 12 C -1.319534 -0.972100 2.351608 0
M  V30 13 C -0.763470 -2.056229 1.547617 0
M  V30 14 C -0.706715 -2.162783 0.173263 0
M  V30 15 C -0.148725 -3.251270 -0.424082 0
M  V30 16 C 0.378843 -4.284667 0.352886 0
M  V30 17 S 1.109642 -5.710493 -0.344174 0 CHG=1 VAL=3
M  V30 18 C 2.855614 -5.490925 -0.602895 0
M  V30 19 O 0.360292 -6.174989 -1.773219 0 CHG=-1 VAL=1
M  V30 20 C 0.329254 -4.192112 1.726662 0
M  V30 21 C -0.241791 -3.078186 2.348543 0
M  V30 22 C -1.134139 0.382907 2.156108 0
M  V30 23 C -0.434795 1.134392 1.234327 0
M  V30 24 O 1.000191 2.853394 -0.649618 0
M  V30 25 H 1.810009 2.775499 -3.162501 0
M  V30 26 H 2.557452 4.392340 -3.064686 0
M  V30 27 H 3.284667 2.965908 -2.204929 0
M  V30 28 H -1.223160 4.235623 2.440357 0
M  V30 29 H -2.464632 2.892302 4.076310 0
M  V30 30 H -2.504749 -1.977984 3.925114 0
M  V30 31 H -1.131598 -1.330861 -0.347102 0
M  V30 32 H -0.107938 -3.327582 -1.494814 0
M  V30 33 H 3.207208 -6.346036 -1.202070 0
M  V30 34 H 3.385963 -5.516941 0.373502 0
M  V30 35 H 3.066997 -4.564029 -1.172865 0
M  V30 36 H 0.737974 -4.992730 2.330317 0
M  V30 37 H -0.237205 -3.090555 3.423457 0
M  V30 38 H 0.099703 0.605835 0.483198 0
M  V30 END ATOM
M  V30 BEGIN BOND
M  V30 1 1 1 2
M  V30 2 2 2 3
M  V30 3 1 3 4
M  V30 4 2 4 5
M  V30 5 1 5 6
M  V30 6 2 6 7
M  V30 7 1 7 8
M  V30 8 2 8 9
M  V30 9 1 9 10
M  V30 10 1 10 11
M  V30 11 2 11 12
M  V30 12 1 12 13
M  V30 13 2 13 14
M  V30 14 1 14 15
M  V30 15 2 15 16
M  V30 16 1 16 17
M  V30 17 1 17 18
M  V30 18 1 17 19
M  V30 19 1 16 20
M  V30 20 2 20 21
M  V30 21 1 12 22
M  V30 22 2 22 23
M  V30 23 1 5 24
M  V30 24 1 24 2
M  V30 25 1 23 6
M  V30 26 1 22 9
M  V30 27 1 21 13
M  V30 28 1 1 25
M  V30 29 1 1 26
M  V30 30 1 1 27
M  V30 31 1 7 28
M  V30 32 1 8 29
M  V30 33 1 11 30
M  V30 34 1 14 31
M  V30 35 1 15 32
M  V30 36 1 18 33
M  V30 37 1 18 34
M  V30 38 1 18 35
M  V30 39 1 20 36
M  V30 40 1 21 37
M  V30 41 1 23 38
M  V30 END BOND
M  V30 END CTAB
M  END
>  <Dataset>  (157) 
ChEMBL_Kinases

>  <Ligand_Instance>  (157) 
nan

>  <PDB_ID>  (157) 
nan

>  <Standardized_SMILES>  (157) 
Cc1nnc(-c2ccc3occ(-c4ccc([S+](C)[O-])cc4)c3c2)o1

>  <Name>  (157) 
nan

>  <Pocket>  (157) 
nan

>  <ATP_Site>  (157) 
nan

>  <Peripheral>  (157) 
nan

>  <Num_H_Atoms_ProtBoundConf>  (157) 
nan

>  <Num_Resolved_Atoms>  (157) 
nan

>  <Num_Not_Resolved_Atoms>  (157) 
nan

$$$$
CHEMBL3601242
     RDKit          3D

  0  0  0  0  0  0  0  0  0  0999 V3000
M  V30 BEGIN CTAB
M  V30 COUNTS 45 47 0 0 0
M  V30 BEGIN ATOM
M  V30 1 C -0.639561 -4.394998 3.623184 0
M  V30 2 C 0.507814 -4.399060 2.985961 0
M  V30 3 C 0.755256 -3.830930 1.678602 0
M  V30 4 O 1.870540 -3.833131 1.055008 0
M  V30 5 N -0.245783 -3.169601 0.882833 0
M  V30 6 C 0.356433 -2.733864 -0.352792 0
M  V30 7 C 0.426561 -3.457536 -1.520253 0
M  V30 8 C 1.040976 -2.872271 -2.587011 0
M  V30 9 C 1.560897 -1.610169 -2.475034 0
M  V30 10 C 1.512150 -0.838144 -1.307818 0
M  V30 11 C 2.150871 0.489607 -1.450499 0
M  V30 12 N 1.259736 1.517951 -1.926568 0
M  V30 13 C 0.142129 2.137182 -1.306015 0
M  V30 14 N -0.252752 1.825273 -0.034699 0
M  V30 15 C -1.306589 2.435903 0.534243 0
M  V30 16 N -1.774578 2.197351 1.852083 0
M  V30 17 C -1.192362 1.400952 2.874863 0
M  V30 18 C -1.630197 0.945841 4.100954 0
M  V30 19 N -0.642796 0.236144 4.674406 0
M  V30 20 N 0.427367 0.198633 3.889198 0
M  V30 21 C 1.661601 -0.486521 4.213459 0
M  V30 22 C 0.099562 0.905548 2.793003 0
M  V30 23 N -1.987524 3.368441 -0.152213 0
M  V30 24 C -1.667804 3.733214 -1.400496 0
M  V30 25 C -0.590513 3.106578 -1.976029 0
M  V30 26 Cl -0.149188 3.564414 -3.607915 0
M  V30 27 C 0.885751 -1.468631 -0.264481 0
M  V30 28 H -1.492038 -3.923443 3.133226 0
M  V30 29 H -0.707305 -4.842494 4.582718 0
M  V30 30 H 1.398665 -4.859538 3.430653 0
M  V30 31 H -1.226674 -3.096752 1.285739 0
M  V30 32 H -0.025139 -4.432837 -1.455660 0
M  V30 33 H 1.086708 -3.453039 -3.493060 0
M  V30 34 H 2.027372 -1.254775 -3.402427 0
M  V30 35 H 3.015791 0.421618 -2.111790 0
M  V30 36 H 2.559983 0.732266 -0.439454 0
M  V30 37 H 1.467356 1.877937 -2.909850 0
M  V30 38 H -2.655776 2.621385 2.204955 0
M  V30 39 H -2.627877 1.175892 4.458544 0
M  V30 40 H 2.554213 -0.037806 3.758067 0
M  V30 41 H 1.648574 -1.557506 3.934260 0
M  V30 42 H 1.792608 -0.398638 5.309564 0
M  V30 43 H 0.775577 1.055776 1.982547 0
M  V30 44 H -2.207789 4.482331 -1.962291 0
M  V30 45 H 0.866589 -0.851557 0.618429 0
M  V30 END ATOM
M  V30 BEGIN BOND
M  V30 1 2 1 2
M  V30 2 1 2 3
M  V30 3 2 3 4
M  V30 4 1 3 5
M  V30 5 1 5 6
M  V30 6 2 6 7
M  V30 7 1 7 8
M  V30 8 2 8 9
M  V30 9 1 9 10
M  V30 10 1 10 11
M  V30 11 1 11 12
M  V30 12 1 12 13
M  V30 13 2 13 14
M  V30 14 1 14 15
M  V30 15 1 15 16
M  V30 16 1 16 17
M  V30 17 1 17 18
M  V30 18 2 18 19
M  V30 19 1 19 20
M  V30 20 1 20 21
M  V30 21 1 20 22
M  V30 22 2 15 23
M  V30 23 1 23 24
M  V30 24 2 24 25
M  V30 25 1 25 26
M  V30 26 2 10 27
M  V30 27 1 27 6
M  V30 28 1 25 13
M  V30 29 2 22 17
M  V30 30 1 1 28
M  V30 31 1 1 29
M  V30 32 1 2 30
M  V30 33 1 5 31
M  V30 34 1 7 32
M  V30 35 1 8 33
M  V30 36 1 9 34
M  V30 37 1 11 35
M  V30 38 1 11 36
M  V30 39 1 12 37
M  V30 40 1 16 38
M  V30 41 1 18 39
M  V30 42 1 21 40
M  V30 43 1 21 41
M  V30 44 1 21 42
M  V30 45 1 22 43
M  V30 46 1 24 44
M  V30 47 1 27 45
M  V30 END BOND
M  V30 END CTAB
M  END
>  <Dataset>  (158) 
ChEMBL_Kinases

>  <Ligand_Instance>  (158) 
nan

>  <PDB_ID>  (158) 
nan

>  <Standardized_SMILES>  (158) 
C=CC(=O)Nc1cccc(CNc2nc(Nc3cnn(C)c3)ncc2Cl)c1

>  <Name>  (158) 
nan

>  <Pocket>  (158) 
nan

>  <ATP_Site>  (158) 
nan

>  <Peripheral>  (158) 
nan

>  <Num_H_Atoms_ProtBoundConf>  (158) 
nan

>  <Num_Resolved_Atoms>  (158) 
nan

>  <Num_Not_Resolved_Atoms>  (158) 
nan

$$$$
CHEMBL3601235
     RDKit          3D

  0  0  0  0  0  0  0  0  0  0999 V3000
M  V30 BEGIN CTAB
M  V30 COUNTS 58 61 0 0 0
M  V30 BEGIN ATOM
M  V30 1 C 1.538488 -4.231898 3.945948 0
M  V30 2 C 1.239978 -2.945750 3.902547 0
M  V30 3 C 2.063764 -2.132804 3.033504 0
M  V30 4 O 2.963167 -2.745622 2.423998 0
M  V30 5 N 1.940635 -0.744294 2.821998 0
M  V30 6 C 2.692717 0.125972 1.998612 0
M  V30 7 C 3.741545 -0.203210 1.188010 0
M  V30 8 C 4.446051 0.671931 0.406771 0
M  V30 9 C 4.073120 2.000727 0.433030 0
M  V30 10 C 3.020516 2.377236 1.236690 0
M  V30 11 C 2.689924 3.812392 1.221043 0
M  V30 12 N 1.767664 4.216411 0.200667 0
M  V30 13 C 0.436407 3.804980 -0.031083 0
M  V30 14 N -0.184336 2.903615 0.741769 0
M  V30 15 C -1.440397 2.494428 0.551504 0
M  V30 16 N -2.196330 1.547543 1.290011 0
M  V30 17 C -2.228819 0.191840 0.810833 0
M  V30 18 C -2.918334 -0.812160 1.460285 0
M  V30 19 C -2.941517 -2.095208 0.980423 0
M  V30 20 F -3.604297 -3.110331 1.583574 0
M  V30 21 C -2.277159 -2.445310 -0.174459 0
M  V30 22 N -2.214241 -3.732694 -0.791390 0
M  V30 23 C -1.320913 -4.867708 -0.672337 0
M  V30 24 C -1.041509 -5.331167 -2.083786 0
M  V30 25 O -2.177735 -5.704395 -2.755829 0
M  V30 26 C -3.362989 -5.248652 -2.241605 0
M  V30 27 C -3.312733 -3.848721 -1.720336 0
M  V30 28 C -1.566619 -1.458198 -0.862211 0
M  V30 29 F -0.868014 -1.689463 -2.021139 0
M  V30 30 C -1.571393 -0.180726 -0.341866 0
M  V30 31 N -2.150231 3.001234 -0.470639 0
M  V30 32 C -1.625771 3.915337 -1.313075 0
M  V30 33 C -0.334439 4.300395 -1.073608 0
M  V30 34 Cl 0.386562 5.496991 -2.157894 0
M  V30 35 C 2.353204 1.453116 1.997502 0
M  V30 36 H 2.281356 -4.840742 3.466559 0
M  V30 37 H 2.091602 -5.116330 3.686431 0
M  V30 38 H 0.407979 -2.723811 4.544364 0
M  V30 39 H 1.146284 -0.369536 3.398937 0
M  V30 40 H 4.061797 -1.228367 1.139618 0
M  V30 41 H 5.271754 0.345770 -0.217015 0
M  V30 42 H 4.650752 2.685794 -0.200485 0
M  V30 43 H 2.200206 4.051891 2.211816 0
M  V30 44 H 3.642840 4.408712 1.130497 0
M  V30 45 H 2.119310 4.935430 -0.501181 0
M  V30 46 H -2.743998 1.737769 2.164840 0
M  V30 47 H -3.456907 -0.591482 2.370609 0
M  V30 48 H -0.382819 -4.508009 -0.215907 0
M  V30 49 H -1.773908 -5.694017 -0.092955 0
M  V30 50 H -0.287029 -6.146556 -2.109037 0
M  V30 51 H -0.549680 -4.485830 -2.638349 0
M  V30 52 H -4.109009 -5.308569 -3.089071 0
M  V30 53 H -3.754889 -5.955418 -1.479180 0
M  V30 54 H -3.164385 -3.145954 -2.563038 0
M  V30 55 H -4.275134 -3.605916 -1.237308 0
M  V30 56 H -1.024938 0.583487 -0.868677 0
M  V30 57 H -2.159871 4.348415 -2.146686 0
M  V30 58 H 1.537328 1.799580 2.615023 0
M  V30 END ATOM
M  V30 BEGIN BOND
M  V30 1 2 1 2
M  V30 2 1 2 3
M  V30 3 2 3 4
M  V30 4 1 3 5
M  V30 5 1 5 6
M  V30 6 2 6 7
M  V30 7 1 7 8
M  V30 8 2 8 9
M  V30 9 1 9 10
M  V30 10 1 10 11
M  V30 11 1 11 12
M  V30 12 1 12 13
M  V30 13 2 13 14
M  V30 14 1 14 15
M  V30 15 1 15 16
M  V30 16 1 16 17
M  V30 17 2 17 18
M  V30 18 1 18 19
M  V30 19 1 19 20
M  V30 20 2 19 21
M  V30 21 1 21 22
M  V30 22 1 22 23
M  V30 23 1 23 24
M  V30 24 1 24 25
M  V30 25 1 25 26
M  V30 26 1 26 27
M  V30 27 1 21 28
M  V30 28 1 28 29
M  V30 29 2 28 30
M  V30 30 2 15 31
M  V30 31 1 31 32
M  V30 32 2 32 33
M  V30 33 1 33 34
M  V30 34 2 10 35
M  V30 35 1 35 6
M  V30 36 1 33 13
M  V30 37 1 30 17
M  V30 38 1 27 22
M  V30 39 1 1 36
M  V30 40 1 1 37
M  V30 41 1 2 38
M  V30 42 1 5 39
M  V30 43 1 7 40
M  V30 44 1 8 41
M  V30 45 1 9 42
M  V30 46 1 11 43
M  V30 47 1 11 44
M  V30 48 1 12 45
M  V30 49 1 16 46
M  V30 50 1 18 47
M  V30 51 1 23 48
M  V30 52 1 23 49
M  V30 53 1 24 50
M  V30 54 1 24 51
M  V30 55 1 26 52
M  V30 56 1 26 53
M  V30 57 1 27 54
M  V30 58 1 27 55
M  V30 59 1 30 56
M  V30 60 1 32 57
M  V30 61 1 35 58
M  V30 END BOND
M  V30 END CTAB
M  END
>  <Dataset>  (159) 
ChEMBL_Kinases

>  <Ligand_Instance>  (159) 
nan

>  <PDB_ID>  (159) 
nan

>  <Standardized_SMILES>  (159) 
C=CC(=O)Nc1cccc(CNc2nc(Nc3cc(F)c(N4CCOCC4)c(F)c3)ncc2Cl)c1

>  <Name>  (159) 
nan

>  <Pocket>  (159) 
nan

>  <ATP_Site>  (159) 
nan

>  <Peripheral>  (159) 
nan

>  <Num_H_Atoms_ProtBoundConf>  (159) 
nan

>  <Num_Resolved_Atoms>  (159) 
nan

>  <Num_Not_Resolved_Atoms>  (159) 
nan

$$$$
CHEMBL3598138
     RDKit          3D

  0  0  0  0  0  0  0  0  0  0999 V3000
M  V30 BEGIN CTAB
M  V30 COUNTS 57 61 0 0 0
M  V30 BEGIN ATOM
M  V30 1 O 1.756238 -0.392695 1.055943 0
M  V30 2 C 1.380958 0.102900 2.149685 0
M  V30 3 N 2.329487 0.399347 3.165999 0
M  V30 4 C 3.721802 0.141746 2.961728 0
M  V30 5 C 4.341232 1.245949 2.412059 0
M  V30 6 C 5.712177 1.199653 2.132378 0
M  V30 7 C 6.402923 0.017478 2.427285 0
M  V30 8 C 7.858313 -0.010380 2.120966 0
M  V30 9 F 8.084597 0.815982 1.010676 0
M  V30 10 F 8.233239 -1.281973 1.732617 0
M  V30 11 F 8.622486 0.505407 3.127470 0
M  V30 12 C 5.772867 -1.079056 2.976580 0
M  V30 13 C 4.418329 -1.015472 3.246115 0
M  V30 14 N -0.023683 0.369881 2.364662 0
M  V30 15 C -0.796755 0.007347 1.222068 0
M  V30 16 C -0.910471 1.099671 0.357512 0
M  V30 17 C -1.627784 0.967385 -0.834321 0
M  V30 18 C -2.199854 -0.250279 -1.108994 0
M  V30 19 C -2.094989 -1.326793 -0.269064 0
M  V30 20 C -1.385788 -1.191226 0.905600 0
M  V30 21 N -1.193375 -2.208783 1.871369 0
M  V30 22 C -1.680482 -2.032906 3.243448 0
M  V30 23 C -2.504724 -3.284080 3.437798 0
M  V30 24 C -1.666917 -4.323581 2.727470 0
M  V30 25 C -0.605779 -3.530644 1.983288 0
M  V30 26 C -2.887938 -0.164100 -2.389608 0
M  V30 27 C -3.611846 -1.012151 -3.094289 0
M  V30 28 C -4.264541 -0.867713 -4.364620 0
M  V30 29 C -5.567303 -1.180714 -4.688776 0
M  V30 30 C -5.822093 -0.944569 -6.003406 0
M  V30 31 C -4.648680 -0.465036 -6.543174 0
M  V30 32 N -3.743769 -0.434960 -5.531672 0
M  V30 33 C -2.690365 1.197690 -2.868797 0
M  V30 34 O -3.086113 1.749767 -3.909643 0
M  V30 35 N -1.911554 1.891933 -1.904222 0
M  V30 36 H 2.038625 0.814451 4.093174 0
M  V30 37 H 3.893477 2.195233 2.152867 0
M  V30 38 H 6.246211 2.050016 1.698391 0
M  V30 39 H 6.289731 -1.994220 3.207749 0
M  V30 40 H 3.817085 -1.806478 3.672765 0
M  V30 41 H -0.240416 0.780435 3.303920 0
M  V30 42 H -0.483675 2.102568 0.508489 0
M  V30 43 H -2.541893 -2.270243 -0.491051 0
M  V30 44 H -0.842997 -1.968365 3.969230 0
M  V30 45 H -2.337802 -1.172158 3.371988 0
M  V30 46 H -2.624582 -3.474425 4.521010 0
M  V30 47 H -3.512701 -3.161635 3.013025 0
M  V30 48 H -2.326905 -4.863263 2.011209 0
M  V30 49 H -1.256822 -4.993091 3.482928 0
M  V30 50 H -0.375996 -3.951234 0.988838 0
M  V30 51 H 0.318305 -3.477136 2.599457 0
M  V30 52 H -3.745068 -2.006314 -2.637014 0
M  V30 53 H -6.340667 -1.565577 -4.039925 0
M  V30 54 H -6.749994 -1.088514 -6.566180 0
M  V30 55 H -4.518222 -0.178828 -7.580529 0
M  V30 56 H -2.764153 -0.103685 -5.763402 0
M  V30 57 H -1.589368 2.903690 -1.947977 0
M  V30 END ATOM
M  V30 BEGIN BOND
M  V30 1 2 1 2
M  V30 2 1 2 3
M  V30 3 1 3 4
M  V30 4 2 4 5
M  V30 5 1 5 6
M  V30 6 2 6 7
M  V30 7 1 7 8
M  V30 8 1 8 9
M  V30 9 1 8 10
M  V30 10 1 8 11
M  V30 11 1 7 12
M  V30 12 2 12 13
M  V30 13 1 2 14
M  V30 14 1 14 15
M  V30 15 2 15 16
M  V30 16 1 16 17
M  V30 17 2 17 18
M  V30 18 1 18 19
M  V30 19 2 19 20
M  V30 20 1 20 21
M  V30 21 1 21 22
M  V30 22 1 22 23
M  V30 23 1 23 24
M  V30 24 1 24 25
M  V30 25 1 18 26
M  V30 26 2 26 27
M  V30 27 1 27 28
M  V30 28 2 28 29
M  V30 29 1 29 30
M  V30 30 2 30 31
M  V30 31 1 31 32
M  V30 32 1 26 33
M  V30 33 2 33 34
M  V30 34 1 33 35
M  V30 35 1 13 4
M  V30 36 1 20 15
M  V30 37 1 25 21
M  V30 38 1 32 28
M  V30 39 1 35 17
M  V30 40 1 3 36
M  V30 41 1 5 37
M  V30 42 1 6 38
M  V30 43 1 12 39
M  V30 44 1 13 40
M  V30 45 1 14 41
M  V30 46 1 16 42
M  V30 47 1 19 43
M  V30 48 1 22 44
M  V30 49 1 22 45
M  V30 50 1 23 46
M  V30 51 1 23 47
M  V30 52 1 24 48
M  V30 53 1 24 49
M  V30 54 1 25 50
M  V30 55 1 25 51
M  V30 56 1 27 52
M  V30 57 1 29 53
M  V30 58 1 30 54
M  V30 59 1 31 55
M  V30 60 1 32 56
M  V30 61 1 35 57
M  V30 END BOND
M  V30 END CTAB
M  END
>  <Dataset>  (160) 
ChEMBL_Kinases

>  <Ligand_Instance>  (160) 
nan

>  <PDB_ID>  (160) 
nan

>  <Standardized_SMILES>  (160) 
O=C(Nc1ccc(C(F)(F)F)cc1)Nc1cc2c(cc1N1CCCC1)/C(=C/c1ccc[nH]1)C(=O)N2

>  <Name>  (160) 
nan

>  <Pocket>  (160) 
nan

>  <ATP_Site>  (160) 
nan

>  <Peripheral>  (160) 
nan

>  <Num_H_Atoms_ProtBoundConf>  (160) 
nan

>  <Num_Resolved_Atoms>  (160) 
nan

>  <Num_Not_Resolved_Atoms>  (160) 
nan

$$$$
CHEMBL359864
     RDKit          3D

  0  0  0  0  0  0  0  0  0  0999 V3000
M  V30 BEGIN CTAB
M  V30 COUNTS 69 75 0 0 0
M  V30 BEGIN ATOM
M  V30 1 O 2.777268 0.849466 6.442117 0
M  V30 2 C 3.430219 -0.068536 5.638611 0
M  V30 3 N 4.628396 -0.643366 5.849622 0
M  V30 4 C 4.884849 -1.476987 4.816993 0
M  V30 5 C 6.002259 -2.260878 4.640593 0
M  V30 6 C 6.029996 -3.032531 3.498637 0
M  V30 7 C 4.979170 -2.994642 2.607017 0
M  V30 8 C 3.914327 -2.192253 2.858823 0
M  V30 9 C 3.789693 -1.371649 3.986927 0
M  V30 10 N 2.872825 -0.493116 4.490415 0
M  V30 11 C 1.686589 -0.297335 3.715768 0
M  V30 12 C 0.700168 0.524998 4.512894 0
M  V30 13 C -0.373436 1.115739 3.590218 0
M  V30 14 N 0.267647 2.097983 2.755032 0
M  V30 15 C -0.514596 2.571973 1.678623 0
M  V30 16 C -0.944490 1.563443 0.689169 0
M  V30 17 C -2.112786 0.838547 0.802175 0
M  V30 18 C -2.513219 -0.098848 -0.127182 0
M  V30 19 C -1.739906 -0.358006 -1.240446 0
M  V30 20 C -2.004816 -1.306757 -2.315522 0
M  V30 21 N -1.043625 -2.269821 -2.392097 0
M  V30 22 C -1.087159 -3.242288 -3.308663 0
M  V30 23 C -0.091390 -4.222393 -3.372674 0
M  V30 24 C -0.144415 -5.224574 -4.324613 0
M  V30 25 C -1.189667 -5.262045 -5.223493 0
M  V30 26 C -2.184701 -4.308487 -5.182882 0
M  V30 27 C -2.125551 -3.322310 -4.240410 0
M  V30 28 C -3.090803 -2.342794 -4.152217 0
M  V30 29 C -3.042559 -1.342662 -3.206715 0
M  V30 30 C -4.008809 -0.269962 -3.034402 0
M  V30 31 C -5.349013 -0.467630 -2.728605 0
M  V30 32 C -6.143933 0.648599 -2.595836 0
M  V30 33 C -5.666773 1.925513 -2.752311 0
M  V30 34 C -4.320618 2.125412 -3.059522 0
M  V30 35 C -3.513127 0.993857 -3.194450 0
M  V30 36 C -0.552417 0.340592 -1.409010 0
M  V30 37 C -0.190676 1.269844 -0.453596 0
M  V30 38 C 1.644577 1.837740 2.518864 0
M  V30 39 C 1.882033 0.373553 2.395237 0
M  V30 40 H 2.530244 0.696901 7.411875 0
M  V30 41 H 6.806945 -2.263539 5.363230 0
M  V30 42 H 6.878404 -3.672064 3.297777 0
M  V30 43 H 5.013125 -3.605030 1.714764 0
M  V30 44 H 3.098303 -2.183121 2.139875 0
M  V30 45 H 1.189942 -1.311848 3.573873 0
M  V30 46 H 1.156512 1.445186 4.966126 0
M  V30 47 H 0.215532 -0.023071 5.331625 0
M  V30 48 H -1.066804 1.660236 4.264425 0
M  V30 49 H -0.945279 0.348083 3.073785 0
M  V30 50 H 0.006818 3.376372 1.115415 0
M  V30 51 H -1.419124 3.064121 2.108492 0
M  V30 52 H -2.763436 0.994330 1.650550 0
M  V30 53 H -3.421715 -0.682052 -0.066617 0
M  V30 54 H 0.701738 -4.130767 -2.633388 0
M  V30 55 H 0.690288 -5.917027 -4.261529 0
M  V30 56 H -1.158094 -6.063196 -5.923351 0
M  V30 57 H -2.998863 -4.348582 -5.892930 0
M  V30 58 H -3.926615 -2.325084 -4.827684 0
M  V30 59 H -5.700862 -1.483427 -2.610421 0
M  V30 60 H -7.197971 0.495445 -2.355319 0
M  V30 61 H -6.340287 2.777219 -2.636128 0
M  V30 62 H -3.987641 3.128695 -3.173236 0
M  V30 63 H -2.493598 1.257051 -3.431375 0
M  V30 64 H 0.123731 0.214998 -2.240181 0
M  V30 65 H 0.736931 1.845412 -0.543401 0
M  V30 66 H 2.073432 2.418723 1.675784 0
M  V30 67 H 2.229384 2.197661 3.416111 0
M  V30 68 H 2.873053 0.185616 1.938889 0
M  V30 69 H 1.163216 -0.110405 1.684201 0
M  V30 END ATOM
M  V30 BEGIN BOND
M  V30 1 1 1 2
M  V30 2 2 2 3
M  V30 3 1 3 4
M  V30 4 2 4 5
M  V30 5 1 5 6
M  V30 6 2 6 7
M  V30 7 1 7 8
M  V30 8 2 8 9
M  V30 9 1 9 10
M  V30 10 1 10 11
M  V30 11 1 11 12
M  V30 12 1 12 13
M  V30 13 1 13 14
M  V30 14 1 14 15
M  V30 15 1 15 16
M  V30 16 2 16 17
M  V30 17 1 17 18
M  V30 18 2 18 19
M  V30 19 1 19 20
M  V30 20 2 20 21
M  V30 21 1 21 22
M  V30 22 2 22 23
M  V30 23 1 23 24
M  V30 24 2 24 25
M  V30 25 1 25 26
M  V30 26 2 26 27
M  V30 27 1 27 28
M  V30 28 2 28 29
M  V30 29 1 29 30
M  V30 30 2 30 31
M  V30 31 1 31 32
M  V30 32 2 32 33
M  V30 33 1 33 34
M  V30 34 2 34 35
M  V30 35 1 19 36
M  V30 36 2 36 37
M  V30 37 1 14 38
M  V30 38 1 38 39
M  V30 39 1 10 2
M  V30 40 1 39 11
M  V30 41 1 9 4
M  V30 42 1 37 16
M  V30 43 1 29 20
M  V30 44 1 35 30
M  V30 45 1 27 22
M  V30 46 1 1 40
M  V30 47 1 5 41
M  V30 48 1 6 42
M  V30 49 1 7 43
M  V30 50 1 8 44
M  V30 51 1 11 45
M  V30 52 1 12 46
M  V30 53 1 12 47
M  V30 54 1 13 48
M  V30 55 1 13 49
M  V30 56 1 15 50
M  V30 57 1 15 51
M  V30 58 1 17 52
M  V30 59 1 18 53
M  V30 60 1 23 54
M  V30 61 1 24 55
M  V30 62 1 25 56
M  V30 63 1 26 57
M  V30 64 1 28 58
M  V30 65 1 31 59
M  V30 66 1 32 60
M  V30 67 1 33 61
M  V30 68 1 34 62
M  V30 69 1 35 63
M  V30 70 1 36 64
M  V30 71 1 37 65
M  V30 72 1 38 66
M  V30 73 1 38 67
M  V30 74 1 39 68
M  V30 75 1 39 69
M  V30 END BOND
M  V30 END CTAB
M  END
>  <Dataset>  (161) 
ChEMBL_Kinases

>  <Ligand_Instance>  (161) 
nan

>  <PDB_ID>  (161) 
nan

>  <Standardized_SMILES>  (161) 
Oc1nc2ccccc2n1C1CCN(Cc2ccc(-c3nc4ccccc4cc3-c3ccccc3)cc2)CC1

>  <Name>  (161) 
nan

>  <Pocket>  (161) 
nan

>  <ATP_Site>  (161) 
nan

>  <Peripheral>  (161) 
nan

>  <Num_H_Atoms_ProtBoundConf>  (161) 
nan

>  <Num_Resolved_Atoms>  (161) 
nan

>  <Num_Not_Resolved_Atoms>  (161) 
nan

$$$$
CHEMBL359881
     RDKit          3D

  0  0  0  0  0  0  0  0  0  0999 V3000
M  V30 BEGIN CTAB
M  V30 COUNTS 43 46 0 0 0
M  V30 BEGIN ATOM
M  V30 1 C -1.940045 -7.782601 0.294015 0
M  V30 2 C -1.171119 -6.638054 -0.289387 0
M  V30 3 C -1.766989 -5.906366 -1.299395 0
M  V30 4 C -1.111209 -4.836828 -1.881316 0
M  V30 5 C 0.167341 -4.488259 -1.447151 0
M  V30 6 O 0.923205 -3.431148 -1.959207 0
M  V30 7 C 0.790277 -2.163684 -1.360001 0
M  V30 8 C -0.122127 -1.200894 -1.741573 0
M  V30 9 C -0.133107 0.014392 -1.046912 0
M  V30 10 C 0.758748 0.212052 -0.012390 0
M  V30 11 C 0.753796 1.477886 0.717781 0
M  V30 12 N 1.551420 1.817729 1.737821 0
M  V30 13 C 1.263797 3.066187 2.166333 0
M  V30 14 C 1.827883 3.812837 3.181735 0
M  V30 15 C 1.307278 5.075468 3.378135 0
M  V30 16 C 1.769777 6.008496 4.396897 0
M  V30 17 N 2.830926 5.545761 5.222232 0
M  V30 18 O 1.412607 7.166566 4.701232 0
M  V30 19 C 0.281469 5.531282 2.584916 0
M  V30 20 C -0.283911 4.789952 1.571263 0
M  V30 21 C 0.235268 3.525696 1.372447 0
M  V30 22 N -0.057996 2.525993 0.489319 0
M  V30 23 C 1.661227 -0.770639 0.347384 0
M  V30 24 C 1.691884 -1.983388 -0.325517 0
M  V30 25 C 0.775751 -5.218887 -0.430753 0
M  V30 26 C 0.100221 -6.295677 0.146149 0
M  V30 27 Cl 0.814881 -7.263813 1.439377 0
M  V30 28 H -2.062874 -8.582622 -0.465182 0
M  V30 29 H -2.925662 -7.439663 0.691882 0
M  V30 30 H -1.372215 -8.119218 1.188496 0
M  V30 31 H -2.749253 -6.116656 -1.684901 0
M  V30 32 H -1.515626 -4.236643 -2.660386 0
M  V30 33 H -0.775395 -1.456646 -2.563822 0
M  V30 34 H -0.855313 0.752081 -1.363130 0
M  V30 35 H 2.634349 3.484459 3.822769 0
M  V30 36 H 3.412197 4.719922 5.484028 0
M  V30 37 H 3.401474 6.068057 5.922372 0
M  V30 38 H -0.164970 6.531474 2.705383 0
M  V30 39 H -1.090225 5.133608 0.939269 0
M  V30 40 H -0.809877 2.618258 -0.232555 0
M  V30 41 H 2.355786 -0.576889 1.176173 0
M  V30 42 H 2.416935 -2.709524 0.000339 0
M  V30 43 H 1.744384 -5.039436 -0.025378 0
M  V30 END ATOM
M  V30 BEGIN BOND
M  V30 1 1 1 2
M  V30 2 2 2 3
M  V30 3 1 3 4
M  V30 4 2 4 5
M  V30 5 1 5 6
M  V30 6 1 6 7
M  V30 7 2 7 8
M  V30 8 1 8 9
M  V30 9 2 9 10
M  V30 10 1 10 11
M  V30 11 2 11 12
M  V30 12 1 12 13
M  V30 13 2 13 14
M  V30 14 1 14 15
M  V30 15 1 15 16
M  V30 16 1 16 17
M  V30 17 2 16 18
M  V30 18 2 15 19
M  V30 19 1 19 20
M  V30 20 2 20 21
M  V30 21 1 21 22
M  V30 22 1 10 23
M  V30 23 2 23 24
M  V30 24 1 5 25
M  V30 25 2 25 26
M  V30 26 1 26 27
M  V30 27 1 26 2
M  V30 28 1 24 7
M  V30 29 1 22 11
M  V30 30 1 21 13
M  V30 31 1 1 28
M  V30 32 1 1 29
M  V30 33 1 1 30
M  V30 34 1 3 31
M  V30 35 1 4 32
M  V30 36 1 8 33
M  V30 37 1 9 34
M  V30 38 1 14 35
M  V30 39 1 17 36
M  V30 40 1 17 37
M  V30 41 1 19 38
M  V30 42 1 20 39
M  V30 43 1 22 40
M  V30 44 1 23 41
M  V30 45 1 24 42
M  V30 46 1 25 43
M  V30 END BOND
M  V30 END CTAB
M  END
>  <Dataset>  (162) 
ChEMBL_Kinases

>  <Ligand_Instance>  (162) 
nan

>  <PDB_ID>  (162) 
nan

>  <Standardized_SMILES>  (162) 
Cc1ccc(Oc2ccc(-c3nc4cc(C(N)=O)ccc4[nH]3)cc2)cc1Cl

>  <Name>  (162) 
nan

>  <Pocket>  (162) 
nan

>  <ATP_Site>  (162) 
nan

>  <Peripheral>  (162) 
nan

>  <Num_H_Atoms_ProtBoundConf>  (162) 
nan

>  <Num_Resolved_Atoms>  (162) 
nan

>  <Num_Not_Resolved_Atoms>  (162) 
nan

$$$$
CHEMBL359898
     RDKit          3D

  0  0  0  0  0  0  0  0  0  0999 V3000
M  V30 BEGIN CTAB
M  V30 COUNTS 47 50 0 0 0
M  V30 BEGIN ATOM
M  V30 1 C 0.979486 -3.264742 4.185749 0
M  V30 2 C 1.207869 -4.238889 3.102429 0
M  V30 3 C 1.716310 -5.497678 3.431301 0
M  V30 4 C 1.963935 -6.476276 2.490457 0
M  V30 5 C 1.684404 -6.158166 1.183293 0
M  V30 6 C 1.182587 -4.927970 0.821976 0
M  V30 7 C 0.874892 -4.566106 -0.581582 0
M  V30 8 C 0.936016 -3.946134 1.781110 0
M  V30 9 C 0.403786 -2.635551 1.415429 0
M  V30 10 C 1.223103 -1.569457 1.096565 0
M  V30 11 C 0.574511 -0.395868 0.772053 0
M  V30 12 C 1.327515 0.709097 0.443211 0
M  V30 13 N 0.687777 1.843271 0.129821 0
M  V30 14 C -0.638981 2.014330 0.103583 0
M  V30 15 N -1.341828 3.197602 -0.222746 0
M  V30 16 C -0.789371 4.447700 -0.589563 0
M  V30 17 C 0.544525 4.754354 -0.699920 0
M  V30 18 C 1.063163 5.976137 -1.058059 0
M  V30 19 C 0.190514 7.000588 -1.336120 0
M  V30 20 C -1.159812 6.755310 -1.243031 0
M  V30 21 C -1.616560 5.510455 -0.879348 0
M  V30 22 N -1.332730 0.912960 0.430384 0
M  V30 23 C -0.796765 -0.268862 0.759173 0
M  V30 24 N -1.560659 -1.327852 1.075058 0
M  V30 25 C -2.999396 -1.145462 1.047490 0
M  V30 26 C -0.977229 -2.512756 1.403920 0
M  V30 27 O -1.731433 -3.471205 1.690888 0
M  V30 28 H 1.751784 -3.323436 4.985259 0
M  V30 29 H 1.037182 -2.231836 3.791696 0
M  V30 30 H 0.014270 -3.455908 4.707552 0
M  V30 31 H 1.937368 -5.745398 4.476608 0
M  V30 32 H 2.360916 -7.438544 2.809200 0
M  V30 33 H 1.861810 -6.895945 0.398740 0
M  V30 34 H 1.668013 -3.960724 -1.053193 0
M  V30 35 H 0.770860 -5.476715 -1.232148 0
M  V30 36 H -0.131646 -4.075131 -0.661123 0
M  V30 37 H 2.301984 -1.686217 1.111512 0
M  V30 38 H 2.406222 0.684749 0.431734 0
M  V30 39 H -2.391745 3.152035 -0.191834 0
M  V30 40 H 1.276654 3.997582 -0.496005 0
M  V30 41 H 2.124437 6.151542 -1.126254 0
M  V30 42 H 0.584853 7.966021 -1.618851 0
M  V30 43 H -1.826379 7.572282 -1.465274 0
M  V30 44 H -2.702567 5.417213 -0.834225 0
M  V30 45 H -3.471461 -2.100543 1.387695 0
M  V30 46 H -3.376307 -0.791854 0.069675 0
M  V30 47 H -3.221793 -0.422272 1.877312 0
M  V30 END ATOM
M  V30 BEGIN BOND
M  V30 1 1 1 2
M  V30 2 2 2 3
M  V30 3 1 3 4
M  V30 4 2 4 5
M  V30 5 1 5 6
M  V30 6 1 6 7
M  V30 7 2 6 8
M  V30 8 1 8 9
M  V30 9 2 9 10
M  V30 10 1 10 11
M  V30 11 2 11 12
M  V30 12 1 12 13
M  V30 13 2 13 14
M  V30 14 1 14 15
M  V30 15 1 15 16
M  V30 16 2 16 17
M  V30 17 1 17 18
M  V30 18 2 18 19
M  V30 19 1 19 20
M  V30 20 2 20 21
M  V30 21 1 14 22
M  V30 22 2 22 23
M  V30 23 1 23 24
M  V30 24 1 24 25
M  V30 25 1 24 26
M  V30 26 2 26 27
M  V30 27 1 8 2
M  V30 28 1 26 9
M  V30 29 1 23 11
M  V30 30 1 21 16
M  V30 31 1 1 28
M  V30 32 1 1 29
M  V30 33 1 1 30
M  V30 34 1 3 31
M  V30 35 1 4 32
M  V30 36 1 5 33
M  V30 37 1 7 34
M  V30 38 1 7 35
M  V30 39 1 7 36
M  V30 40 1 10 37
M  V30 41 1 12 38
M  V30 42 1 15 39
M  V30 43 1 17 40
M  V30 44 1 18 41
M  V30 45 1 19 42
M  V30 46 1 20 43
M  V30 47 1 21 44
M  V30 48 1 25 45
M  V30 49 1 25 46
M  V30 50 1 25 47
M  V30 END BOND
M  V30 END CTAB
M  END
>  <Dataset>  (163) 
ChEMBL_Kinases

>  <Ligand_Instance>  (163) 
nan

>  <PDB_ID>  (163) 
nan

>  <Standardized_SMILES>  (163) 
Cc1cccc(C)c1-c1cc2cnc(Nc3ccccc3)nc2n(C)c1=O

>  <Name>  (163) 
nan

>  <Pocket>  (163) 
nan

>  <ATP_Site>  (163) 
nan

>  <Peripheral>  (163) 
nan

>  <Num_H_Atoms_ProtBoundConf>  (163) 
nan

>  <Num_Resolved_Atoms>  (163) 
nan

>  <Num_Not_Resolved_Atoms>  (163) 
nan

$$$$
CHEMBL360002
     RDKit          3D

  0  0  0  0  0  0  0  0  0  0999 V3000
M  V30 BEGIN CTAB
M  V30 COUNTS 26 29 0 0 0
M  V30 BEGIN ATOM
M  V30 1 O 0.623595 -2.056793 3.895996 0
M  V30 2 C 0.759521 -1.556985 2.769764 0
M  V30 3 C 1.988556 -1.483507 1.964579 0
M  V30 4 C 3.263981 -1.933188 2.238432 0
M  V30 5 C 4.304268 -1.761635 1.326217 0
M  V30 6 C 3.950521 -1.119417 0.158629 0
M  V30 7 Cl 5.222427 -0.869061 -1.042339 0
M  V30 8 C 2.694766 -0.651302 -0.164517 0
M  V30 9 C 1.683188 -0.844709 0.778613 0
M  V30 10 N 0.303660 -0.490021 0.760220 0
M  V30 11 C -0.234365 -0.905894 1.922109 0
M  V30 12 N -1.563104 -0.673971 2.135806 0
M  V30 13 C -2.305230 -0.046529 1.204840 0
M  V30 14 N -3.597311 0.167436 1.437031 0
M  V30 15 C -4.345268 0.793727 0.511585 0
M  V30 16 C -3.815241 1.235326 -0.700343 0
M  V30 17 C -2.468134 1.032751 -0.985671 0
M  V30 18 C -1.769318 0.386201 0.008511 0
M  V30 19 C -0.411758 0.141034 -0.192496 0
M  V30 20 O 0.137859 0.508709 -1.258849 0
M  V30 21 H 3.455981 -2.428311 3.181305 0
M  V30 22 H 5.312978 -2.101290 1.509069 0
M  V30 23 H 2.519892 -0.156615 -1.115527 0
M  V30 24 H -5.391195 0.970389 0.692243 0
M  V30 25 H -4.485945 1.738888 -1.407768 0
M  V30 26 H -2.058366 1.367839 -1.909295 0
M  V30 END ATOM
M  V30 BEGIN BOND
M  V30 1 2 1 2
M  V30 2 1 2 3
M  V30 3 2 3 4
M  V30 4 1 4 5
M  V30 5 2 5 6
M  V30 6 1 6 7
M  V30 7 1 6 8
M  V30 8 2 8 9
M  V30 9 1 9 10
M  V30 10 1 10 11
M  V30 11 2 11 12
M  V30 12 1 12 13
M  V30 13 2 13 14
M  V30 14 1 14 15
M  V30 15 2 15 16
M  V30 16 1 16 17
M  V30 17 2 17 18
M  V30 18 1 18 19
M  V30 19 2 19 20
M  V30 20 1 11 2
M  V30 21 1 18 13
M  V30 22 1 9 3
M  V30 23 1 19 10
M  V30 24 1 4 21
M  V30 25 1 5 22
M  V30 26 1 8 23
M  V30 27 1 15 24
M  V30 28 1 16 25
M  V30 29 1 17 26
M  V30 END BOND
M  V30 END CTAB
M  END
>  <Dataset>  (164) 
ChEMBL_Kinases

>  <Ligand_Instance>  (164) 
nan

>  <PDB_ID>  (164) 
nan

>  <Standardized_SMILES>  (164) 
O=C1c2ccc(Cl)cc2-n2c1nc1ncccc1c2=O

>  <Name>  (164) 
nan

>  <Pocket>  (164) 
nan

>  <ATP_Site>  (164) 
nan

>  <Peripheral>  (164) 
nan

>  <Num_H_Atoms_ProtBoundConf>  (164) 
nan

>  <Num_Resolved_Atoms>  (164) 
nan

>  <Num_Not_Resolved_Atoms>  (164) 
nan

$$$$
CHEMBL360034
     RDKit          3D

  0  0  0  0  0  0  0  0  0  0999 V3000
M  V30 BEGIN CTAB
M  V30 COUNTS 36 39 0 0 0
M  V30 BEGIN ATOM
M  V30 1 C 0.410557 -3.721096 1.743801 0
M  V30 2 C 1.434543 -2.683741 1.441335 0
M  V30 3 C 2.566651 -2.510375 2.226231 0
M  V30 4 C 3.538425 -1.554744 1.972918 0
M  V30 5 C 3.376985 -0.727944 0.882689 0
M  V30 6 C 2.254499 -0.897948 0.102194 0
M  V30 7 C 1.857656 -0.142232 -1.109220 0
M  V30 8 N 2.611705 -0.115882 -2.189590 0
M  V30 9 C 2.439956 0.408869 -3.169176 0
M  V30 10 N 3.254212 0.472729 -4.415804 0
M  V30 11 S 0.764805 1.263707 -2.878307 0
M  V30 12 C 0.676424 0.588324 -1.199356 0
M  V30 13 C -0.315190 0.688510 -0.091368 0
M  V30 14 C 0.105811 1.271576 1.059066 0
M  V30 15 C -0.825852 1.363087 2.098311 0
M  V30 16 C -2.097604 0.858407 1.883187 0
M  V30 17 N -3.006958 0.940971 2.880998 0
M  V30 18 C -4.267448 0.482627 2.776612 0
M  V30 19 C -4.667165 -0.108805 1.584925 0
M  V30 20 C -3.779133 -0.225048 0.518234 0
M  V30 21 C -2.501623 0.269824 0.703016 0
M  V30 22 N -1.570118 0.199523 -0.280770 0
M  V30 23 N 1.324834 -1.848262 0.386205 0
M  V30 24 H -0.350365 -3.193935 2.379050 0
M  V30 25 H 0.908730 -4.524979 2.323091 0
M  V30 26 H -0.014746 -4.065563 0.792404 0
M  V30 27 H 2.683581 -3.162657 3.078276 0
M  V30 28 H 4.414035 -1.402674 2.559481 0
M  V30 29 H 4.021001 0.057010 0.541293 0
M  V30 30 H 3.147490 -0.240291 -5.197360 0
M  V30 31 H 3.951116 1.244024 -4.521399 0
M  V30 32 H 1.109881 1.656140 1.192479 0
M  V30 33 H -0.546843 1.815933 3.032706 0
M  V30 34 H -4.967874 0.572741 3.614592 0
M  V30 35 H -5.675738 -0.476277 1.497898 0
M  V30 36 H -4.052575 -0.678421 -0.423657 0
M  V30 END ATOM
M  V30 BEGIN BOND
M  V30 1 1 1 2
M  V30 2 2 2 3
M  V30 3 1 3 4
M  V30 4 2 4 5
M  V30 5 1 5 6
M  V30 6 1 6 7
M  V30 7 1 7 8
M  V30 8 2 8 9
M  V30 9 1 9 10
M  V30 10 1 9 11
M  V30 11 1 11 12
M  V30 12 1 12 13
M  V30 13 2 13 14
M  V30 14 1 14 15
M  V30 15 2 15 16
M  V30 16 1 16 17
M  V30 17 2 17 18
M  V30 18 1 18 19
M  V30 19 2 19 20
M  V30 20 1 20 21
M  V30 21 2 21 22
M  V30 22 2 6 23
M  V30 23 1 23 2
M  V30 24 2 12 7
M  V30 25 1 22 13
M  V30 26 1 21 16
M  V30 27 1 1 24
M  V30 28 1 1 25
M  V30 29 1 1 26
M  V30 30 1 3 27
M  V30 31 1 4 28
M  V30 32 1 5 29
M  V30 33 1 10 30
M  V30 34 1 10 31
M  V30 35 1 14 32
M  V30 36 1 15 33
M  V30 37 1 18 34
M  V30 38 1 19 35
M  V30 39 1 20 36
M  V30 END BOND
M  V30 END CTAB
M  END
>  <Dataset>  (165) 
ChEMBL_Kinases

>  <Ligand_Instance>  (165) 
nan

>  <PDB_ID>  (165) 
nan

>  <Standardized_SMILES>  (165) 
Cc1cccc(-c2nc(N)sc2-c2ccc3ncccc3n2)n1

>  <Name>  (165) 
nan

>  <Pocket>  (165) 
nan

>  <ATP_Site>  (165) 
nan

>  <Peripheral>  (165) 
nan

>  <Num_H_Atoms_ProtBoundConf>  (165) 
nan

>  <Num_Resolved_Atoms>  (165) 
nan

>  <Num_Not_Resolved_Atoms>  (165) 
nan

$$$$
CHEMBL3600653
     RDKit          3D

  0  0  0  0  0  0  0  0  0  0999 V3000
M  V30 BEGIN CTAB
M  V30 COUNTS 183 192 0 0 0
M  V30 BEGIN ATOM
M  V30 1 C -9.088910 0.777840 -0.478527 0
M  V30 2 N -7.649068 0.564048 -0.682067 0
M  V30 3 C -7.082325 0.733682 -2.004627 0
M  V30 4 C -6.811849 0.201013 0.411844 0
M  V30 5 C -5.442968 -0.044354 0.238113 0
M  V30 6 C -4.643897 -0.396543 1.335282 0
M  V30 7 C -5.303847 -0.471540 2.529762 0
M  V30 8 C -4.482251 -0.824306 3.586376 0
M  V30 9 C -3.048678 -1.101616 3.636376 0
M  V30 10 C -2.390686 -2.317357 3.466943 0
M  V30 11 C -1.013575 -2.390787 3.580245 0
M  V30 12 C -0.240546 -1.285115 3.861427 0
M  V30 13 C 1.206537 -1.403766 3.965920 0
M  V30 14 O 1.797675 -2.458957 3.570015 0
M  V30 15 N 2.053004 -0.405699 4.494836 0
M  V30 16 C 3.473902 -0.409816 4.639228 0
M  V30 17 C 3.975850 0.892534 5.279284 0
M  V30 18 C 3.633015 2.084722 4.461642 0
M  V30 19 C 4.134683 3.368631 5.091320 0
M  V30 20 C 3.785919 4.562017 4.210756 0 CFG=2
M  V30 21 N 4.425940 4.360175 2.926447 0
M  V30 22 C 3.817122 4.104993 1.664570 0
M  V30 23 O 2.562562 4.043667 1.634418 0
M  V30 24 C 4.863075 3.952077 0.591238 0 CFG=2
M  V30 25 C 5.626473 5.230038 0.449673 0
M  V30 26 C 6.681178 5.268775 -0.553228 0
M  V30 27 C 6.340961 5.713214 -1.809423 0
M  V30 28 C 7.283022 5.799753 -2.840364 0
M  V30 29 C 8.596537 5.426337 -2.586820 0
M  V30 30 N 9.626423 5.480088 -3.569616 0
M  V30 31 N 9.431748 5.147334 -4.753491 0 CHG=1 VAL=4
M  V30 32 N 8.975462 4.852514 -5.856676 0 CHG=-1 VAL=2
M  V30 33 C 8.951310 4.977244 -1.325225 0
M  V30 34 C 8.004692 4.895005 -0.305999 0
M  V30 35 N 4.257977 3.601639 -0.667103 0
M  V30 36 C 4.077360 2.211308 -1.079306 0
M  V30 37 O 4.419118 1.274371 -0.353212 0
M  V30 38 C 3.460496 2.182790 -2.402319 0 CFG=2
M  V30 39 C 2.339759 3.138734 -2.659492 0
M  V30 40 C 1.930426 2.855745 -4.096817 0
M  V30 41 C 2.622647 3.604727 -5.039835 0
M  V30 42 C 2.434825 3.516175 -6.394803 0
M  V30 43 C 1.480733 2.608244 -6.839326 0
M  V30 44 N 1.197271 2.424445 -8.232787 0
M  V30 45 N 1.497228 1.381526 -8.832545 0 CHG=1 VAL=4
M  V30 46 N 1.654138 0.277973 -9.386260 0 CHG=-1 VAL=2
M  V30 47 C 0.784874 1.856184 -5.902019 0
M  V30 48 C 0.983612 1.955410 -4.537139 0
M  V30 49 N 3.007585 0.849826 -2.725790 0
M  V30 50 C 3.466453 -0.188220 -3.542655 0
M  V30 51 O 4.542004 -0.096997 -4.191264 0
M  V30 52 C 2.553813 -1.402541 -3.580504 0
M  V30 53 C 3.114303 -2.434137 -4.493326 0
M  V30 54 C 2.264796 -3.595925 -4.823662 0
M  V30 55 N 1.742675 -4.499900 -3.905582 0
M  V30 56 C 0.904286 -4.587275 -2.771442 0
M  V30 57 O 0.475292 -3.443476 -2.410862 0
M  V30 58 C 0.535230 -5.815777 -2.074569 0 CFG=2
M  V30 59 C 1.682459 -6.555896 -1.467397 0
M  V30 60 C 2.442678 -5.858274 -0.424992 0
M  V30 61 C 1.929573 -6.096334 0.864066 0
M  V30 62 C 2.549579 -5.523069 1.954502 0
M  V30 63 C 3.645225 -4.752728 1.649161 0
M  V30 64 C 4.177740 -4.497290 0.412081 0
M  V30 65 N 5.325202 -3.752753 0.083157 0
M  V30 66 C 6.324064 -3.165632 0.890510 0
M  V30 67 N 7.319433 -2.516525 0.589249 0
M  V30 68 C 8.154163 -2.056413 1.508943 0
M  V30 69 C 7.889415 -2.324190 2.907149 0
M  V30 70 S 6.299585 -3.313790 2.712888 0
M  V30 71 N 3.518212 -5.089746 -0.609454 0
M  V30 72 C -0.170403 -6.803294 -2.989736 0
M  V30 73 C -1.565190 -6.451545 -3.347247 0
M  V30 74 C -2.100227 -5.167312 -2.810936 0 CFG=1
M  V30 75 O -3.504125 -5.239627 -2.850799 0
M  V30 76 C -4.394330 -4.435289 -3.468403 0
M  V30 77 C -5.714031 -4.887500 -3.243389 0
M  V30 78 C -6.842159 -4.267863 -3.749006 0
M  V30 79 C -6.675628 -3.139038 -4.519677 0
M  V30 80 C -5.439369 -2.642399 -4.780660 0
M  V30 81 Cl -5.098986 -1.209948 -5.754657 0
M  V30 82 C -4.377563 -3.305731 -4.249160 0
M  V30 83 F -3.136662 -2.857842 -4.472070 0
M  V30 84 C -1.696795 -4.856921 -1.401185 0
M  V30 85 C -0.432289 -5.503747 -0.948266 0
M  V30 86 C 4.318188 5.785735 4.844350 0
M  V30 87 N 4.070416 6.462269 6.096683 0
M  V30 88 O 5.118231 6.128030 3.942926 0
M  V30 89 C -0.851610 -0.057840 4.035317 0
M  V30 90 C -2.228454 -0.003438 3.917838 0
M  V30 91 C -2.851342 1.319995 4.095744 0
M  V30 92 O -4.081120 1.567433 4.016910 0
M  V30 93 O -2.096183 2.451419 4.374990 0
M  V30 94 C -5.070869 -0.927648 4.849027 0
M  V30 95 C -4.375790 -1.269802 5.991991 0
M  V30 96 C -4.952473 -1.367650 7.235992 0
M  V30 97 C -6.289416 -1.128781 7.443412 0
M  V30 98 N -6.885495 -1.202143 8.580753 0 CHG=1 VAL=4
M  V30 99 C -6.021447 -1.574272 9.712373 0
M  V30 100 C -8.300736 -0.928580 8.701570 0
M  V30 101 C -7.047058 -0.777505 6.317037 0
M  V30 102 C -6.497150 -0.667645 5.033859 0
M  V30 103 O -7.186294 -0.342657 3.976784 0
M  V30 104 C -6.634517 -0.247635 2.787754 0
M  V30 105 C -7.390763 0.099115 1.668375 0
M  V30 106 H -9.239547 1.762242 0.004311 0
M  V30 107 H -9.515409 -0.023684 0.154987 0
M  V30 108 H -9.644306 0.793471 -1.424684 0
M  V30 109 H -6.429859 1.658310 -2.036946 0
M  V30 110 H -7.835461 0.900213 -2.773759 0
M  V30 111 H -6.387334 -0.088547 -2.277735 0
M  V30 112 H -5.008411 0.041579 -0.754961 0
M  V30 113 H -3.588580 -0.587110 1.215869 0
M  V30 114 H -3.064320 -3.135616 3.254024 0
M  V30 115 H -0.564191 -3.382034 3.435819 0
M  V30 116 H 1.561530 0.462942 4.830816 0
M  V30 117 H 3.880046 -0.340880 3.580550 0
M  V30 118 H 3.930527 -1.300901 5.054949 0
M  V30 119 H 3.641772 0.982019 6.323912 0
M  V30 120 H 5.097005 0.789405 5.249066 0
M  V30 121 H 2.523872 2.175135 4.311674 0
M  V30 122 H 4.050170 1.982791 3.447645 0
M  V30 123 H 5.217138 3.340136 5.244723 0
M  V30 124 H 3.649085 3.463361 6.078580 0
M  V30 125 H 2.699483 4.615105 4.184136 0
M  V30 126 H 5.474960 4.433763 3.100527 0
M  V30 127 H 5.528975 3.161600 0.973588 0
M  V30 128 H 6.081002 5.500354 1.442770 0
M  V30 129 H 4.890281 6.085286 0.274008 0
M  V30 130 H 5.393127 6.049717 -2.202079 0
M  V30 131 H 7.137224 6.130512 -3.856148 0
M  V30 132 H 9.987862 4.686845 -1.118748 0
M  V30 133 H 8.278285 4.553379 0.663345 0
M  V30 134 H 3.979400 4.452159 -1.198667 0
M  V30 135 H 4.235340 2.430167 -3.199755 0
M  V30 136 H 2.595332 4.201378 -2.580508 0
M  V30 137 H 1.440811 2.888798 -2.027754 0
M  V30 138 H 3.373699 4.319923 -4.744250 0
M  V30 139 H 2.987168 4.111514 -7.101688 0
M  V30 140 H 0.035970 1.138905 -6.192386 0
M  V30 141 H 0.489953 1.415962 -3.762308 0
M  V30 142 H 2.118111 0.728567 -2.149635 0
M  V30 143 H 2.502191 -1.756260 -2.511351 0
M  V30 144 H 1.560856 -1.094030 -3.924896 0
M  V30 145 H 3.525039 -1.944415 -5.434195 0
M  V30 146 H 4.079648 -2.784422 -3.996059 0
M  V30 147 H 2.853031 -4.193571 -5.608367 0
M  V30 148 H 1.406276 -3.216053 -5.527319 0
M  V30 149 H 2.062602 -5.517529 -4.074510 0
M  V30 150 H 1.289095 -7.520325 -1.062354 0
M  V30 151 H 2.398749 -6.879400 -2.291503 0
M  V30 152 H 1.057687 -6.720013 1.072830 0
M  V30 153 H 2.206043 -5.667819 2.966079 0
M  V30 154 H 4.120951 -4.304874 2.505320 0
M  V30 155 H 5.500585 -3.581131 -0.944999 0
M  V30 156 H 8.995289 -1.492893 1.063984 0
M  V30 157 H 8.767938 -1.820612 3.572448 0
M  V30 158 H -0.084794 -7.811661 -2.507187 0
M  V30 159 H 0.467582 -6.890351 -3.911562 0
M  V30 160 H -1.644633 -6.367902 -4.475837 0
M  V30 161 H -2.280496 -7.266394 -3.055935 0
M  V30 162 H -1.831630 -4.302297 -3.480906 0
M  V30 163 H -5.993872 -5.773023 -2.646574 0
M  V30 164 H -7.839813 -4.588809 -3.591239 0
M  V30 165 H -7.534588 -2.609980 -4.944347 0
M  V30 166 H -1.602214 -3.747892 -1.281001 0
M  V30 167 H -2.548171 -5.145556 -0.727106 0
M  V30 168 H -0.703960 -6.505257 -0.526325 0
M  V30 169 H 0.023784 -4.923589 -0.134398 0
M  V30 170 H 3.185473 5.984415 6.396405 0
M  V30 171 H 4.808234 7.166463 6.282419 0
M  V30 172 H -0.314050 0.853512 4.252741 0
M  V30 173 H -2.450865 3.398603 4.406125 0
M  V30 174 H -3.326086 -1.475265 5.920586 0
M  V30 175 H -4.335553 -1.642581 8.077546 0
M  V30 176 H -5.601939 -2.597612 9.560466 0
M  V30 177 H -6.546603 -1.596728 10.666850 0
M  V30 178 H -5.149592 -0.880761 9.764816 0
M  V30 179 H -8.577930 -1.023864 9.780220 0
M  V30 180 H -8.804852 -1.797778 8.195751 0
M  V30 181 H -8.593358 0.026144 8.252943 0
M  V30 182 H -8.108478 -0.559847 6.341921 0
M  V30 183 H -8.456254 0.281738 1.874126 0
M  V30 END ATOM
M  V30 BEGIN BOND
M  V30 1 1 1 2
M  V30 2 1 2 3
M  V30 3 1 2 4
M  V30 4 2 4 5
M  V30 5 1 5 6
M  V30 6 2 6 7
M  V30 7 1 7 8
M  V30 8 1 8 9
M  V30 9 2 9 10
M  V30 10 1 10 11
M  V30 11 2 11 12
M  V30 12 1 12 13
M  V30 13 2 13 14
M  V30 14 1 13 15
M  V30 15 1 15 16
M  V30 16 1 16 17
M  V30 17 1 17 18
M  V30 18 1 18 19
M  V30 19 1 19 20
M  V30 20 1 20 21
M  V30 21 1 21 22
M  V30 22 2 22 23
M  V30 23 1 22 24
M  V30 24 1 24 25
M  V30 25 1 25 26
M  V30 26 2 26 27
M  V30 27 1 27 28
M  V30 28 2 28 29
M  V30 29 1 29 30
M  V30 30 2 30 31
M  V30 31 2 31 32
M  V30 32 1 29 33
M  V30 33 2 33 34
M  V30 34 1 24 35
M  V30 35 1 35 36
M  V30 36 2 36 37
M  V30 37 1 36 38
M  V30 38 1 38 39
M  V30 39 1 39 40
M  V30 40 2 40 41
M  V30 41 1 41 42
M  V30 42 2 42 43
M  V30 43 1 43 44
M  V30 44 2 44 45
M  V30 45 2 45 46
M  V30 46 1 43 47
M  V30 47 2 47 48
M  V30 48 1 38 49
M  V30 49 1 49 50
M  V30 50 2 50 51
M  V30 51 1 50 52
M  V30 52 1 52 53
M  V30 53 1 53 54
M  V30 54 1 54 55
M  V30 55 1 55 56
M  V30 56 2 56 57
M  V30 57 1 56 58
M  V30 58 1 58 59 CFG=1
M  V30 59 1 59 60
M  V30 60 2 60 61
M  V30 61 1 61 62
M  V30 62 2 62 63
M  V30 63 1 63 64
M  V30 64 1 64 65
M  V30 65 1 65 66
M  V30 66 2 66 67
M  V30 67 1 67 68
M  V30 68 2 68 69
M  V30 69 1 69 70
M  V30 70 2 64 71
M  V30 71 1 58 72
M  V30 72 1 72 73
M  V30 73 1 73 74
M  V30 74 1 74 75
M  V30 75 1 75 76
M  V30 76 2 76 77
M  V30 77 1 77 78
M  V30 78 2 78 79
M  V30 79 1 79 80
M  V30 80 1 80 81
M  V30 81 2 80 82
M  V30 82 1 82 83
M  V30 83 1 74 84
M  V30 84 1 84 85
M  V30 85 1 20 86
M  V30 86 1 86 87
M  V30 87 2 86 88
M  V30 88 1 12 89
M  V30 89 2 89 90
M  V30 90 1 90 91
M  V30 91 2 91 92
M  V30 92 1 91 93
M  V30 93 2 8 94
M  V30 94 1 94 95
M  V30 95 2 95 96
M  V30 96 1 96 97
M  V30 97 2 97 98 CFG=2
M  V30 98 1 98 99
M  V30 99 1 98 100
M  V30 100 1 97 101
M  V30 101 2 101 102
M  V30 102 1 102 103
M  V30 103 1 103 104
M  V30 104 2 104 105
M  V30 105 1 105 4
M  V30 106 1 104 7
M  V30 107 1 90 9
M  V30 108 1 102 94
M  V30 109 1 34 26
M  V30 110 1 48 40
M  V30 111 1 85 58
M  V30 112 1 71 60
M  V30 113 1 82 76
M  V30 114 1 70 66
M  V30 115 1 1 106
M  V30 116 1 1 107
M  V30 117 1 1 108
M  V30 118 1 3 109
M  V30 119 1 3 110
M  V30 120 1 3 111
M  V30 121 1 5 112
M  V30 122 1 6 113
M  V30 123 1 10 114
M  V30 124 1 11 115
M  V30 125 1 15 116
M  V30 126 1 16 117
M  V30 127 1 16 118
M  V30 128 1 17 119
M  V30 129 1 17 120
M  V30 130 1 18 121
M  V30 131 1 18 122
M  V30 132 1 19 123
M  V30 133 1 19 124
M  V30 134 1 20 125 CFG=3
M  V30 135 1 21 126
M  V30 136 1 24 127 CFG=1
M  V30 137 1 25 128
M  V30 138 1 25 129
M  V30 139 1 27 130
M  V30 140 1 28 131
M  V30 141 1 33 132
M  V30 142 1 34 133
M  V30 143 1 35 134
M  V30 144 1 38 135 CFG=3
M  V30 145 1 39 136
M  V30 146 1 39 137
M  V30 147 1 41 138
M  V30 148 1 42 139
M  V30 149 1 47 140
M  V30 150 1 48 141
M  V30 151 1 49 142
M  V30 152 1 52 143
M  V30 153 1 52 144
M  V30 154 1 53 145
M  V30 155 1 53 146
M  V30 156 1 54 147
M  V30 157 1 54 148
M  V30 158 1 55 149
M  V30 159 1 59 150
M  V30 160 1 59 151
M  V30 161 1 61 152
M  V30 162 1 62 153
M  V30 163 1 63 154
M  V30 164 1 65 155
M  V30 165 1 68 156
M  V30 166 1 69 157
M  V30 167 1 72 158
M  V30 168 1 72 159
M  V30 169 1 73 160
M  V30 170 1 73 161
M  V30 171 1 74 162 CFG=3
M  V30 172 1 77 163
M  V30 173 1 78 164
M  V30 174 1 79 165
M  V30 175 1 84 166
M  V30 176 1 84 167
M  V30 177 1 85 168
M  V30 178 1 85 169
M  V30 179 1 87 170
M  V30 180 1 87 171
M  V30 181 1 89 172
M  V30 182 1 93 173
M  V30 183 1 95 174
M  V30 184 1 96 175
M  V30 185 1 99 176
M  V30 186 1 99 177
M  V30 187 1 99 178
M  V30 188 1 100 179
M  V30 189 1 100 180
M  V30 190 1 100 181
M  V30 191 1 101 182
M  V30 192 1 105 183
M  V30 END BOND
M  V30 END CTAB
M  END
>  <Dataset>  (166) 
ChEMBL_Kinases

>  <Ligand_Instance>  (166) 
nan

>  <PDB_ID>  (166) 
nan

>  <Standardized_SMILES>  (166) 
CN(C)c1ccc2c(-c3ccc(C(=O)NCCCC[C@H](NC(=O)[C@H](Cc4ccc(N=[N+]=[N-])cc4)NC(=O)[C@H](Cc4ccc(N=[N+]=[N-])cc4)NC(=O)CCCNC(=O)[C@]4(Cc5cccc(Nc6nccs6)n5)CC[C@@H](Oc5cccc(Cl)c5F)CC4)C(N)=O)cc3C(=O)O)c3ccc(=[N+](C)C)cc-3oc2c1

>  <Name>  (166) 
nan

>  <Pocket>  (166) 
nan

>  <ATP_Site>  (166) 
nan

>  <Peripheral>  (166) 
nan

>  <Num_H_Atoms_ProtBoundConf>  (166) 
nan

>  <Num_Resolved_Atoms>  (166) 
nan

>  <Num_Not_Resolved_Atoms>  (166) 
nan

$$$$
CHEMBL3600760
     RDKit          3D

  0  0  0  0  0  0  0  0  0  0999 V3000
M  V30 BEGIN CTAB
M  V30 COUNTS 172 180 0 0 0
M  V30 BEGIN ATOM
M  V30 1 C 8.051029 6.057050 -1.923905 0
M  V30 2 N 6.981099 5.655429 -1.028942 0
M  V30 3 C 7.432019 5.245372 0.308087 0
M  V30 4 C 5.562438 5.597910 -1.256250 0
M  V30 5 C 4.699321 5.183007 -0.240025 0
M  V30 6 C 3.354743 5.137738 -0.517465 0
M  V30 7 C 2.816275 5.477155 -1.741277 0
M  V30 8 C 1.448738 5.380896 -1.873719 0
M  V30 9 C 0.549523 4.924231 -0.822170 0
M  V30 10 C 0.181358 3.609560 -0.700661 0
M  V30 11 C -0.668799 3.038642 0.217574 0
M  V30 12 C -1.222448 3.904483 1.138761 0
M  V30 13 C -2.170097 3.392305 2.110757 0
M  V30 14 O -2.603584 4.153922 3.006453 0
M  V30 15 N -2.632598 2.045908 2.082120 0
M  V30 16 C -3.593032 1.429079 3.003873 0
M  V30 17 C -4.918186 2.080512 3.044829 0
M  V30 18 C -5.917290 1.565315 4.017798 0
M  V30 19 O -6.381507 0.328181 4.016250 0
M  V30 20 C -5.611857 -0.727643 4.303006 0
M  V30 21 C -6.396466 -2.065740 4.239900 0
M  V30 22 O -5.482344 -3.036737 4.537014 0
M  V30 23 C -5.934893 -4.343975 4.564778 0
M  V30 24 C -4.706026 -5.209954 4.907641 0
M  V30 25 O -5.004963 -6.538439 4.989976 0
M  V30 26 C -3.963502 -7.343136 5.346498 0
M  V30 27 C -2.858838 -7.403343 4.323934 0
M  V30 28 C -1.692111 -8.232790 4.887967 0
M  V30 29 N -1.186062 -7.488421 6.063688 0
M  V30 30 C -0.606721 -6.265721 5.635527 0
M  V30 31 O -0.482465 -5.865737 4.403180 0
M  V30 32 C 0.049186 -4.934975 5.654032 0 CFG=1
M  V30 33 C 1.117883 -4.837255 6.665370 0
M  V30 34 C 2.219124 -5.822062 6.489732 0
M  V30 35 C 2.157182 -7.071575 7.127290 0
M  V30 36 C 3.166646 -7.987177 6.973204 0
M  V30 37 C 4.283503 -7.702525 6.179246 0
M  V30 38 N 5.305267 -8.705426 6.059884 0
M  V30 39 N 5.996897 -8.838405 5.080135 0 CHG=1 VAL=4
M  V30 40 N 6.755730 -8.865359 4.107855 0 CHG=-1 VAL=2
M  V30 41 C 4.319009 -6.470924 5.566950 0
M  V30 42 C 3.311117 -5.533349 5.708885 0
M  V30 43 N 0.384049 -4.449582 4.370603 0
M  V30 44 C -0.313496 -3.888532 3.321353 0
M  V30 45 O -1.584541 -3.756185 3.436474 0
M  V30 46 C -0.305701 -3.301376 1.974638 0
M  V30 47 C -1.619727 -3.628661 1.312772 0
M  V30 48 N -1.779904 -3.117754 -0.021544 0
M  V30 49 C -0.845183 -3.481942 -1.049393 0
M  V30 50 O 0.062772 -4.286095 -0.659608 0
M  V30 51 C -0.860957 -3.000695 -2.490892 0 CFG=2
M  V30 52 C -2.283187 -3.263337 -2.984843 0
M  V30 53 C -2.487167 -2.835095 -4.386667 0
M  V30 54 C -2.305662 -3.566571 -5.533002 0
M  V30 55 C -2.506621 -3.076885 -6.804795 0
M  V30 56 C -2.919655 -1.768004 -6.988497 0
M  V30 57 C -3.087891 -1.081015 -5.778634 0
M  V30 58 N -3.531513 0.275969 -5.938010 0
M  V30 59 C -3.842176 1.120319 -4.766693 0
M  V30 60 N -4.888564 1.051161 -4.362711 0
M  V30 61 C -5.461771 1.680469 -3.341294 0
M  V30 62 C -4.595421 2.572593 -2.675269 0
M  V30 63 S -3.010237 2.386844 -3.632961 0
M  V30 64 N -2.895244 -1.544354 -4.538339 0
M  V30 65 C 0.078013 -3.964087 -3.195576 0
M  V30 66 C 0.953702 -3.298462 -4.200248 0
M  V30 67 C 1.734997 -2.188233 -3.445013 0 CFG=1
M  V30 68 O 2.835188 -1.821854 -4.210753 0
M  V30 69 C 4.124466 -2.060393 -3.821784 0
M  V30 70 C 4.512919 -2.712564 -2.624559 0
M  V30 71 C 5.873389 -2.762559 -2.581580 0
M  V30 72 C 6.918489 -2.379735 -3.329796 0
M  V30 73 C 6.436004 -1.746297 -4.491354 0
M  V30 74 Cl 7.611857 -1.130731 -5.660448 0
M  V30 75 C 5.069796 -1.597605 -4.718592 0
M  V30 76 F 4.719556 -0.960789 -5.891354 0
M  V30 77 C 0.718490 -1.111308 -3.227801 0
M  V30 78 C -0.470114 -1.582502 -2.505250 0
M  V30 79 C -0.888473 5.235196 1.068517 0
M  V30 80 C -0.022872 5.790640 0.126358 0
M  V30 81 C 0.304979 7.193990 0.093833 0
M  V30 82 O -0.129428 8.107984 0.872058 0
M  V30 83 O 1.169254 7.678224 -0.844407 0
M  V30 84 C 0.876627 5.711175 -3.085366 0
M  V30 85 C -0.491579 5.616115 -3.226087 0
M  V30 86 C -0.981147 5.967746 -4.484367 0
M  V30 87 C -0.121103 6.382670 -5.506844 0
M  V30 88 N -0.693799 6.681214 -6.621048 0 CHG=1 VAL=4
M  V30 89 C -2.138869 6.563584 -6.712756 0
M  V30 90 C 0.025376 7.126861 -7.798323 0
M  V30 91 C 1.252359 6.470377 -5.340420 0
M  V30 92 C 1.822167 6.134945 -4.107785 0
M  V30 93 O 3.116317 6.200693 -3.902267 0
M  V30 94 C 3.681219 5.892058 -2.761934 0
M  V30 95 C 5.031959 5.941279 -2.492700 0
M  V30 96 H 7.662913 6.435510 -2.872376 0
M  V30 97 H 8.717162 5.162135 -2.031167 0
M  V30 98 H 8.637607 6.815081 -1.359201 0
M  V30 99 H 6.911470 5.926227 1.034151 0
M  V30 100 H 8.503211 5.417038 0.479848 0
M  V30 101 H 7.070540 4.219890 0.539824 0
M  V30 102 H 5.128096 4.916001 0.734867 0
M  V30 103 H 2.765556 4.805037 0.327919 0
M  V30 104 H 0.651245 2.959448 -1.463723 0
M  V30 105 H -0.809675 1.981295 0.123434 0
M  V30 106 H -2.214639 1.487734 1.306474 0
M  V30 107 H -3.191195 1.179938 3.971746 0
M  V30 108 H -3.781014 0.432774 2.462730 0
M  V30 109 H -5.445649 1.997754 2.028625 0
M  V30 110 H -4.856177 3.195278 3.164948 0
M  V30 111 H -6.772987 2.334408 3.966602 0
M  V30 112 H -5.440113 1.739669 5.058814 0
M  V30 113 H -5.318392 -0.634196 5.414745 0
M  V30 114 H -4.656906 -0.904046 3.807789 0
M  V30 115 H -7.099585 -1.997421 5.107301 0
M  V30 116 H -6.900042 -2.197423 3.286301 0
M  V30 117 H -6.718806 -4.557457 5.311771 0
M  V30 118 H -6.304027 -4.585455 3.545692 0
M  V30 119 H -4.343382 -4.804933 5.891667 0
M  V30 120 H -3.892076 -4.976657 4.159197 0
M  V30 121 H -3.611767 -7.177962 6.388406 0
M  V30 122 H -4.374915 -8.406499 5.377950 0
M  V30 123 H -2.546869 -6.407978 4.052608 0
M  V30 124 H -3.285146 -7.947913 3.442092 0
M  V30 125 H -2.084416 -9.164462 5.275648 0
M  V30 126 H -0.905993 -8.423258 4.149715 0
M  V30 127 H -0.970174 -7.273523 7.053907 0
M  V30 128 H -0.818402 -4.252748 6.011030 0
M  V30 129 H 1.625152 -3.823549 6.651967 0
M  V30 130 H 0.731614 -4.926498 7.693996 0
M  V30 131 H 1.294961 -7.253343 7.724360 0
M  V30 132 H 3.072355 -8.940796 7.487606 0
M  V30 133 H 5.229051 -6.354110 4.976559 0
M  V30 134 H 3.428455 -4.588923 5.184644 0
M  V30 135 H 1.369676 -4.439191 3.956332 0
M  V30 136 H -0.256706 -2.175352 2.056041 0
M  V30 137 H 0.587022 -3.583810 1.401565 0
M  V30 138 H -2.502351 -3.345408 1.945237 0
M  V30 139 H -1.711589 -4.764455 1.274086 0
M  V30 140 H -2.517339 -2.473372 -0.408225 0
M  V30 141 H -3.043985 -2.761137 -2.359696 0
M  V30 142 H -2.477344 -4.360598 -2.820216 0
M  V30 143 H -1.994726 -4.592111 -5.425334 0
M  V30 144 H -2.358095 -3.674271 -7.679285 0
M  V30 145 H -3.107246 -1.262172 -7.921913 0
M  V30 146 H -3.662482 0.751246 -6.857433 0
M  V30 147 H -6.507355 1.573482 -2.987994 0
M  V30 148 H -4.931999 3.160614 -1.806638 0
M  V30 149 H -0.495434 -4.769461 -3.671075 0
M  V30 150 H 0.727979 -4.486416 -2.449484 0
M  V30 151 H 1.675275 -4.025666 -4.562310 0
M  V30 152 H 0.429970 -2.843928 -5.037101 0
M  V30 153 H 1.967713 -2.607776 -2.448806 0
M  V30 154 H 3.801854 -3.082119 -1.921630 0
M  V30 155 H 6.186099 -3.272918 -1.636550 0
M  V30 156 H 7.947321 -2.520005 -3.101351 0
M  V30 157 H 1.150362 -0.241479 -2.653508 0
M  V30 158 H 0.496685 -0.664030 -4.229789 0
M  V30 159 H -1.400829 -0.991072 -2.782742 0
M  V30 160 H -0.334692 -1.249880 -1.417424 0
M  V30 161 H -1.317185 5.934617 1.795530 0
M  V30 162 H 1.333392 8.622690 -1.114472 0
M  V30 163 H -1.137689 5.298253 -2.401557 0
M  V30 164 H -2.048742 5.883574 -4.570350 0
M  V30 165 H -2.682767 7.202617 -5.998894 0
M  V30 166 H -2.536622 6.820022 -7.708410 0
M  V30 167 H -2.475159 5.516257 -6.522530 0
M  V30 168 H -0.690895 7.369748 -8.630778 0
M  V30 169 H 0.576696 8.065969 -7.592875 0
M  V30 170 H 0.767070 6.373953 -8.142442 0
M  V30 171 H 1.884254 6.794613 -6.152613 0
M  V30 172 H 5.680295 6.263346 -3.285255 0
M  V30 END ATOM
M  V30 BEGIN BOND
M  V30 1 1 1 2
M  V30 2 1 2 3
M  V30 3 1 2 4
M  V30 4 2 4 5
M  V30 5 1 5 6
M  V30 6 2 6 7
M  V30 7 1 7 8
M  V30 8 1 8 9
M  V30 9 2 9 10
M  V30 10 1 10 11
M  V30 11 2 11 12
M  V30 12 1 12 13
M  V30 13 2 13 14
M  V30 14 1 13 15
M  V30 15 1 15 16
M  V30 16 1 16 17
M  V30 17 1 17 18
M  V30 18 1 18 19
M  V30 19 1 19 20
M  V30 20 1 20 21
M  V30 21 1 21 22
M  V30 22 1 22 23
M  V30 23 1 23 24
M  V30 24 1 24 25
M  V30 25 1 25 26
M  V30 26 1 26 27
M  V30 27 1 27 28
M  V30 28 1 28 29
M  V30 29 1 29 30
M  V30 30 2 30 31
M  V30 31 1 30 32
M  V30 32 1 32 33
M  V30 33 1 33 34
M  V30 34 2 34 35
M  V30 35 1 35 36
M  V30 36 2 36 37
M  V30 37 1 37 38
M  V30 38 2 38 39
M  V30 39 2 39 40
M  V30 40 1 37 41
M  V30 41 2 41 42
M  V30 42 1 32 43
M  V30 43 1 43 44
M  V30 44 2 44 45
M  V30 45 1 44 46
M  V30 46 1 46 47
M  V30 47 1 47 48
M  V30 48 1 48 49
M  V30 49 2 49 50
M  V30 50 1 49 51
M  V30 51 1 51 52 CFG=3
M  V30 52 1 52 53
M  V30 53 2 53 54
M  V30 54 1 54 55
M  V30 55 2 55 56
M  V30 56 1 56 57
M  V30 57 1 57 58
M  V30 58 1 58 59
M  V30 59 2 59 60
M  V30 60 1 60 61
M  V30 61 2 61 62
M  V30 62 1 62 63
M  V30 63 2 57 64
M  V30 64 1 51 65
M  V30 65 1 65 66
M  V30 66 1 66 67
M  V30 67 1 67 68
M  V30 68 1 68 69
M  V30 69 2 69 70
M  V30 70 1 70 71
M  V30 71 2 71 72
M  V30 72 1 72 73
M  V30 73 1 73 74
M  V30 74 2 73 75
M  V30 75 1 75 76
M  V30 76 1 67 77
M  V30 77 1 77 78
M  V30 78 1 12 79
M  V30 79 2 79 80
M  V30 80 1 80 81
M  V30 81 2 81 82
M  V30 82 1 81 83
M  V30 83 2 8 84
M  V30 84 1 84 85
M  V30 85 2 85 86
M  V30 86 1 86 87
M  V30 87 2 87 88 CFG=2
M  V30 88 1 88 89
M  V30 89 1 88 90
M  V30 90 1 87 91
M  V30 91 2 91 92
M  V30 92 1 92 93
M  V30 93 1 93 94
M  V30 94 2 94 95
M  V30 95 1 95 4
M  V30 96 1 94 7
M  V30 97 1 80 9
M  V30 98 1 92 84
M  V30 99 1 42 34
M  V30 100 1 78 51
M  V30 101 1 64 53
M  V30 102 1 75 69
M  V30 103 1 63 59
M  V30 104 1 1 96
M  V30 105 1 1 97
M  V30 106 1 1 98
M  V30 107 1 3 99
M  V30 108 1 3 100
M  V30 109 1 3 101
M  V30 110 1 5 102
M  V30 111 1 6 103
M  V30 112 1 10 104
M  V30 113 1 11 105
M  V30 114 1 15 106
M  V30 115 1 16 107
M  V30 116 1 16 108
M  V30 117 1 17 109
M  V30 118 1 17 110
M  V30 119 1 18 111
M  V30 120 1 18 112
M  V30 121 1 20 113
M  V30 122 1 20 114
M  V30 123 1 21 115
M  V30 124 1 21 116
M  V30 125 1 23 117
M  V30 126 1 23 118
M  V30 127 1 24 119
M  V30 128 1 24 120
M  V30 129 1 26 121
M  V30 130 1 26 122
M  V30 131 1 27 123
M  V30 132 1 27 124
M  V30 133 1 28 125
M  V30 134 1 28 126
M  V30 135 1 29 127
M  V30 136 1 32 128 CFG=1
M  V30 137 1 33 129
M  V30 138 1 33 130
M  V30 139 1 35 131
M  V30 140 1 36 132
M  V30 141 1 41 133
M  V30 142 1 42 134
M  V30 143 1 43 135
M  V30 144 1 46 136
M  V30 145 1 46 137
M  V30 146 1 47 138
M  V30 147 1 47 139
M  V30 148 1 48 140
M  V30 149 1 52 141
M  V30 150 1 52 142
M  V30 151 1 54 143
M  V30 152 1 55 144
M  V30 153 1 56 145
M  V30 154 1 58 146
M  V30 155 1 61 147
M  V30 156 1 62 148
M  V30 157 1 65 149
M  V30 158 1 65 150
M  V30 159 1 66 151
M  V30 160 1 66 152
M  V30 161 1 67 153 CFG=1
M  V30 162 1 70 154
M  V30 163 1 71 155
M  V30 164 1 72 156
M  V30 165 1 77 157
M  V30 166 1 77 158
M  V30 167 1 78 159
M  V30 168 1 78 160
M  V30 169 1 79 161
M  V30 170 1 83 162
M  V30 171 1 85 163
M  V30 172 1 86 164
M  V30 173 1 89 165
M  V30 174 1 89 166
M  V30 175 1 89 167
M  V30 176 1 90 168
M  V30 177 1 90 169
M  V30 178 1 90 170
M  V30 179 1 91 171
M  V30 180 1 95 172
M  V30 END BOND
M  V30 END CTAB
M  END
>  <Dataset>  (167) 
ChEMBL_Kinases

>  <Ligand_Instance>  (167) 
nan

>  <PDB_ID>  (167) 
nan

>  <Standardized_SMILES>  (167) 
CN(C)c1ccc2c(-c3ccc(C(=O)NCCCOCCOCCOCCCNC(=O)[C@@H](Cc4ccc(N=[N+]=[N-])cc4)NC(=O)CCNC(=O)[C@]4(Cc5cccc(Nc6nccs6)n5)CC[C@@H](Oc5cccc(Cl)c5F)CC4)cc3C(=O)O)c3ccc(=[N+](C)C)cc-3oc2c1

>  <Name>  (167) 
nan

>  <Pocket>  (167) 
nan

>  <ATP_Site>  (167) 
nan

>  <Peripheral>  (167) 
nan

>  <Num_H_Atoms_ProtBoundConf>  (167) 
nan

>  <Num_Resolved_Atoms>  (167) 
nan

>  <Num_Not_Resolved_Atoms>  (167) 
nan

$$$$
CHEMBL3601231
     RDKit          3D

  0  0  0  0  0  0  0  0  0  0999 V3000
M  V30 BEGIN CTAB
M  V30 COUNTS 58 61 0 0 0
M  V30 BEGIN ATOM
M  V30 1 C 3.479927 -3.288272 3.439747 0
M  V30 2 C 2.363442 -2.546282 3.423401 0
M  V30 3 C 1.834501 -1.199369 3.297081 0
M  V30 4 O 0.636016 -0.903081 3.350248 0
M  V30 5 N 2.865068 -0.252865 3.103057 0
M  V30 6 C 3.069432 1.129528 2.921495 0
M  V30 7 C 3.376719 2.044882 3.914065 0
M  V30 8 C 3.545857 3.375275 3.639381 0
M  V30 9 C 3.408957 3.817578 2.354896 0
M  V30 10 C 3.102491 2.972463 1.311232 0
M  V30 11 C 2.974962 3.523352 -0.071764 0
M  V30 12 N 1.661091 4.079769 -0.289073 0
M  V30 13 C 0.353674 3.560368 -0.170325 0
M  V30 14 N 0.306982 2.284647 0.244988 0
M  V30 15 C -0.917628 1.692472 0.412176 0
M  V30 16 N -1.282704 0.390080 0.827998 0
M  V30 17 C -1.722714 -0.795316 0.180688 0
M  V30 18 C -1.950067 -0.827387 -1.176487 0
M  V30 19 C -2.399020 -2.043270 -1.712427 0
M  V30 20 C -2.580809 -3.114805 -0.852938 0
M  V30 21 N -3.055186 -4.336385 -1.402786 0
M  V30 22 C -3.741178 -4.467055 -2.687920 0
M  V30 23 C -2.884387 -5.286296 -3.582966 0
M  V30 24 O -2.451349 -6.474351 -3.086806 0
M  V30 25 C -2.336570 -6.657627 -1.773104 0
M  V30 26 C -2.949481 -5.670835 -0.831250 0
M  V30 27 C -2.345315 -3.054550 0.497449 0
M  V30 28 C -1.899613 -1.851318 1.041700 0
M  V30 29 N -2.006950 2.424122 0.149958 0
M  V30 30 C -2.001774 3.685210 -0.261308 0
M  V30 31 C -0.792297 4.308496 -0.438731 0
M  V30 32 Cl -0.590082 5.975242 -0.980069 0
M  V30 33 C 2.939371 1.633113 1.631812 0
M  V30 34 H 4.543455 -3.064974 3.346049 0
M  V30 35 H 4.546774 -3.185279 3.360080 0
M  V30 36 H 1.865341 -3.484295 3.566338 0
M  V30 37 H 3.895233 -0.479709 3.051798 0
M  V30 38 H 3.475776 1.644094 4.922932 0
M  V30 39 H 3.789601 4.015404 4.478520 0
M  V30 40 H 3.534979 4.874615 2.122869 0
M  V30 41 H 3.143537 2.695704 -0.805838 0
M  V30 42 H 3.754921 4.262735 -0.240368 0
M  V30 43 H 1.663608 5.093128 -0.609872 0
M  V30 44 H -1.127487 0.542714 1.825917 0
M  V30 45 H -1.787111 0.046613 -1.786304 0
M  V30 46 H -2.559262 -2.029427 -2.779589 0
M  V30 47 H -3.909493 -3.474024 -3.135263 0
M  V30 48 H -4.707482 -5.013923 -2.519794 0
M  V30 49 H -3.480130 -5.496354 -4.502629 0
M  V30 50 H -2.049276 -4.621615 -3.933266 0
M  V30 51 H -1.253077 -6.765639 -1.478192 0
M  V30 52 H -2.788023 -7.661293 -1.525792 0
M  V30 53 H -4.006409 -5.986232 -0.613192 0
M  V30 54 H -2.452757 -5.628792 0.136612 0
M  V30 55 H -2.490128 -3.887093 1.154439 0
M  V30 56 H -1.715053 -1.818142 2.103077 0
M  V30 57 H -2.849762 4.315954 -0.487605 0
M  V30 58 H 2.695467 0.940447 0.812919 0
M  V30 END ATOM
M  V30 BEGIN BOND
M  V30 1 2 1 2
M  V30 2 1 2 3
M  V30 3 2 3 4
M  V30 4 1 3 5
M  V30 5 1 5 6
M  V30 6 2 6 7
M  V30 7 1 7 8
M  V30 8 2 8 9
M  V30 9 1 9 10
M  V30 10 1 10 11
M  V30 11 1 11 12
M  V30 12 1 12 13
M  V30 13 2 13 14
M  V30 14 1 14 15
M  V30 15 1 15 16
M  V30 16 1 16 17
M  V30 17 2 17 18
M  V30 18 1 18 19
M  V30 19 2 19 20
M  V30 20 1 20 21
M  V30 21 1 21 22
M  V30 22 1 22 23
M  V30 23 1 23 24
M  V30 24 1 24 25
M  V30 25 1 25 26
M  V30 26 1 20 27
M  V30 27 2 27 28
M  V30 28 2 15 29
M  V30 29 1 29 30
M  V30 30 2 30 31
M  V30 31 1 31 32
M  V30 32 2 10 33
M  V30 33 1 33 6
M  V30 34 1 31 13
M  V30 35 1 28 17
M  V30 36 1 26 21
M  V30 37 1 1 34
M  V30 38 1 1 35
M  V30 39 1 2 36
M  V30 40 1 5 37
M  V30 41 1 7 38
M  V30 42 1 8 39
M  V30 43 1 9 40
M  V30 44 1 11 41
M  V30 45 1 11 42
M  V30 46 1 12 43
M  V30 47 1 16 44
M  V30 48 1 18 45
M  V30 49 1 19 46
M  V30 50 1 22 47
M  V30 51 1 22 48
M  V30 52 1 23 49
M  V30 53 1 23 50
M  V30 54 1 25 51
M  V30 55 1 25 52
M  V30 56 1 26 53
M  V30 57 1 26 54
M  V30 58 1 27 55
M  V30 59 1 28 56
M  V30 60 1 30 57
M  V30 61 1 33 58
M  V30 END BOND
M  V30 END CTAB
M  END
>  <Dataset>  (168) 
ChEMBL_Kinases

>  <Ligand_Instance>  (168) 
nan

>  <PDB_ID>  (168) 
nan

>  <Standardized_SMILES>  (168) 
C=CC(=O)Nc1cccc(CNc2nc(Nc3ccc(N4CCOCC4)cc3)ncc2Cl)c1

>  <Name>  (168) 
nan

>  <Pocket>  (168) 
nan

>  <ATP_Site>  (168) 
nan

>  <Peripheral>  (168) 
nan

>  <Num_H_Atoms_ProtBoundConf>  (168) 
nan

>  <Num_Resolved_Atoms>  (168) 
nan

>  <Num_Not_Resolved_Atoms>  (168) 
nan

$$$$
CHEMBL3600763
     RDKit          3D

  0  0  0  0  0  0  0  0  0  0999 V3000
M  V30 BEGIN CTAB
M  V30 COUNTS 365 376 0 0 0
M  V30 BEGIN ATOM
M  V30 1 C 2.638267 -6.506813 2.863801 0
M  V30 2 C 4.023265 -6.189372 2.232302 0
M  V30 3 N 3.776691 -5.275803 1.109089 0
M  V30 4 C 3.531797 -3.837803 1.069171 0
M  V30 5 C 3.373701 -3.068643 2.100009 0
M  V30 6 C 3.097511 -1.690026 2.079261 0
M  V30 7 C 3.013522 -0.760583 2.940275 0
M  V30 8 C 2.781559 0.548279 3.425490 0
M  V30 9 N 2.259117 1.619945 3.094349 0 CHG=1 VAL=4
M  V30 10 C 1.576713 2.136065 1.952037 0
M  V30 11 C 2.291831 3.477077 1.567880 0
M  V30 12 C 2.364523 2.542714 4.128609 0
M  V30 13 C 1.879453 3.824227 4.461460 0
M  V30 14 C 2.090207 4.364029 5.678947 0
M  V30 15 C 2.787203 3.770561 6.725027 0
M  V30 16 S 2.986287 4.652581 8.188190 0
M  V30 17 O 3.258926 6.099512 7.860422 0
M  V30 18 O 4.188873 4.087300 8.917895 0
M  V30 19 O 1.692381 4.541031 9.239321 0
M  V30 20 C 3.282568 2.515404 6.449985 0
M  V30 21 C 3.031894 2.027620 5.208839 0
M  V30 22 C 3.605350 0.818832 4.624292 0
M  V30 23 C 4.995822 1.216745 4.083683 0
M  V30 24 C 3.701405 -0.341559 5.527658 0
M  V30 25 C 3.865891 -3.510195 -0.276968 0
M  V30 26 C 3.570100 -2.204062 -0.873386 0
M  V30 27 C 5.223202 -3.992973 -0.657811 0
M  V30 28 C 6.458826 -3.645973 0.139983 0
M  V30 29 C 6.519765 -4.218903 1.502201 0
M  V30 30 C 7.810740 -4.074763 2.305186 0
M  V30 31 O 9.020189 -3.784415 2.658707 0
M  V30 32 N 7.477658 -4.717195 3.646730 0
M  V30 33 C 7.600607 -5.203660 5.017278 0
M  V30 34 C 6.380494 -5.863773 5.574770 0
M  V30 35 C 5.206263 -4.943527 5.705577 0
M  V30 36 C 3.909439 -5.664790 6.042486 0
M  V30 37 C 2.773172 -4.649472 6.105540 0 CFG=1
M  V30 38 N 1.479575 -5.361857 6.299200 0
M  V30 39 C 0.416533 -4.877562 5.382140 0
M  V30 40 O 0.735077 -3.923366 4.578989 0
M  V30 41 C -1.046503 -5.359776 5.272443 0 CFG=1
M  V30 42 C -1.609090 -4.805146 6.564903 0
M  V30 43 C -2.992949 -5.141182 6.930402 0
M  V30 44 C -3.094665 -4.648182 8.415552 0
M  V30 45 N -4.330726 -5.152913 8.915840 0
M  V30 46 C -5.694150 -4.854801 8.708119 0
M  V30 47 N -5.922452 -3.639948 8.629089 0
M  V30 48 N -6.515696 -6.026757 8.669584 0
M  V30 49 N -1.561877 -4.770484 4.078733 0
M  V30 50 C -2.476406 -5.004411 2.919729 0
M  V30 51 O -2.945969 -6.099576 3.276390 0
M  V30 52 C -2.327771 -3.817557 1.974794 0 CFG=1
M  V30 53 C -0.936488 -4.024597 1.408679 0
M  V30 54 C -0.335830 -2.949521 0.537548 0
M  V30 55 C -0.207978 -1.680116 1.384880 0
M  V30 56 N -1.416652 -1.021091 1.689208 0
M  V30 57 C -1.713986 -0.170548 2.764898 0
M  V30 58 N -0.720884 0.294533 3.438475 0
M  V30 59 N -3.087940 0.019240 2.933784 0
M  V30 60 N -3.300325 -3.734837 0.971018 0
M  V30 61 C -4.005652 -4.400083 -0.119663 0
M  V30 62 O -3.599057 -5.553963 -0.174261 0
M  V30 63 C -4.949443 -3.543677 -0.790600 0 CFG=1
M  V30 64 C -3.946097 -2.582256 -1.619449 0
M  V30 65 C -4.697883 -1.632706 -2.444979 0
M  V30 66 C -3.789997 -0.798629 -3.377518 0
M  V30 67 N -4.467521 -0.058159 -4.345675 0
M  V30 68 C -5.322570 1.057203 -4.775377 0
M  V30 69 N -4.964987 1.913379 -3.850198 0
M  V30 70 N -6.102273 0.759448 -5.973691 0
M  V30 71 N -5.927426 -3.929164 -1.698645 0
M  V30 72 C -5.913636 -4.251050 -3.114816 0
M  V30 73 O -4.810595 -4.332357 -3.718630 0
M  V30 74 C -7.326381 -4.438246 -3.762413 0 CFG=1
M  V30 75 C -7.844165 -5.702623 -3.201954 0
M  V30 76 C -6.980110 -6.869677 -3.639338 0
M  V30 77 C -7.179699 -7.285524 -5.057068 0
M  V30 78 N -6.984487 -6.428223 -6.133259 0
M  V30 79 C -5.781008 -5.836505 -6.770568 0
M  V30 80 N -5.251147 -6.961525 -6.983587 0
M  V30 81 N -5.599937 -4.478138 -6.997097 0
M  V30 82 N -8.135209 -3.270162 -3.584504 0
M  V30 83 C -8.350723 -2.121910 -2.839218 0
M  V30 84 O -7.757736 -1.725115 -1.852171 0
M  V30 85 C -8.927112 -0.889459 -2.425759 0 CFG=1
M  V30 86 C -10.403938 -0.902713 -2.202839 0
M  V30 87 C -11.154974 -1.205923 -3.464315 0
M  V30 88 C -10.730809 -0.242865 -4.583915 0
M  V30 89 N -10.881542 1.142012 -4.169497 0
M  V30 90 C -10.255298 2.034877 -5.111370 0
M  V30 91 N -9.992138 1.826559 -6.397551 0
M  V30 92 N -9.836157 3.324388 -4.565230 0
M  V30 93 N -8.270832 -0.239975 -1.268881 0
M  V30 94 C -7.680250 0.898298 -0.843964 0
M  V30 95 O -7.646149 1.790317 -1.899754 0
M  V30 96 C -7.031900 1.830099 0.019110 0 CFG=1
M  V30 97 C -7.208737 1.307564 1.430073 0
M  V30 98 C -6.686343 2.191292 2.517095 0
M  V30 99 C -7.079522 1.453786 3.821450 0
M  V30 100 N -6.677725 2.117562 5.036304 0
M  V30 101 C -6.668353 1.190364 6.103142 0
M  V30 102 N -5.922554 0.015879 6.120004 0
M  V30 103 N -7.459735 1.554070 7.376292 0
M  V30 104 N -5.776653 2.385091 -0.305139 0
M  V30 105 C -5.218530 3.602175 -0.921835 0
M  V30 106 O -6.399129 4.096000 -1.171143 0
M  V30 107 C -3.749302 3.690956 -0.950603 0 CFG=1
M  V30 108 C -3.439335 4.127013 0.557785 0
M  V30 109 C -3.851329 5.505985 0.692965 0
M  V30 110 C -2.512839 6.180984 0.753308 0
M  V30 111 C -2.685870 7.574238 0.751625 0
M  V30 112 C -3.731930 8.412719 0.708234 0
M  V30 113 C -3.540450 9.871262 0.533276 0
M  V30 114 O -4.336925 10.802146 0.624800 0
M  V30 115 C -2.121247 10.149437 0.156365 0
M  V30 116 C -0.835285 9.934271 0.543504 0
M  V30 117 C 0.329912 9.847636 -0.170917 0
M  V30 118 C 0.198643 10.005801 -1.504573 0
M  V30 119 C -1.079048 10.250168 -2.060061 0
M  V30 120 C -2.209161 10.326937 -1.276895 0
M  V30 121 C -4.989486 7.760664 0.667058 0
M  V30 122 C -4.744271 6.431117 0.668219 0
M  V30 123 N -2.867089 2.753191 -1.335271 0
M  V30 124 C -1.707074 3.257223 -2.157936 0
M  V30 125 O -1.673385 4.524618 -2.313751 0
M  V30 126 C -0.707567 2.316255 -2.697995 0 CFG=1
M  V30 127 C -1.338119 1.623447 -3.915015 0
M  V30 128 C -0.456992 0.677550 -4.532513 0
M  V30 129 C 0.111647 0.973182 -5.839978 0
M  V30 130 C 0.775286 -0.142576 -6.300284 0
M  V30 131 C 0.962405 -1.384716 -5.793512 0
M  V30 132 C 1.531458 -2.464405 -6.564345 0
M  V30 133 O 1.195371 -2.250954 -7.786184 0
M  V30 134 C 2.324302 -3.651606 -6.320201 0
M  V30 135 C 3.369888 -3.879797 -5.461919 0
M  V30 136 C 3.797317 -5.166737 -5.419441 0
M  V30 137 C 3.292335 -6.224428 -6.129223 0
M  V30 138 C 2.274910 -6.003400 -6.964983 0
M  V30 139 C 1.781127 -4.724620 -7.070744 0
M  V30 140 C 0.405481 -1.623625 -4.541402 0
M  V30 141 C -0.270321 -0.560418 -4.008183 0
M  V30 142 N 0.494716 2.808233 -3.239399 0
M  V30 143 C 1.470077 3.129869 -2.304006 0
M  V30 144 O 0.904207 2.960660 -1.150328 0
M  V30 145 C 2.794028 3.532709 -2.739468 0
M  V30 146 C 3.868883 3.850777 -1.772027 0
M  V30 147 C 5.092098 4.272878 -2.530145 0
M  V30 148 N 6.283317 4.435059 -1.755096 0
M  V30 149 C 6.483770 3.103816 -1.229716 0
M  V30 150 O 6.120449 1.932332 -1.095903 0
M  V30 151 C 7.759834 2.859115 -0.435657 0 CFG=2
M  V30 152 C 8.154570 1.391388 -0.831960 0
M  V30 153 C 8.400069 1.354558 -2.304996 0
M  V30 154 C 9.752631 1.300852 -2.750568 0
M  V30 155 C 9.678041 1.190358 -4.102519 0
M  V30 156 C 8.820437 1.116711 -5.134439 0
M  V30 157 C 7.531924 1.180335 -4.509862 0
M  V30 158 N 6.241766 1.133217 -5.126304 0
M  V30 159 C 5.711852 2.073262 -6.062979 0
M  V30 160 N 4.704244 2.193074 -6.702154 0
M  V30 161 C 4.515338 3.250102 -7.489169 0
M  V30 162 C 5.491945 4.286644 -7.632897 0
M  V30 163 S 6.852139 3.601879 -6.439129 0
M  V30 164 N 7.411719 1.287134 -3.205235 0
M  V30 165 C 7.565863 3.029441 0.986231 0
M  V30 166 C 8.473924 3.803953 1.881734 0
M  V30 167 C 9.556451 4.502091 1.034815 0 CFG=1
M  V30 168 O 10.491055 3.292317 0.806985 0
M  V30 169 C 11.673050 3.791104 0.128348 0
M  V30 170 C 12.157630 5.003612 -0.249367 0
M  V30 171 C 13.375135 5.133959 -0.934185 0
M  V30 172 C 13.830511 3.899717 -1.077759 0
M  V30 173 C 13.610397 2.590829 -0.837718 0
M  V30 174 Cl 14.481313 1.136229 -1.213171 0
M  V30 175 C 12.349230 2.562984 -0.145813 0
M  V30 176 F 11.885424 1.330044 0.241245 0
M  V30 177 C 8.958184 4.980321 -0.187612 0
M  V30 178 C 8.806947 3.739344 -1.100579 0
M  V30 179 C 3.006969 -3.863077 7.385905 0
M  V30 180 N 2.396363 -4.183335 8.624832 0
M  V30 181 O 3.805216 -2.854468 7.360670 0
M  V30 182 C 2.919005 -4.579826 -0.949816 0
M  V30 183 C 1.988577 -4.809826 -1.950045 0
M  V30 184 C 1.604938 -6.112671 -2.141891 0
M  V30 185 S 0.206825 -6.328026 -3.204398 0
M  V30 186 O -0.701566 -7.397410 -2.506202 0
M  V30 187 O 0.579923 -6.889460 -4.496087 0
M  V30 188 O -0.712656 -4.953335 -3.211336 0
M  V30 189 C 2.017439 -7.226647 -1.491673 0
M  V30 190 C 2.962596 -7.037398 -0.458239 0
M  V30 191 C 3.344402 -5.679048 -0.261537 0
M  V30 192 H 1.969600 -6.735650 1.994994 0
M  V30 193 H 2.341319 -5.614890 3.380697 0
M  V30 194 H 2.757863 -7.344840 3.554915 0
M  V30 195 H 4.434569 -7.114518 1.834400 0
M  V30 196 H 4.580182 -5.624832 2.950989 0
M  V30 197 H 3.458107 -3.545572 3.131215 0
M  V30 198 H 2.951608 -1.017033 1.206263 0
M  V30 199 H 3.309188 -1.391466 3.743351 0
M  V30 200 H 1.593528 1.473069 1.066754 0
M  V30 201 H 0.572023 2.400804 2.163935 0
M  V30 202 H 1.518433 4.218593 1.361804 0
M  V30 203 H 2.879035 3.264972 0.689236 0
M  V30 204 H 3.043069 3.748452 2.353047 0
M  V30 205 H 1.271025 4.373038 3.721740 0
M  V30 206 H 1.681016 5.326907 5.829996 0
M  V30 207 H 1.071615 5.283068 9.093189 0
M  V30 208 H 3.832004 2.026738 7.242009 0
M  V30 209 H 5.807239 0.829688 4.688362 0
M  V30 210 H 5.032525 2.330629 4.012920 0
M  V30 211 H 5.049051 0.819377 3.037661 0
M  V30 212 H 3.961894 -0.064699 6.593080 0
M  V30 213 H 2.753407 -0.898658 5.538478 0
M  V30 214 H 4.551627 -0.970192 5.118953 0
M  V30 215 H 2.501771 -1.896861 -0.784745 0
M  V30 216 H 3.644655 -2.358518 -2.040732 0
M  V30 217 H 4.307839 -1.440279 -0.695533 0
M  V30 218 H 5.278151 -5.122238 -0.824995 0
M  V30 219 H 5.405011 -3.616276 -1.725586 0
M  V30 220 H 7.317908 -3.919720 -0.475951 0
M  V30 221 H 6.504433 -2.512714 0.256461 0
M  V30 222 H 5.746254 -3.765264 2.149975 0
M  V30 223 H 6.384742 -5.312079 1.459876 0
M  V30 224 H 6.530342 -5.099179 3.729222 0
M  V30 225 H 8.024060 -4.439114 5.676419 0
M  V30 226 H 8.449937 -5.977281 4.973067 0
M  V30 227 H 6.665659 -6.122588 6.642263 0
M  V30 228 H 6.162078 -6.831657 5.118403 0
M  V30 229 H 5.427541 -4.201613 6.525788 0
M  V30 230 H 5.073865 -4.329348 4.824372 0
M  V30 231 H 3.685453 -6.575059 5.522598 0
M  V30 232 H 4.066321 -5.979427 7.136869 0
M  V30 233 H 2.750760 -4.006095 5.287164 0
M  V30 234 H 0.952433 -6.082594 6.827931 0
M  V30 235 H -1.142833 -6.439361 5.286713 0
M  V30 236 H -1.462890 -3.684451 6.451233 0
M  V30 237 H -0.912135 -5.068647 7.415410 0
M  V30 238 H -3.703157 -4.477041 6.393582 0
M  V30 239 H -3.263292 -6.178975 6.838588 0
M  V30 240 H -3.065164 -3.522799 8.425241 0
M  V30 241 H -2.198441 -4.989609 8.972928 0
M  V30 242 H -4.094180 -5.953275 9.598908 0
M  V30 243 H -5.227205 -2.873426 8.695785 0
M  V30 244 H -6.588600 -6.539452 7.724863 0
M  V30 245 H -7.057705 -6.424520 9.472714 0
M  V30 246 H -1.080901 -3.804035 4.139718 0
M  V30 247 H -2.328237 -2.936375 2.610338 0
M  V30 248 H -0.263072 -4.159379 2.261758 0
M  V30 249 H -0.910883 -4.992822 0.848839 0
M  V30 250 H 0.709523 -3.270718 0.284063 0
M  V30 251 H -0.822329 -2.745775 -0.403262 0
M  V30 252 H 0.316356 -1.920504 2.356937 0
M  V30 253 H 0.480243 -1.007878 0.857648 0
M  V30 254 H -2.090753 -1.256546 0.931518 0
M  V30 255 H -0.924127 0.951101 4.262417 0
M  V30 256 H -4.114424 0.181620 3.173358 0
M  V30 257 H -3.793737 -0.023794 2.111485 0
M  V30 258 H -3.730317 -2.799945 1.105414 0
M  V30 259 H -5.409322 -2.696805 -0.185885 0
M  V30 260 H -3.200712 -3.239772 -2.130329 0
M  V30 261 H -3.404009 -2.063171 -0.821485 0
M  V30 262 H -5.186590 -0.858459 -1.740105 0
M  V30 263 H -5.516068 -1.939573 -3.052012 0
M  V30 264 H -3.338562 -0.021536 -2.668892 0
M  V30 265 H -2.979750 -1.461021 -3.649743 0
M  V30 266 H -4.232626 -0.700171 -5.206764 0
M  V30 267 H -5.498437 2.851554 -3.964378 0
M  V30 268 H -5.728013 0.039522 -6.706159 0
M  V30 269 H -6.852503 1.534857 -5.669630 0
M  V30 270 H -6.862624 -4.084569 -1.270158 0
M  V30 271 H -7.037436 -4.459465 -4.799568 0
M  V30 272 H -8.003722 -5.676167 -2.109824 0
M  V30 273 H -8.853664 -5.897928 -3.680707 0
M  V30 274 H -5.876732 -6.524057 -3.635725 0
M  V30 275 H -6.987811 -7.744913 -2.966410 0
M  V30 276 H -6.355493 -8.104802 -5.199969 0
M  V30 277 H -8.107925 -7.925861 -5.142551 0
M  V30 278 H -7.923611 -6.077039 -6.543430 0
M  V30 279 H -4.696285 -7.634575 -7.233002 0
M  V30 280 H -6.427454 -4.410735 -7.674475 0
M  V30 281 H -5.025687 -3.629993 -6.753320 0
M  V30 282 H -8.898892 -3.083938 -4.271160 0
M  V30 283 H -8.809714 -0.088026 -3.262570 0
M  V30 284 H -10.770752 0.074333 -1.771284 0
M  V30 285 H -10.640912 -1.768681 -1.519427 0
M  V30 286 H -12.256678 -1.224349 -3.313333 0
M  V30 287 H -10.856840 -2.219282 -3.790068 0
M  V30 288 H -11.567085 -0.382554 -5.351209 0
M  V30 289 H -9.759943 -0.483948 -4.988936 0
M  V30 290 H -11.347088 1.531372 -3.322361 0
M  V30 291 H -9.510154 2.609261 -6.878652 0
M  V30 292 H -10.820070 3.742875 -4.508427 0
M  V30 293 H -9.443316 4.200376 -4.182828 0
M  V30 294 H -8.128323 -0.808219 -0.372556 0
M  V30 295 H -7.786152 2.744014 0.050256 0
M  V30 296 H -6.675648 0.307480 1.493658 0
M  V30 297 H -8.269045 1.103641 1.593701 0
M  V30 298 H -7.133090 3.227748 2.504427 0
M  V30 299 H -5.584386 2.196356 2.522590 0
M  V30 300 H -6.910588 0.379042 3.780286 0
M  V30 301 H -8.266202 1.531047 3.751212 0
M  V30 302 H -6.410284 3.076040 5.288731 0
M  V30 303 H -6.205569 -0.451184 7.148855 0
M  V30 304 H -6.369694 1.604660 7.635642 0
M  V30 305 H -6.915949 1.789759 8.372557 0
M  V30 306 H -5.141251 1.581819 0.072364 0
M  V30 307 H -3.562042 4.666686 -1.513255 0
M  V30 308 H -2.452509 3.862970 0.844931 0
M  V30 309 H -4.131720 3.539502 1.226751 0
M  V30 310 H -1.531586 5.755303 0.792032 0
M  V30 311 H -1.658524 7.969041 0.816136 0
M  V30 312 H -0.943313 9.882903 1.661272 0
M  V30 313 H 1.139814 9.653776 0.527775 0
M  V30 314 H 1.144207 9.903585 -2.008599 0
M  V30 315 H -0.987812 10.333195 -3.134517 0
M  V30 316 H -3.092766 10.491554 -1.907472 0
M  V30 317 H -5.851859 8.326731 0.608784 0
M  V30 318 H -5.703810 5.860883 0.611400 0
M  V30 319 H -2.928899 1.726114 -1.119865 0
M  V30 320 H -0.559688 1.564987 -1.914960 0
M  V30 321 H -1.314322 2.542085 -4.709199 0
M  V30 322 H -2.378241 1.510403 -3.834229 0
M  V30 323 H 0.047856 1.914000 -6.293053 0
M  V30 324 H 1.257642 0.044713 -7.287446 0
M  V30 325 H 3.710190 -2.960463 -4.953340 0
M  V30 326 H 4.625451 -5.367624 -4.754647 0
M  V30 327 H 3.716973 -7.212996 -5.979952 0
M  V30 328 H 1.855926 -6.794253 -7.534248 0
M  V30 329 H 0.933143 -4.612700 -7.743553 0
M  V30 330 H 0.506474 -2.574759 -4.089753 0
M  V30 331 H -0.662557 -0.775125 -3.012136 0
M  V30 332 H 0.759204 2.940711 -4.275505 0
M  V30 333 H 3.186436 2.567361 -3.333886 0
M  V30 334 H 2.748386 4.257717 -3.559064 0
M  V30 335 H 4.128562 2.923609 -1.250370 0
M  V30 336 H 3.507798 4.662812 -1.091624 0
M  V30 337 H 4.864905 5.337806 -2.891517 0
M  V30 338 H 5.235101 3.712329 -3.461735 0
M  V30 339 H 6.784157 5.310991 -1.680430 0
M  V30 340 H 7.437324 0.684667 -0.445960 0
M  V30 341 H 9.144215 1.213347 -0.324261 0
M  V30 342 H 10.667131 1.305989 -2.162989 0
M  V30 343 H 10.731425 1.111909 -4.540776 0
M  V30 344 H 8.794945 1.034180 -6.184762 0
M  V30 345 H 5.583714 0.333772 -4.879477 0
M  V30 346 H 3.944071 3.841501 -8.175427 0
M  V30 347 H 6.295646 5.214273 -7.798883 0
M  V30 348 H 7.607452 1.945593 1.440825 0
M  V30 349 H 6.503864 3.371134 1.188426 0
M  V30 350 H 9.053923 3.128441 2.571166 0
M  V30 351 H 7.905319 4.532599 2.466555 0
M  V30 352 H 10.200207 5.081217 1.595322 0
M  V30 353 H 11.467404 5.739164 0.092623 0
M  V30 354 H 13.700161 6.098963 -1.200276 0
M  V30 355 H 14.804334 3.918145 -1.687074 0
M  V30 356 H 7.859749 5.265153 0.107589 0
M  V30 357 H 9.337642 5.795261 -0.722328 0
M  V30 358 H 9.776580 3.294695 -1.244058 0
M  V30 359 H 8.417983 4.071326 -2.054534 0
M  V30 360 H 1.865582 -4.425233 9.490475 0
M  V30 361 H 3.171360 -4.123991 9.347236 0
M  V30 362 H 1.705888 -3.914265 -2.411288 0
M  V30 363 H -1.483061 -5.160838 -3.839558 0
M  V30 364 H 1.671268 -8.200685 -1.703631 0
M  V30 365 H 3.313268 -7.882752 0.057476 0
M  V30 END ATOM
M  V30 BEGIN BOND
M  V30 1 1 1 2
M  V30 2 1 2 3
M  V30 3 1 3 4
M  V30 4 2 4 5
M  V30 5 1 5 6
M  V30 6 2 6 7
M  V30 7 1 7 8
M  V30 8 2 8 9
M  V30 9 1 9 10
M  V30 10 1 10 11
M  V30 11 1 9 12
M  V30 12 2 12 13
M  V30 13 1 13 14
M  V30 14 2 14 15
M  V30 15 1 15 16
M  V30 16 2 16 17
M  V30 17 2 16 18
M  V30 18 1 16 19
M  V30 19 1 15 20
M  V30 20 2 20 21
M  V30 21 1 21 22
M  V30 22 1 22 23
M  V30 23 1 22 24
M  V30 24 1 4 25
M  V30 25 1 25 26
M  V30 26 1 25 27
M  V30 27 1 27 28
M  V30 28 1 28 29
M  V30 29 1 29 30
M  V30 30 2 30 31
M  V30 31 1 30 32
M  V30 32 1 32 33
M  V30 33 1 33 34
M  V30 34 1 34 35
M  V30 35 1 35 36
M  V30 36 1 36 37
M  V30 37 1 37 38
M  V30 38 1 38 39
M  V30 39 2 39 40
M  V30 40 1 39 41
M  V30 41 1 41 42
M  V30 42 1 42 43
M  V30 43 1 43 44
M  V30 44 1 44 45
M  V30 45 1 45 46
M  V30 46 2 46 47 CFG=2
M  V30 47 1 46 48
M  V30 48 1 41 49
M  V30 49 1 49 50
M  V30 50 2 50 51
M  V30 51 1 50 52
M  V30 52 1 52 53
M  V30 53 1 53 54
M  V30 54 1 54 55
M  V30 55 1 55 56
M  V30 56 1 56 57
M  V30 57 2 57 58 CFG=2
M  V30 58 1 57 59
M  V30 59 1 52 60
M  V30 60 1 60 61
M  V30 61 2 61 62
M  V30 62 1 61 63
M  V30 63 1 63 64
M  V30 64 1 64 65
M  V30 65 1 65 66
M  V30 66 1 66 67
M  V30 67 1 67 68
M  V30 68 2 68 69 CFG=2
M  V30 69 1 68 70
M  V30 70 1 63 71
M  V30 71 1 71 72
M  V30 72 2 72 73
M  V30 73 1 72 74
M  V30 74 1 74 75
M  V30 75 1 75 76
M  V30 76 1 76 77
M  V30 77 1 77 78
M  V30 78 1 78 79
M  V30 79 2 79 80 CFG=2
M  V30 80 1 79 81
M  V30 81 1 74 82
M  V30 82 1 82 83
M  V30 83 2 83 84
M  V30 84 1 83 85
M  V30 85 1 85 86
M  V30 86 1 86 87
M  V30 87 1 87 88
M  V30 88 1 88 89
M  V30 89 1 89 90
M  V30 90 2 90 91 CFG=2
M  V30 91 1 90 92
M  V30 92 1 85 93
M  V30 93 1 93 94
M  V30 94 2 94 95
M  V30 95 1 94 96
M  V30 96 1 96 97
M  V30 97 1 97 98
M  V30 98 1 98 99
M  V30 99 1 99 100
M  V30 100 1 100 101
M  V30 101 2 101 102 CFG=2
M  V30 102 1 101 103
M  V30 103 1 96 104
M  V30 104 1 104 105
M  V30 105 2 105 106
M  V30 106 1 105 107
M  V30 107 1 107 108
M  V30 108 1 108 109
M  V30 109 2 109 110
M  V30 110 1 110 111
M  V30 111 2 111 112
M  V30 112 1 112 113
M  V30 113 2 113 114
M  V30 114 1 113 115
M  V30 115 2 115 116
M  V30 116 1 116 117
M  V30 117 2 117 118
M  V30 118 1 118 119
M  V30 119 2 119 120
M  V30 120 1 112 121
M  V30 121 2 121 122
M  V30 122 1 107 123
M  V30 123 1 123 124
M  V30 124 2 124 125
M  V30 125 1 124 126
M  V30 126 1 126 127
M  V30 127 1 127 128
M  V30 128 2 128 129
M  V30 129 1 129 130
M  V30 130 2 130 131
M  V30 131 1 131 132
M  V30 132 2 132 133
M  V30 133 1 132 134
M  V30 134 2 134 135
M  V30 135 1 135 136
M  V30 136 2 136 137
M  V30 137 1 137 138
M  V30 138 2 138 139
M  V30 139 1 131 140
M  V30 140 2 140 141
M  V30 141 1 126 142
M  V30 142 1 142 143
M  V30 143 2 143 144
M  V30 144 1 143 145
M  V30 145 1 145 146
M  V30 146 1 146 147
M  V30 147 1 147 148
M  V30 148 1 148 149
M  V30 149 2 149 150
M  V30 150 1 149 151
M  V30 151 1 151 152 CFG=1
M  V30 152 1 152 153
M  V30 153 2 153 154
M  V30 154 1 154 155
M  V30 155 2 155 156
M  V30 156 1 156 157
M  V30 157 1 157 158
M  V30 158 1 158 159
M  V30 159 2 159 160
M  V30 160 1 160 161
M  V30 161 2 161 162
M  V30 162 1 162 163
M  V30 163 2 157 164
M  V30 164 1 151 165
M  V30 165 1 165 166
M  V30 166 1 166 167
M  V30 167 1 167 168
M  V30 168 1 168 169
M  V30 169 2 169 170
M  V30 170 1 170 171
M  V30 171 2 171 172
M  V30 172 1 172 173
M  V30 173 1 173 174
M  V30 174 2 173 175
M  V30 175 1 175 176
M  V30 176 1 167 177
M  V30 177 1 177 178
M  V30 178 1 37 179
M  V30 179 1 179 180
M  V30 180 2 179 181
M  V30 181 1 25 182
M  V30 182 2 182 183
M  V30 183 1 183 184
M  V30 184 1 184 185
M  V30 185 2 185 186
M  V30 186 2 185 187
M  V30 187 1 185 188
M  V30 188 2 184 189
M  V30 189 1 189 190
M  V30 190 2 190 191
M  V30 191 1 191 3
M  V30 192 1 22 8
M  V30 193 1 122 109
M  V30 194 1 141 128
M  V30 195 1 178 151
M  V30 196 1 191 182
M  V30 197 1 21 12
M  V30 198 1 120 115
M  V30 199 1 139 134
M  V30 200 1 164 153
M  V30 201 1 175 169
M  V30 202 1 163 159
M  V30 203 1 1 192
M  V30 204 1 1 193
M  V30 205 1 1 194
M  V30 206 1 2 195
M  V30 207 1 2 196
M  V30 208 1 5 197
M  V30 209 1 6 198
M  V30 210 1 7 199
M  V30 211 1 10 200
M  V30 212 1 10 201
M  V30 213 1 11 202
M  V30 214 1 11 203
M  V30 215 1 11 204
M  V30 216 1 13 205
M  V30 217 1 14 206
M  V30 218 1 19 207
M  V30 219 1 20 208
M  V30 220 1 23 209
M  V30 221 1 23 210
M  V30 222 1 23 211
M  V30 223 1 24 212
M  V30 224 1 24 213
M  V30 225 1 24 214
M  V30 226 1 26 215
M  V30 227 1 26 216
M  V30 228 1 26 217
M  V30 229 1 27 218
M  V30 230 1 27 219
M  V30 231 1 28 220
M  V30 232 1 28 221
M  V30 233 1 29 222
M  V30 234 1 29 223
M  V30 235 1 32 224
M  V30 236 1 33 225
M  V30 237 1 33 226
M  V30 238 1 34 227
M  V30 239 1 34 228
M  V30 240 1 35 229
M  V30 241 1 35 230
M  V30 242 1 36 231
M  V30 243 1 36 232
M  V30 244 1 37 233 CFG=3
M  V30 245 1 38 234
M  V30 246 1 41 235 CFG=3
M  V30 247 1 42 236
M  V30 248 1 42 237
M  V30 249 1 43 238
M  V30 250 1 43 239
M  V30 251 1 44 240
M  V30 252 1 44 241
M  V30 253 1 45 242
M  V30 254 1 47 243
M  V30 255 1 48 244
M  V30 256 1 48 245
M  V30 257 1 49 246
M  V30 258 1 52 247 CFG=1
M  V30 259 1 53 248
M  V30 260 1 53 249
M  V30 261 1 54 250
M  V30 262 1 54 251
M  V30 263 1 55 252
M  V30 264 1 55 253
M  V30 265 1 56 254
M  V30 266 1 58 255
M  V30 267 1 59 256
M  V30 268 1 59 257
M  V30 269 1 60 258
M  V30 270 1 63 259 CFG=1
M  V30 271 1 64 260
M  V30 272 1 64 261
M  V30 273 1 65 262
M  V30 274 1 65 263
M  V30 275 1 66 264
M  V30 276 1 66 265
M  V30 277 1 67 266
M  V30 278 1 69 267
M  V30 279 1 70 268
M  V30 280 1 70 269
M  V30 281 1 71 270
M  V30 282 1 74 271 CFG=3
M  V30 283 1 75 272
M  V30 284 1 75 273
M  V30 285 1 76 274
M  V30 286 1 76 275
M  V30 287 1 77 276
M  V30 288 1 77 277
M  V30 289 1 78 278
M  V30 290 1 80 279
M  V30 291 1 81 280
M  V30 292 1 81 281
M  V30 293 1 82 282
M  V30 294 1 85 283 CFG=3
M  V30 295 1 86 284
M  V30 296 1 86 285
M  V30 297 1 87 286
M  V30 298 1 87 287
M  V30 299 1 88 288
M  V30 300 1 88 289
M  V30 301 1 89 290
M  V30 302 1 91 291
M  V30 303 1 92 292
M  V30 304 1 92 293
M  V30 305 1 93 294
M  V30 306 1 96 295 CFG=1
M  V30 307 1 97 296
M  V30 308 1 97 297
M  V30 309 1 98 298
M  V30 310 1 98 299
M  V30 311 1 99 300
M  V30 312 1 99 301
M  V30 313 1 100 302
M  V30 314 1 102 303
M  V30 315 1 103 304
M  V30 316 1 103 305
M  V30 317 1 104 306
M  V30 318 1 107 307 CFG=3
M  V30 319 1 108 308
M  V30 320 1 108 309
M  V30 321 1 110 310
M  V30 322 1 111 311
M  V30 323 1 116 312
M  V30 324 1 117 313
M  V30 325 1 118 314
M  V30 326 1 119 315
M  V30 327 1 120 316
M  V30 328 1 121 317
M  V30 329 1 122 318
M  V30 330 1 123 319
M  V30 331 1 126 320 CFG=1
M  V30 332 1 127 321
M  V30 333 1 127 322
M  V30 334 1 129 323
M  V30 335 1 130 324
M  V30 336 1 135 325
M  V30 337 1 136 326
M  V30 338 1 137 327
M  V30 339 1 138 328
M  V30 340 1 139 329
M  V30 341 1 140 330
M  V30 342 1 141 331
M  V30 343 1 142 332
M  V30 344 1 145 333
M  V30 345 1 145 334
M  V30 346 1 146 335
M  V30 347 1 146 336
M  V30 348 1 147 337
M  V30 349 1 147 338
M  V30 350 1 148 339
M  V30 351 1 152 340
M  V30 352 1 152 341
M  V30 353 1 154 342
M  V30 354 1 155 343
M  V30 355 1 156 344
M  V30 356 1 158 345
M  V30 357 1 161 346
M  V30 358 1 162 347
M  V30 359 1 165 348
M  V30 360 1 165 349
M  V30 361 1 166 350
M  V30 362 1 166 351
M  V30 363 1 167 352 CFG=1
M  V30 364 1 170 353
M  V30 365 1 171 354
M  V30 366 1 172 355
M  V30 367 1 177 356
M  V30 368 1 177 357
M  V30 369 1 178 358
M  V30 370 1 178 359
M  V30 371 1 180 360
M  V30 372 1 180 361
M  V30 373 1 183 362
M  V30 374 1 188 363
M  V30 375 1 189 364
M  V30 376 1 190 365
M  V30 END BOND
M  V30 END CTAB
M  END
>  <Dataset>  (169) 
ChEMBL_Kinases

>  <Ligand_Instance>  (169) 
nan

>  <PDB_ID>  (169) 
nan

>  <Standardized_SMILES>  (169) 
CCN1/C(=C/C=C/C2=[N+](CC)c3ccc(S(=O)(=O)O)cc3C2(C)C)C(C)(CCCC(=O)NCCCC[C@@H](NC(=O)[C@@H](CCCNC(=N)N)NC(=O)[C@@H](CCCNC(=N)N)NC(=O)[C@@H](CCCNC(=N)N)NC(=O)[C@@H](CCCNC(=N)N)NC(=O)[C@@H](CCCNC(=N)N)NC(=O)[C@@H](CCCNC(=N)N)NC(=O)[C@@H](Cc2ccc(C(=O)c3ccccc3)cc2)NC(=O)[C@@H](Cc2ccc(C(=O)c3ccccc3)cc2)NC(=O)CCCNC(=O)[C@]2(Cc3cccc(Nc4nccs4)n3)CC[C@@H](Oc3cccc(Cl)c3F)CC2)C(N)=O)c2cc(S(=O)(=O)O)ccc21

>  <Name>  (169) 
nan

>  <Pocket>  (169) 
nan

>  <ATP_Site>  (169) 
nan

>  <Peripheral>  (169) 
nan

>  <Num_H_Atoms_ProtBoundConf>  (169) 
nan

>  <Num_Resolved_Atoms>  (169) 
nan

>  <Num_Not_Resolved_Atoms>  (169) 
nan

$$$$
CHEMBL3600764
     RDKit          3D

  0  0  0  0  0  0  0  0  0  0999 V3000
M  V30 BEGIN CTAB
M  V30 COUNTS 342 351 0 0 0
M  V30 BEGIN ATOM
M  V30 1 C 1.704469 -1.201353 -0.396542 0
M  V30 2 C 1.089967 -2.428893 0.056256 0
M  V30 3 N 1.773878 -3.602368 0.619561 0
M  V30 4 C 2.249925 -2.988223 1.695602 0
M  V30 5 C 3.007835 -2.535638 2.565804 0
M  V30 6 C 3.787036 -1.995977 3.584751 0
M  V30 7 C 4.796266 -1.663991 4.275558 0
M  V30 8 C 4.658507 -0.910851 5.525883 0
M  V30 9 N 5.824831 -0.595875 6.005102 0 CHG=1 VAL=4
M  V30 10 C 7.184311 -0.818509 5.636726 0
M  V30 11 C 7.956867 -1.424027 6.837822 0
M  V30 12 C 5.552938 0.419305 7.005743 0
M  V30 13 C 6.365584 1.342427 7.682677 0
M  V30 14 C 5.861386 2.458835 8.390755 0
M  V30 15 C 4.511533 2.650374 8.421501 0
M  V30 16 S 3.598402 4.019574 9.079410 0
M  V30 17 O 4.524675 4.968652 9.779948 0
M  V30 18 O 2.590885 3.534207 10.050654 0
M  V30 19 O 2.941419 4.878101 7.790163 0
M  V30 20 C 3.628921 1.762871 7.775304 0
M  V30 21 C 4.230586 0.698172 7.109976 0
M  V30 22 C 3.622265 -0.454927 6.400828 0
M  V30 23 C 2.288974 -0.094206 5.920081 0
M  V30 24 C 3.363240 -1.504470 7.531336 0
M  V30 25 C 3.157017 -4.282435 1.847844 0
M  V30 26 C 3.175730 -4.802378 3.274709 0
M  V30 27 C 4.332400 -4.416214 1.035918 0
M  V30 28 C 5.604899 -3.799311 0.843830 0
M  V30 29 C 5.902000 -2.401348 0.614858 0
M  V30 30 C 5.085722 -1.686026 -0.359971 0
M  V30 31 O 4.300114 -2.375348 -1.007188 0
M  V30 32 N 5.186544 -0.293208 -0.492601 0
M  V30 33 C 4.442238 0.697028 -1.184969 0
M  V30 34 C 5.333138 1.955970 -1.420629 0
M  V30 35 C 6.177183 1.498705 -2.675026 0
M  V30 36 C 7.192017 2.481625 -2.988252 0
M  V30 37 C 8.546090 1.974938 -2.428092 0 CFG=1
M  V30 38 N 8.921725 0.779639 -3.197857 0
M  V30 39 C 8.101804 -0.111710 -3.886461 0
M  V30 40 O 7.029562 -0.531353 -4.269808 0
M  V30 41 C 7.955492 -1.339293 -4.754241 0 CFG=1
M  V30 42 C 8.850016 -2.407617 -4.258913 0
M  V30 43 C 8.598834 -2.762198 -2.808745 0
M  V30 44 C 9.563947 -3.825487 -2.372150 0
M  V30 45 N 9.448592 -4.116309 -0.951435 0
M  V30 46 C 9.933443 -2.945073 -0.218965 0
M  V30 47 N 10.831556 -2.160495 -0.754874 0
M  V30 48 N 9.529072 -2.481873 1.096317 0
M  V30 49 N 6.585116 -1.637833 -4.991890 0
M  V30 50 C 5.454386 -1.242616 -5.702267 0
M  V30 51 O 5.664286 -0.194473 -6.404781 0
M  V30 52 C 4.114975 -1.892538 -5.696559 0 CFG=1
M  V30 53 C 4.120423 -3.252964 -5.117356 0
M  V30 54 C 5.020295 -4.132074 -5.970512 0
M  V30 55 C 5.123550 -5.538375 -5.485822 0
M  V30 56 N 5.671826 -5.684798 -4.158700 0
M  V30 57 C 5.803935 -6.882091 -3.419525 0
M  V30 58 N 5.078523 -7.809293 -3.989915 0
M  V30 59 N 6.584527 -7.024560 -2.248645 0
M  V30 60 N 2.979874 -1.075039 -5.612440 0
M  V30 61 C 1.799064 -0.432957 -6.137363 0
M  V30 62 O 1.778922 -0.841230 -7.323722 0
M  V30 63 C 1.105682 0.405169 -5.116817 0 CFG=1
M  V30 64 C 2.074244 1.261632 -4.380890 0
M  V30 65 C 1.513580 2.160265 -3.329198 0
M  V30 66 C 0.787869 3.384946 -3.773623 0
M  V30 67 N 1.790564 4.279309 -4.439964 0
M  V30 68 C 1.757030 5.554471 -5.078734 0
M  V30 69 N 0.671807 5.374850 -5.739762 0
M  V30 70 N 2.882580 6.380727 -4.684293 0
M  V30 71 N -0.144661 0.958310 -5.515724 0
M  V30 72 C -1.469079 0.918186 -5.082840 0
M  V30 73 O -1.482161 0.188816 -4.002553 0
M  V30 74 C -2.825528 1.316485 -5.298579 0 CFG=1
M  V30 75 C -3.438323 0.787916 -6.599157 0
M  V30 76 C -2.716218 1.271309 -7.837637 0
M  V30 77 C -2.815705 2.756101 -7.929465 0
M  V30 78 N -2.277346 3.335702 -9.128878 0
M  V30 79 C -0.906083 3.487666 -9.544722 0
M  V30 80 N -0.218254 2.829960 -8.677336 0
M  V30 81 N -0.838611 4.280941 -10.689637 0
M  V30 82 N -3.708197 1.053771 -4.193873 0
M  V30 83 C -5.054325 0.534429 -4.144344 0
M  V30 84 O -5.349436 0.259081 -5.317986 0
M  V30 85 C -6.208113 0.165250 -3.479757 0 CFG=1
M  V30 86 C -6.805148 -1.215987 -3.817831 0
M  V30 87 C -7.214150 -1.272531 -5.260555 0
M  V30 88 C -8.246848 -0.239465 -5.634219 0
M  V30 89 N -8.622838 -0.429108 -7.056709 0
M  V30 90 C -9.659662 0.525847 -7.317059 0
M  V30 91 N -10.326476 1.466368 -6.742638 0
M  V30 92 N -10.417212 0.751221 -8.510077 0
M  V30 93 N -6.498721 0.491261 -2.089010 0
M  V30 94 C -7.012920 -0.073487 -0.842405 0
M  V30 95 O -7.249870 -1.329504 -0.864832 0
M  V30 96 C -7.083449 1.189320 0.085206 0 CFG=1
M  V30 97 C -8.254623 1.883140 -0.489557 0
M  V30 98 C -8.773840 3.184834 -0.134164 0
M  V30 99 C -8.931816 3.657058 1.255406 0
M  V30 100 N -7.590704 3.907450 1.852013 0
M  V30 101 C -7.117278 5.083984 1.087325 0
M  V30 102 N -7.978771 5.983670 0.679399 0
M  V30 103 N -5.751962 5.407138 0.714687 0
M  V30 104 N -7.394367 0.635423 1.418431 0
M  V30 105 C -6.741571 -0.350486 2.144290 0
M  V30 106 O -5.774819 -0.973142 1.745570 0
M  V30 107 C -6.616438 -1.141782 3.337106 0 CFG=2
M  V30 108 C -6.210243 -0.333691 4.594090 0
M  V30 109 C -7.062055 0.731981 5.005634 0
M  V30 110 C -8.170071 0.388231 5.777673 0
M  V30 111 C -8.972367 1.477523 6.213299 0
M  V30 112 C -8.725417 2.779866 5.937854 0
M  V30 113 N -9.532813 3.857793 6.421641 0
M  V30 114 N -9.099481 4.531330 7.389887 0 CHG=1 VAL=4
M  V30 115 N -8.517829 5.348988 8.118920 0 CHG=-1 VAL=2
M  V30 116 C -7.597489 2.943033 5.170408 0
M  V30 117 C -6.729175 2.055796 4.666768 0
M  V30 118 N -5.452301 -2.090640 3.318741 0
M  V30 119 C -5.589885 -3.366690 4.005047 0
M  V30 120 O -6.684897 -3.723066 4.576090 0
M  V30 121 C -4.504986 -4.368447 4.124543 0 CFG=2
M  V30 122 C -4.553009 -4.882295 5.555139 0
M  V30 123 C -3.476430 -5.848002 5.868907 0
M  V30 124 C -3.292461 -7.199981 5.714325 0
M  V30 125 C -2.127845 -7.817730 6.163794 0
M  V30 126 C -1.090563 -7.168503 6.784279 0
M  V30 127 N 0.079986 -7.819398 7.228099 0
M  V30 128 N 0.990153 -7.148565 7.744990 0 CHG=1 VAL=4
M  V30 129 N 1.591068 -6.508561 8.608725 0 CHG=-1 VAL=2
M  V30 130 C -1.311589 -5.837534 6.914817 0
M  V30 131 C -2.430639 -5.147877 6.500088 0
M  V30 132 N -3.266404 -3.909494 3.701241 0
M  V30 133 C -2.441135 -2.858276 4.065048 0
M  V30 134 O -2.859045 -2.064247 4.971685 0
M  V30 135 C -1.076847 -2.361978 3.650943 0
M  V30 136 C -0.663211 -1.130609 4.386699 0
M  V30 137 N -1.346321 0.084522 4.123823 0
M  V30 138 C -0.978977 0.611964 2.832689 0
M  V30 139 O -0.106765 -0.171808 2.333793 0
M  V30 140 C -1.448265 1.844513 2.090349 0 CFG=2
M  V30 141 C -1.140629 2.977892 2.988498 0
M  V30 142 C -1.512522 4.332968 2.610099 0
M  V30 143 C -0.799826 5.262585 1.922879 0
M  V30 144 C -1.158749 6.584320 1.617180 0
M  V30 145 C -2.435694 6.912134 2.117397 0
M  V30 146 C -3.175466 5.980055 2.818028 0
M  V30 147 N -4.371655 6.596894 3.287696 0
M  V30 148 C -4.085338 6.631342 4.701191 0
M  V30 149 N -3.537539 6.368618 5.610178 0
M  V30 150 C -3.256535 6.405363 6.834997 0
M  V30 151 C -4.221057 7.344082 7.329839 0
M  V30 152 S -5.176887 7.803993 5.758579 0
M  V30 153 N -2.749397 4.712255 3.067997 0
M  V30 154 C -2.860992 1.795655 1.666014 0
M  V30 155 C -3.220046 0.478316 0.945224 0
M  V30 156 C -2.123995 0.061212 -0.046777 0 CFG=1
M  V30 157 O -2.663422 -0.492638 -1.235042 0
M  V30 158 C -3.022144 -1.748828 -1.520369 0
M  V30 159 C -3.367493 -2.299641 -2.683956 0
M  V30 160 C -3.757587 -3.480467 -3.219581 0
M  V30 161 C -3.808214 -4.442990 -2.180370 0
M  V30 162 C -3.487951 -4.102004 -0.872753 0
M  V30 163 Cl -3.684856 -5.409843 0.311533 0
M  V30 164 C -3.108909 -2.795050 -0.573419 0
M  V30 165 F -2.827541 -2.653726 0.716203 0
M  V30 166 C -1.372158 1.331032 -0.347712 0
M  V30 167 C -0.597415 1.853699 0.820894 0
M  V30 168 C 9.587323 2.948180 -2.422071 0
M  V30 169 N 8.998312 4.047441 -1.755387 0
M  V30 170 O 10.400328 2.168534 -3.042535 0
M  V30 171 C 2.303692 -5.381823 1.203504 0
M  V30 172 C 2.279877 -6.800644 1.344812 0
M  V30 173 C 1.615608 -7.524316 0.333121 0
M  V30 174 S 1.506776 -9.262353 0.391793 0
M  V30 175 O 0.318251 -9.673908 -0.439178 0
M  V30 176 O 1.435492 -9.813208 1.762479 0
M  V30 177 O 2.860173 -9.873855 -0.427445 0
M  V30 178 C 1.007145 -6.874511 -0.751600 0
M  V30 179 C 1.045092 -5.482060 -0.854335 0
M  V30 180 C 1.699366 -4.876682 0.159764 0
M  V30 181 H 2.475764 -0.809735 0.255231 0
M  V30 182 H 0.946098 -0.352023 -0.455764 0
M  V30 183 H 2.002663 -1.249921 -1.495332 0
M  V30 184 H 0.138260 -2.274780 0.663596 0
M  V30 185 H 0.564071 -2.852778 -0.908304 0
M  V30 186 H 3.595597 -1.694693 1.956451 0
M  V30 187 H 2.818670 -1.703326 4.078941 0
M  V30 188 H 5.611329 -2.061404 3.696968 0
M  V30 189 H 7.332722 -1.521588 4.787856 0
M  V30 190 H 7.633535 0.149318 5.309714 0
M  V30 191 H 7.935445 -2.527661 6.692310 0
M  V30 192 H 7.407002 -1.156064 7.737726 0
M  V30 193 H 8.980164 -1.001804 6.760318 0
M  V30 194 H 7.447277 1.233498 7.686203 0
M  V30 195 H 6.404747 3.185443 8.914580 0
M  V30 196 H 2.111047 4.455335 7.433795 0
M  V30 197 H 2.526452 1.908061 7.797077 0
M  V30 198 H 1.615399 -1.026634 6.042059 0
M  V30 199 H 1.804803 0.594601 6.638176 0
M  V30 200 H 2.178983 0.389760 4.949345 0
M  V30 201 H 3.112009 -2.437822 6.997607 0
M  V30 202 H 4.209663 -1.610025 8.211456 0
M  V30 203 H 2.424626 -1.167080 8.015116 0
M  V30 204 H 2.142402 -4.813244 3.625611 0
M  V30 205 H 3.908610 -4.372542 3.934109 0
M  V30 206 H 3.463913 -5.888341 3.190805 0
M  V30 207 H 4.605858 -5.572737 1.148937 0
M  V30 208 H 3.909096 -4.544540 -0.058952 0
M  V30 209 H 6.362588 -4.136686 1.662029 0
M  V30 210 H 6.105987 -4.376185 -0.030934 0
M  V30 211 H 6.037427 -1.751686 1.484851 0
M  V30 212 H 6.953810 -2.373128 0.145756 0
M  V30 213 H 6.017273 0.104605 0.041609 0
M  V30 214 H 4.016845 0.382324 -2.129874 0
M  V30 215 H 3.686637 1.106117 -0.446375 0
M  V30 216 H 4.744593 2.765502 -1.809157 0
M  V30 217 H 5.936561 2.204623 -0.592043 0
M  V30 218 H 6.559095 0.535411 -2.242852 0
M  V30 219 H 5.467605 1.304133 -3.476740 0
M  V30 220 H 6.997733 3.423333 -2.450800 0
M  V30 221 H 7.322030 2.749079 -4.063967 0
M  V30 222 H 8.235999 1.627846 -1.419544 0
M  V30 223 H 9.874487 0.349783 -3.382910 0
M  V30 224 H 8.454124 -0.961085 -5.743164 0
M  V30 225 H 9.906213 -2.140970 -4.407182 0
M  V30 226 H 8.687637 -3.368950 -4.852718 0
M  V30 227 H 8.574875 -1.917819 -2.120444 0
M  V30 228 H 7.573121 -3.236662 -2.695659 0
M  V30 229 H 9.445454 -4.794697 -2.880928 0
M  V30 230 H 10.640276 -3.529264 -2.541765 0
M  V30 231 H 9.158543 -4.847940 -0.222585 0
M  V30 232 H 11.203057 -1.330969 -0.283205 0
M  V30 233 H 9.323854 -1.443795 1.211995 0
M  V30 234 H 9.303460 -2.608285 2.109711 0
M  V30 235 H 6.370386 -2.455854 -4.374242 0
M  V30 236 H 4.086012 -2.193759 -6.884393 0
M  V30 237 H 4.421131 -3.301135 -4.051163 0
M  V30 238 H 3.083688 -3.681540 -5.174401 0
M  V30 239 H 4.459046 -4.199444 -6.963938 0
M  V30 240 H 5.989318 -3.730547 -6.233269 0
M  V30 241 H 4.159764 -6.042298 -5.598178 0
M  V30 242 H 5.863783 -6.055434 -6.156792 0
M  V30 243 H 6.029851 -4.764589 -3.709014 0
M  V30 244 H 5.009355 -8.789279 -3.636670 0
M  V30 245 H 7.021864 -6.139720 -1.907240 0
M  V30 246 H 6.609719 -8.012833 -1.908342 0
M  V30 247 H 3.296489 -1.010295 -4.600896 0
M  V30 248 H 0.781867 -0.378041 -4.326501 0
M  V30 249 H 2.831017 0.620958 -3.931152 0
M  V30 250 H 2.645282 1.925030 -5.113439 0
M  V30 251 H 2.178826 2.308482 -2.447051 0
M  V30 252 H 0.661436 1.515064 -2.874181 0
M  V30 253 H 0.427639 3.979875 -2.885377 0
M  V30 254 H -0.047407 3.228661 -4.430737 0
M  V30 255 H 2.785112 3.833839 -4.377483 0
M  V30 256 H 0.257194 6.104257 -6.380530 0
M  V30 257 H 3.282393 6.434287 -3.748579 0
M  V30 258 H 2.791991 6.633732 -5.714076 0
M  V30 259 H -0.256907 1.583609 -6.333525 0
M  V30 260 H -2.898688 2.463531 -5.400152 0
M  V30 261 H -4.417358 1.344323 -6.697044 0
M  V30 262 H -3.492594 -0.279354 -6.590577 0
M  V30 263 H -1.711164 0.940728 -7.950078 0
M  V30 264 H -3.277745 0.870165 -8.729758 0
M  V30 265 H -3.830162 3.183007 -7.728475 0
M  V30 266 H -2.106266 3.137068 -7.116760 0
M  V30 267 H -3.098754 3.684402 -9.740099 0
M  V30 268 H 0.816639 2.846533 -8.854947 0
M  V30 269 H -1.205750 4.151044 -11.670664 0
M  V30 270 H -0.456015 5.190804 -11.014525 0
M  V30 271 H -3.506112 1.215838 -3.152126 0
M  V30 272 H -7.152328 0.775498 -3.944970 0
M  V30 273 H -6.128314 -2.013694 -3.582049 0
M  V30 274 H -7.770651 -1.261208 -3.215472 0
M  V30 275 H -7.814279 -2.257054 -5.311501 0
M  V30 276 H -6.434822 -1.447326 -5.984752 0
M  V30 277 H -7.871172 0.819084 -5.589570 0
M  V30 278 H -9.155174 -0.395841 -5.034677 0
M  V30 279 H -8.464693 -0.927922 -7.954230 0
M  V30 280 H -10.069337 1.640055 -5.719741 0
M  V30 281 H -11.216161 0.154379 -8.736444 0
M  V30 282 H -11.223555 0.163204 -8.762138 0
M  V30 283 H -6.150919 1.502191 -2.166539 0
M  V30 284 H -6.141425 1.633397 0.054079 0
M  V30 285 H -9.133663 1.138710 -0.329656 0
M  V30 286 H -8.126405 1.888231 -1.646957 0
M  V30 287 H -9.783181 3.318546 -0.627728 0
M  V30 288 H -8.118430 4.033652 -0.642577 0
M  V30 289 H -9.533377 4.580505 1.396789 0
M  V30 290 H -9.419586 2.857364 1.875219 0
M  V30 291 H -6.768265 3.772118 2.467041 0
M  V30 292 H -7.678164 6.808539 0.151543 0
M  V30 293 H -5.442041 6.366897 0.513138 0
M  V30 294 H -5.043972 4.610643 0.645355 0
M  V30 295 H -8.163341 0.848742 2.104390 0
M  V30 296 H -7.503073 -1.733167 3.606221 0
M  V30 297 H -6.109517 -1.124449 5.389948 0
M  V30 298 H -5.146258 -0.029524 4.430949 0
M  V30 299 H -8.420386 -0.630261 6.013978 0
M  V30 300 H -9.853989 1.190136 6.826112 0
M  V30 301 H -7.355557 4.019594 4.914462 0
M  V30 302 H -5.858025 2.285869 4.074715 0
M  V30 303 H -4.545687 -1.942834 2.841977 0
M  V30 304 H -4.796160 -5.247847 3.495690 0
M  V30 305 H -5.494280 -5.492746 5.619967 0
M  V30 306 H -4.692851 -4.113328 6.320795 0
M  V30 307 H -4.143434 -7.628718 5.218098 0
M  V30 308 H -2.088982 -8.891919 5.983429 0
M  V30 309 H -0.472050 -5.316794 7.397012 0
M  V30 310 H -2.374867 -4.104506 6.722918 0
M  V30 311 H -2.734018 -4.419304 2.919250 0
M  V30 312 H -0.351862 -3.165017 3.901212 0
M  V30 313 H -1.070716 -2.223686 2.533779 0
M  V30 314 H -0.684939 -1.344961 5.454558 0
M  V30 315 H 0.439713 -1.016929 4.139916 0
M  V30 316 H -2.052234 0.707935 4.590038 0
M  V30 317 H -1.603685 2.679273 3.990363 0
M  V30 318 H -0.020211 2.948543 3.277693 0
M  V30 319 H 0.177699 4.970691 1.558809 0
M  V30 320 H -0.490880 7.222951 1.065156 0
M  V30 321 H -2.717111 7.939133 1.886165 0
M  V30 322 H -5.252956 6.957227 2.924768 0
M  V30 323 H -2.534133 5.935486 7.479752 0
M  V30 324 H -4.420001 7.745656 8.359742 0
M  V30 325 H -3.500669 1.871945 2.558992 0
M  V30 326 H -3.077377 2.673606 1.039137 0
M  V30 327 H -4.092949 0.656288 0.353758 0
M  V30 328 H -3.276209 -0.241618 1.783464 0
M  V30 329 H -1.538849 -0.662171 0.483281 0
M  V30 330 H -3.343627 -1.580268 -3.529985 0
M  V30 331 H -3.987302 -3.717302 -4.236676 0
M  V30 332 H -4.106900 -5.456730 -2.433465 0
M  V30 333 H -0.673313 1.217607 -1.186101 0
M  V30 334 H -2.118270 2.123157 -0.684647 0
M  V30 335 H 0.330561 1.284615 0.950795 0
M  V30 336 H -0.271764 2.894621 0.582494 0
M  V30 337 H 8.669864 4.628411 -2.573416 0
M  V30 338 H 9.080303 3.950240 -0.693178 0
M  V30 339 H 2.733389 -7.352933 2.148977 0
M  V30 340 H 2.658696 -9.855233 -1.435826 0
M  V30 341 H 0.464358 -7.412083 -1.545560 0
M  V30 342 H 0.623568 -4.856261 -1.629865 0
M  V30 END ATOM
M  V30 BEGIN BOND
M  V30 1 1 1 2
M  V30 2 1 2 3
M  V30 3 1 3 4
M  V30 4 2 4 5
M  V30 5 1 5 6
M  V30 6 2 6 7
M  V30 7 1 7 8
M  V30 8 2 8 9
M  V30 9 1 9 10
M  V30 10 1 10 11
M  V30 11 1 9 12
M  V30 12 2 12 13
M  V30 13 1 13 14
M  V30 14 2 14 15
M  V30 15 1 15 16
M  V30 16 2 16 17
M  V30 17 2 16 18
M  V30 18 1 16 19
M  V30 19 1 15 20
M  V30 20 2 20 21
M  V30 21 1 21 22
M  V30 22 1 22 23
M  V30 23 1 22 24
M  V30 24 1 4 25
M  V30 25 1 25 26
M  V30 26 1 25 27
M  V30 27 1 27 28
M  V30 28 1 28 29
M  V30 29 1 29 30
M  V30 30 2 30 31
M  V30 31 1 30 32
M  V30 32 1 32 33
M  V30 33 1 33 34
M  V30 34 1 34 35
M  V30 35 1 35 36
M  V30 36 1 36 37
M  V30 37 1 37 38
M  V30 38 1 38 39
M  V30 39 2 39 40
M  V30 40 1 39 41
M  V30 41 1 41 42
M  V30 42 1 42 43
M  V30 43 1 43 44
M  V30 44 1 44 45
M  V30 45 1 45 46
M  V30 46 2 46 47 CFG=2
M  V30 47 1 46 48
M  V30 48 1 41 49
M  V30 49 1 49 50
M  V30 50 2 50 51
M  V30 51 1 50 52
M  V30 52 1 52 53
M  V30 53 1 53 54
M  V30 54 1 54 55
M  V30 55 1 55 56
M  V30 56 1 56 57
M  V30 57 2 57 58 CFG=2
M  V30 58 1 57 59
M  V30 59 1 52 60
M  V30 60 1 60 61
M  V30 61 2 61 62
M  V30 62 1 61 63
M  V30 63 1 63 64
M  V30 64 1 64 65
M  V30 65 1 65 66
M  V30 66 1 66 67
M  V30 67 1 67 68
M  V30 68 2 68 69 CFG=2
M  V30 69 1 68 70
M  V30 70 1 63 71
M  V30 71 1 71 72
M  V30 72 2 72 73
M  V30 73 1 72 74
M  V30 74 1 74 75
M  V30 75 1 75 76
M  V30 76 1 76 77
M  V30 77 1 77 78
M  V30 78 1 78 79
M  V30 79 2 79 80 CFG=2
M  V30 80 1 79 81
M  V30 81 1 74 82
M  V30 82 1 82 83
M  V30 83 2 83 84
M  V30 84 1 83 85
M  V30 85 1 85 86
M  V30 86 1 86 87
M  V30 87 1 87 88
M  V30 88 1 88 89
M  V30 89 1 89 90
M  V30 90 2 90 91 CFG=2
M  V30 91 1 90 92
M  V30 92 1 85 93
M  V30 93 1 93 94
M  V30 94 2 94 95
M  V30 95 1 94 96
M  V30 96 1 96 97
M  V30 97 1 97 98
M  V30 98 1 98 99
M  V30 99 1 99 100
M  V30 100 1 100 101
M  V30 101 2 101 102 CFG=2
M  V30 102 1 101 103
M  V30 103 1 96 104
M  V30 104 1 104 105
M  V30 105 2 105 106
M  V30 106 1 105 107
M  V30 107 1 107 108
M  V30 108 1 108 109
M  V30 109 2 109 110
M  V30 110 1 110 111
M  V30 111 2 111 112
M  V30 112 1 112 113
M  V30 113 2 113 114
M  V30 114 2 114 115
M  V30 115 1 112 116
M  V30 116 2 116 117
M  V30 117 1 107 118
M  V30 118 1 118 119
M  V30 119 2 119 120
M  V30 120 1 119 121
M  V30 121 1 121 122
M  V30 122 1 122 123
M  V30 123 2 123 124
M  V30 124 1 124 125
M  V30 125 2 125 126
M  V30 126 1 126 127
M  V30 127 2 127 128
M  V30 128 2 128 129
M  V30 129 1 126 130
M  V30 130 2 130 131
M  V30 131 1 121 132
M  V30 132 1 132 133
M  V30 133 2 133 134
M  V30 134 1 133 135
M  V30 135 1 135 136
M  V30 136 1 136 137
M  V30 137 1 137 138
M  V30 138 2 138 139
M  V30 139 1 138 140
M  V30 140 1 140 141 CFG=1
M  V30 141 1 141 142
M  V30 142 2 142 143
M  V30 143 1 143 144
M  V30 144 2 144 145
M  V30 145 1 145 146
M  V30 146 1 146 147
M  V30 147 1 147 148
M  V30 148 2 148 149
M  V30 149 1 149 150
M  V30 150 2 150 151
M  V30 151 1 151 152
M  V30 152 2 146 153
M  V30 153 1 140 154
M  V30 154 1 154 155
M  V30 155 1 155 156
M  V30 156 1 156 157
M  V30 157 1 157 158
M  V30 158 2 158 159
M  V30 159 1 159 160
M  V30 160 2 160 161
M  V30 161 1 161 162
M  V30 162 1 162 163
M  V30 163 2 162 164
M  V30 164 1 164 165
M  V30 165 1 156 166
M  V30 166 1 166 167
M  V30 167 1 37 168
M  V30 168 1 168 169
M  V30 169 2 168 170
M  V30 170 1 25 171
M  V30 171 2 171 172
M  V30 172 1 172 173
M  V30 173 1 173 174
M  V30 174 2 174 175
M  V30 175 2 174 176
M  V30 176 1 174 177
M  V30 177 2 173 178
M  V30 178 1 178 179
M  V30 179 2 179 180
M  V30 180 1 180 3
M  V30 181 1 22 8
M  V30 182 1 117 109
M  V30 183 1 131 123
M  V30 184 1 167 140
M  V30 185 1 180 171
M  V30 186 1 21 12
M  V30 187 1 153 142
M  V30 188 1 164 158
M  V30 189 1 152 148
M  V30 190 1 1 181
M  V30 191 1 1 182
M  V30 192 1 1 183
M  V30 193 1 2 184
M  V30 194 1 2 185
M  V30 195 1 5 186
M  V30 196 1 6 187
M  V30 197 1 7 188
M  V30 198 1 10 189
M  V30 199 1 10 190
M  V30 200 1 11 191
M  V30 201 1 11 192
M  V30 202 1 11 193
M  V30 203 1 13 194
M  V30 204 1 14 195
M  V30 205 1 19 196
M  V30 206 1 20 197
M  V30 207 1 23 198
M  V30 208 1 23 199
M  V30 209 1 23 200
M  V30 210 1 24 201
M  V30 211 1 24 202
M  V30 212 1 24 203
M  V30 213 1 26 204
M  V30 214 1 26 205
M  V30 215 1 26 206
M  V30 216 1 27 207
M  V30 217 1 27 208
M  V30 218 1 28 209
M  V30 219 1 28 210
M  V30 220 1 29 211
M  V30 221 1 29 212
M  V30 222 1 32 213
M  V30 223 1 33 214
M  V30 224 1 33 215
M  V30 225 1 34 216
M  V30 226 1 34 217
M  V30 227 1 35 218
M  V30 228 1 35 219
M  V30 229 1 36 220
M  V30 230 1 36 221
M  V30 231 1 37 222 CFG=1
M  V30 232 1 38 223
M  V30 233 1 41 224 CFG=3
M  V30 234 1 42 225
M  V30 235 1 42 226
M  V30 236 1 43 227
M  V30 237 1 43 228
M  V30 238 1 44 229
M  V30 239 1 44 230
M  V30 240 1 45 231
M  V30 241 1 47 232
M  V30 242 1 48 233
M  V30 243 1 48 234
M  V30 244 1 49 235
M  V30 245 1 52 236 CFG=3
M  V30 246 1 53 237
M  V30 247 1 53 238
M  V30 248 1 54 239
M  V30 249 1 54 240
M  V30 250 1 55 241
M  V30 251 1 55 242
M  V30 252 1 56 243
M  V30 253 1 58 244
M  V30 254 1 59 245
M  V30 255 1 59 246
M  V30 256 1 60 247
M  V30 257 1 63 248 CFG=1
M  V30 258 1 64 249
M  V30 259 1 64 250
M  V30 260 1 65 251
M  V30 261 1 65 252
M  V30 262 1 66 253
M  V30 263 1 66 254
M  V30 264 1 67 255
M  V30 265 1 69 256
M  V30 266 1 70 257
M  V30 267 1 70 258
M  V30 268 1 71 259
M  V30 269 1 74 260 CFG=3
M  V30 270 1 75 261
M  V30 271 1 75 262
M  V30 272 1 76 263
M  V30 273 1 76 264
M  V30 274 1 77 265
M  V30 275 1 77 266
M  V30 276 1 78 267
M  V30 277 1 80 268
M  V30 278 1 81 269
M  V30 279 1 81 270
M  V30 280 1 82 271
M  V30 281 1 85 272 CFG=3
M  V30 282 1 86 273
M  V30 283 1 86 274
M  V30 284 1 87 275
M  V30 285 1 87 276
M  V30 286 1 88 277
M  V30 287 1 88 278
M  V30 288 1 89 279
M  V30 289 1 91 280
M  V30 290 1 92 281
M  V30 291 1 92 282
M  V30 292 1 93 283
M  V30 293 1 96 284 CFG=1
M  V30 294 1 97 285
M  V30 295 1 97 286
M  V30 296 1 98 287
M  V30 297 1 98 288
M  V30 298 1 99 289
M  V30 299 1 99 290
M  V30 300 1 100 291
M  V30 301 1 102 292
M  V30 302 1 103 293
M  V30 303 1 103 294
M  V30 304 1 104 295
M  V30 305 1 107 296 CFG=1
M  V30 306 1 108 297
M  V30 307 1 108 298
M  V30 308 1 110 299
M  V30 309 1 111 300
M  V30 310 1 116 301
M  V30 311 1 117 302
M  V30 312 1 118 303
M  V30 313 1 121 304 CFG=3
M  V30 314 1 122 305
M  V30 315 1 122 306
M  V30 316 1 124 307
M  V30 317 1 125 308
M  V30 318 1 130 309
M  V30 319 1 131 310
M  V30 320 1 132 311
M  V30 321 1 135 312
M  V30 322 1 135 313
M  V30 323 1 136 314
M  V30 324 1 136 315
M  V30 325 1 137 316
M  V30 326 1 141 317
M  V30 327 1 141 318
M  V30 328 1 143 319
M  V30 329 1 144 320
M  V30 330 1 145 321
M  V30 331 1 147 322
M  V30 332 1 150 323
M  V30 333 1 151 324
M  V30 334 1 154 325
M  V30 335 1 154 326
M  V30 336 1 155 327
M  V30 337 1 155 328
M  V30 338 1 156 329 CFG=1
M  V30 339 1 159 330
M  V30 340 1 160 331
M  V30 341 1 161 332
M  V30 342 1 166 333
M  V30 343 1 166 334
M  V30 344 1 167 335
M  V30 345 1 167 336
M  V30 346 1 169 337
M  V30 347 1 169 338
M  V30 348 1 172 339
M  V30 349 1 177 340
M  V30 350 1 178 341
M  V30 351 1 179 342
M  V30 END BOND
M  V30 END CTAB
M  END
>  <Dataset>  (170) 
ChEMBL_Kinases

>  <Ligand_Instance>  (170) 
nan

>  <PDB_ID>  (170) 
nan

>  <Standardized_SMILES>  (170) 
CCN1/C(=C/C=C/C2=[N+](CC)c3ccc(S(=O)(=O)O)cc3C2(C)C)C(C)(CCCC(=O)NCCCC[C@@H](NC(=O)[C@@H](CCCNC(=N)N)NC(=O)[C@@H](CCCNC(=N)N)NC(=O)[C@@H](CCCNC(=N)N)NC(=O)[C@@H](CCCNC(=N)N)NC(=O)[C@@H](CCCNC(=N)N)NC(=O)[C@@H](CCCNC(=N)N)NC(=O)[C@H](Cc2ccc(N=[N+]=[N-])cc2)NC(=O)[C@H](Cc2ccc(N=[N+]=[N-])cc2)NC(=O)CCNC(=O)[C@]2(Cc3cccc(Nc4nccs4)n3)CC[C@@H](Oc3cccc(Cl)c3F)CC2)C(N)=O)c2cc(S(=O)(=O)O)ccc21

>  <Name>  (170) 
nan

>  <Pocket>  (170) 
nan

>  <ATP_Site>  (170) 
nan

>  <Peripheral>  (170) 
nan

>  <Num_H_Atoms_ProtBoundConf>  (170) 
nan

>  <Num_Resolved_Atoms>  (170) 
nan

>  <Num_Not_Resolved_Atoms>  (170) 
nan

$$$$
CHEMBL3600868
     RDKit          3D

  0  0  0  0  0  0  0  0  0  0999 V3000
M  V30 BEGIN CTAB
M  V30 COUNTS 342 351 0 0 0
M  V30 BEGIN ATOM
M  V30 1 C -1.823144 -11.237463 -6.919073 0
M  V30 2 C -2.597151 -10.185146 -7.642584 0
M  V30 3 N -2.527015 -8.933247 -6.928622 0
M  V30 4 C -3.115342 -8.558128 -5.663562 0
M  V30 5 C -3.474706 -9.537296 -4.853347 0
M  V30 6 C -4.059808 -9.219190 -3.577586 0
M  V30 7 C -4.464404 -10.011017 -2.619719 0
M  V30 8 C -5.060707 -9.883959 -1.301018 0
M  V30 9 N -5.426320 -8.842994 -0.629053 0 CHG=1 VAL=4
M  V30 10 C -5.453026 -7.424584 -0.782982 0
M  V30 11 C -6.930165 -6.996562 -0.674267 0
M  V30 12 C -5.911093 -9.273524 0.646747 0
M  V30 13 C -6.418202 -8.705257 1.823776 0
M  V30 14 C -6.783546 -9.440698 2.935024 0
M  V30 15 C -6.666803 -10.810804 2.947206 0
M  V30 16 S -7.150281 -11.586412 4.425596 0
M  V30 17 O -8.258146 -10.767296 5.088737 0
M  V30 18 O -7.702691 -12.949613 4.164849 0
M  V30 19 O -5.832474 -11.732929 5.488630 0
M  V30 20 C -6.180100 -11.400404 1.826188 0
M  V30 21 C -5.832534 -10.631543 0.752532 0
M  V30 22 C -5.299879 -11.137086 -0.524395 0
M  V30 23 C -4.002612 -11.890077 -0.304974 0
M  V30 24 C -6.293093 -11.997136 -1.277307 0
M  V30 25 C -3.074510 -7.068044 -5.639217 0
M  V30 26 C -4.298105 -6.683355 -6.636144 0
M  V30 27 C -3.357542 -6.413340 -4.392385 0
M  V30 28 C -3.219439 -4.894736 -4.227605 0
M  V30 29 C -3.820117 -4.637447 -2.820445 0
M  V30 30 C -3.705307 -3.312270 -2.301280 0
M  V30 31 O -3.043517 -2.283818 -2.402904 0
M  V30 32 N -4.691970 -3.027312 -1.294225 0
M  V30 33 C -5.179847 -2.091078 -0.348414 0
M  V30 34 C -4.230737 -2.038585 0.876411 0
M  V30 35 C -4.812852 -1.060458 1.840719 0
M  V30 36 C -4.304317 -0.955117 3.190327 0
M  V30 37 C -2.969409 -0.663698 3.647675 0 CFG=1
M  V30 38 N -2.360851 0.564970 3.271772 0
M  V30 39 C -1.269823 0.882810 4.162782 0
M  V30 40 O -0.921818 0.152979 5.130597 0
M  V30 41 C -0.433797 2.162764 4.012382 0 CFG=2
M  V30 42 C 0.541636 1.853972 2.937191 0
M  V30 43 C 1.502048 2.935242 2.576975 0
M  V30 44 C 2.395979 2.381938 1.465946 0
M  V30 45 N 3.361259 3.386386 1.036879 0
M  V30 46 C 4.324934 3.093693 0.018607 0
M  V30 47 N 4.074431 2.130449 -0.794260 0
M  V30 48 N 5.492276 3.920781 0.007079 0
M  V30 49 N 0.286822 2.354793 5.270700 0
M  V30 50 C -0.519190 2.892642 6.333221 0
M  V30 51 O -1.668868 3.029879 5.850795 0
M  V30 52 C -0.081042 3.227231 7.754641 0 CFG=2
M  V30 53 C -0.421962 4.650565 8.022915 0
M  V30 54 C -1.862458 5.010699 7.942676 0
M  V30 55 C -2.150266 6.474866 8.205833 0
M  V30 56 N -1.741736 6.909837 9.507652 0
M  V30 57 C -2.088886 8.299167 9.663244 0
M  V30 58 N -2.673111 9.038171 8.778399 0
M  V30 59 N -1.778871 8.986533 10.898604 0
M  V30 60 N 1.352815 3.026761 7.792381 0
M  V30 61 C 2.094218 1.839587 7.770378 0
M  V30 62 O 1.401380 0.779406 7.700967 0
M  V30 63 C 3.539075 1.853284 7.814420 0 CFG=2
M  V30 64 C 4.258337 3.088370 7.435633 0
M  V30 65 C 4.037350 3.565547 6.043634 0
M  V30 66 C 4.833435 4.846742 5.781897 0
M  V30 67 N 4.598165 5.294273 4.433671 0
M  V30 68 C 5.332358 6.487376 4.082899 0
M  V30 69 N 6.459988 6.770178 4.700105 0
M  V30 70 N 4.940143 7.414400 3.075580 0
M  V30 71 N 4.097869 0.677829 7.180757 0
M  V30 72 C 5.083614 -0.306572 7.351258 0
M  V30 73 O 5.737699 -0.136794 8.404635 0
M  V30 74 C 5.377885 -1.405261 6.469510 0 CFG=2
M  V30 75 C 6.718825 -0.995273 5.822180 0
M  V30 76 C 6.640764 0.295798 5.063611 0
M  V30 77 C 8.043312 0.592723 4.546368 0
M  V30 78 N 8.172483 1.791207 3.794455 0
M  V30 79 C 7.607943 1.921549 2.501439 0
M  V30 80 N 6.637507 1.155751 2.080569 0
M  V30 81 N 8.172991 2.941559 1.691256 0
M  V30 82 N 4.404709 -1.778296 5.527237 0
M  V30 83 C 4.128302 -2.456367 4.282404 0
M  V30 84 O 5.239269 -2.828388 3.857588 0
M  V30 85 C 2.605302 -2.445116 4.000123 0 CFG=2
M  V30 86 C 2.110973 -3.383543 5.087997 0
M  V30 87 C 0.652861 -3.632533 5.175613 0
M  V30 88 C 0.509616 -4.675650 6.310943 0
M  V30 89 N -0.851339 -4.991311 6.550237 0
M  V30 90 C -1.718201 -4.053976 7.163118 0
M  V30 91 N -1.299538 -2.854487 7.347951 0
M  V30 92 N -2.998270 -4.590962 7.525132 0
M  V30 93 N 2.329638 -2.982793 2.704051 0
M  V30 94 C 1.949151 -2.235916 1.559835 0
M  V30 95 O 1.827659 -0.998874 1.503498 0
M  V30 96 C 1.632820 -2.814956 0.234284 0 CFG=2
M  V30 97 C 2.621970 -3.899662 -0.129529 0
M  V30 98 C 4.026027 -3.417618 -0.182225 0
M  V30 99 C 5.048398 -4.452736 -0.572746 0
M  V30 100 N 5.137459 -5.601730 0.258736 0
M  V30 101 C 4.096222 -6.584158 0.275094 0
M  V30 102 N 3.516391 -6.876021 -0.867908 0
M  V30 103 N 3.652453 -7.268897 1.419452 0
M  V30 104 N 1.424540 -1.853294 -0.786920 0
M  V30 105 C 0.214558 -1.458744 -1.502891 0
M  V30 106 O -0.554304 -2.222239 -0.876981 0
M  V30 107 C 0.551937 -0.447791 -2.504204 0 CFG=1
M  V30 108 C 1.621695 -1.039629 -3.443195 0
M  V30 109 C 2.029483 -0.149528 -4.530842 0
M  V30 110 C 1.275643 -0.305981 -5.709429 0
M  V30 111 C 1.443653 0.388725 -6.890437 0
M  V30 112 C 2.447421 1.335407 -6.932669 0
M  V30 113 N 2.634826 2.068842 -8.129611 0
M  V30 114 N 3.536734 1.655102 -8.897448 0 CHG=1 VAL=4
M  V30 115 N 4.352160 1.873342 -9.806252 0 CHG=-1 VAL=2
M  V30 116 C 3.210560 1.517767 -5.789851 0
M  V30 117 C 3.020238 0.806763 -4.622281 0
M  V30 118 N -0.495164 -0.000633 -3.382484 0
M  V30 119 C -1.006303 1.334730 -3.726704 0
M  V30 120 O -0.307886 2.068652 -2.992786 0
M  V30 121 C -2.073797 1.091761 -4.782659 0 CFG=1
M  V30 122 C -3.442254 0.894337 -4.274781 0
M  V30 123 C -3.985062 2.145610 -3.641003 0
M  V30 124 C -4.775315 2.844239 -4.581138 0
M  V30 125 C -5.392025 4.084405 -4.355724 0
M  V30 126 C -5.204005 4.656500 -3.112417 0
M  V30 127 N -5.777535 5.928356 -2.765812 0
M  V30 128 N -5.013428 6.769207 -2.237407 0 CHG=1 VAL=4
M  V30 129 N -4.135409 7.653308 -2.082011 0 CHG=-1 VAL=2
M  V30 130 C -4.432808 3.957502 -2.218409 0
M  V30 131 C -3.824583 2.743330 -2.424271 0
M  V30 132 N -2.122430 2.454693 -5.477462 0
M  V30 133 C -0.973703 3.223337 -5.674089 0
M  V30 134 O 0.249713 3.024295 -5.339504 0
M  V30 135 C -0.546509 4.472970 -6.263440 0
M  V30 136 C 0.750656 5.041671 -5.806994 0
M  V30 137 N 0.739317 5.454027 -4.398023 0
M  V30 138 C 1.988707 5.978015 -4.006222 0
M  V30 139 O 2.650668 5.830211 -5.116141 0
M  V30 140 C 2.897405 6.582514 -3.034822 0 CFG=2
M  V30 141 C 2.966782 5.831145 -1.718905 0
M  V30 142 C 1.739230 5.793953 -0.930201 0
M  V30 143 C 1.743643 6.888300 -0.034597 0
M  V30 144 C 0.744779 7.194504 0.901757 0
M  V30 145 C -0.314952 6.303409 0.898076 0
M  V30 146 C -0.344301 5.228233 0.036421 0
M  V30 147 N -1.408279 4.287266 0.059492 0
M  V30 148 C -2.462364 4.125527 0.970430 0
M  V30 149 N -3.389331 3.304975 0.912651 0
M  V30 150 C -4.325542 3.223144 1.813065 0
M  V30 151 C -4.266841 4.166246 2.965047 0
M  V30 152 S -2.700321 5.087807 2.467360 0
M  V30 153 N 0.651005 5.031819 -0.808717 0
M  V30 154 C 2.428799 8.017167 -2.713003 0
M  V30 155 C 2.448614 8.845153 -3.949879 0
M  V30 156 C 3.771935 8.771323 -4.713858 0 CFG=1
M  V30 157 O 4.190674 10.053452 -5.096995 0
M  V30 158 C 3.977609 10.564922 -6.349725 0
M  V30 159 C 4.544994 11.830658 -6.482483 0
M  V30 160 C 4.476588 12.580546 -7.646639 0
M  V30 161 C 3.825268 12.093316 -8.759176 0
M  V30 162 C 3.251341 10.839765 -8.659899 0
M  V30 163 Cl 2.395681 10.130634 -10.011161 0
M  V30 164 C 3.341947 10.132811 -7.491909 0
M  V30 165 F 2.762008 8.929197 -7.444457 0
M  V30 166 C 4.768734 8.068824 -3.848112 0
M  V30 167 C 4.298724 6.660658 -3.580624 0
M  V30 168 C -3.186288 -0.509661 5.240784 0
M  V30 169 N -3.809040 -1.717648 5.702500 0
M  V30 170 O -3.253145 -0.175179 6.445074 0
M  V30 171 C -1.938197 -6.641897 -6.435133 0
M  V30 172 C -1.096441 -5.603642 -6.703172 0
M  V30 173 C -0.187115 -5.536597 -7.732182 0
M  V30 174 S 0.857710 -4.157652 -8.005962 0
M  V30 175 O 2.204320 -4.647972 -8.419163 0
M  V30 176 O 1.057625 -3.520635 -6.636337 0
M  V30 177 O 0.195661 -3.062869 -9.072303 0
M  V30 178 C -0.101868 -6.612002 -8.590500 0
M  V30 179 C -0.917774 -7.718615 -8.392719 0
M  V30 180 C -1.820296 -7.723712 -7.318369 0
M  V30 181 H -2.416017 -12.114140 -6.586885 0
M  V30 182 H -1.060393 -11.685100 -7.631305 0
M  V30 183 H -1.251848 -10.853103 -6.038881 0
M  V30 184 H -2.255283 -10.066361 -8.689213 0
M  V30 185 H -3.672256 -10.507778 -7.651564 0
M  V30 186 H -3.389325 -10.588286 -5.048446 0
M  V30 187 H -4.319441 -8.363913 -3.056013 0
M  V30 188 H -4.269769 -11.038110 -2.963633 0
M  V30 189 H -4.971525 -6.903897 0.105861 0
M  V30 190 H -5.054022 -6.977274 -1.667390 0
M  V30 191 H -7.052777 -6.173953 0.033992 0
M  V30 192 H -7.546215 -7.838510 -0.304785 0
M  V30 193 H -7.271121 -6.677002 -1.687107 0
M  V30 194 H -6.534235 -7.625248 1.855534 0
M  V30 195 H -7.157130 -8.862273 3.777055 0
M  V30 196 H -5.814308 -10.905415 6.026273 0
M  V30 197 H -6.093830 -12.467482 1.871767 0
M  V30 198 H -3.357262 -11.767175 -1.188792 0
M  V30 199 H -4.211564 -12.974783 -0.102226 0
M  V30 200 H -3.474426 -11.417621 0.556440 0
M  V30 201 H -6.714052 -12.722003 -0.570748 0
M  V30 202 H -7.091560 -11.343197 -1.705911 0
M  V30 203 H -5.768192 -12.470037 -2.130466 0
M  V30 204 H -4.246921 -5.619538 -6.818877 0
M  V30 205 H -4.014860 -7.247134 -7.533723 0
M  V30 206 H -5.206334 -7.064584 -6.211250 0
M  V30 207 H -2.763028 -6.816462 -3.540820 0
M  V30 208 H -4.453905 -6.565088 -4.073358 0
M  V30 209 H -2.179314 -4.561755 -4.124948 0
M  V30 210 H -3.727485 -4.319531 -4.991246 0
M  V30 211 H -4.891922 -4.982634 -2.887463 0
M  V30 212 H -3.320003 -5.410714 -2.175080 0
M  V30 213 H -5.406334 -3.816329 -1.110358 0
M  V30 214 H -5.081371 -1.059741 -0.810407 0
M  V30 215 H -6.217574 -2.171746 -0.054569 0
M  V30 216 H -4.050760 -3.041328 1.258405 0
M  V30 217 H -3.278876 -1.639983 0.438005 0
M  V30 218 H -5.931762 -1.299533 1.897822 0
M  V30 219 H -4.805950 -0.039811 1.317219 0
M  V30 220 H -5.032746 -0.214219 3.737285 0
M  V30 221 H -4.644497 -1.959244 3.711573 0
M  V30 222 H -2.257923 -1.474241 3.680255 0
M  V30 223 H -2.439305 1.304127 2.554424 0
M  V30 224 H -1.113507 2.983468 3.841318 0
M  V30 225 H 1.140358 0.960396 3.227083 0
M  V30 226 H -0.038364 1.583231 2.039889 0
M  V30 227 H 2.110155 3.307807 3.427496 0
M  V30 228 H 0.977844 3.804181 2.149667 0
M  V30 229 H 2.922636 1.462862 1.806896 0
M  V30 230 H 1.758462 2.142572 0.608291 0
M  V30 231 H 3.365661 4.321800 1.460454 0
M  V30 232 H 4.690792 1.821731 -1.572729 0
M  V30 233 H 5.843134 4.364996 0.876886 0
M  V30 234 H 6.074382 4.150852 -0.831719 0
M  V30 235 H 1.275413 2.148465 5.438513 0
M  V30 236 H -0.613312 2.491450 8.411889 0
M  V30 237 H 0.034558 4.978267 9.010947 0
M  V30 238 H 0.115290 5.318306 7.279972 0
M  V30 239 H -2.327452 4.746425 6.983198 0
M  V30 240 H -2.391842 4.410326 8.716277 0
M  V30 241 H -1.672458 7.117280 7.411530 0
M  V30 242 H -3.256730 6.661328 8.128416 0
M  V30 243 H -1.271983 6.377687 10.268083 0
M  V30 244 H -2.913907 10.042404 8.919902 0
M  V30 245 H -2.420695 9.719341 11.266679 0
M  V30 246 H -1.470243 9.426200 11.800122 0
M  V30 247 H 1.916392 3.918346 7.855594 0
M  V30 248 H 3.794889 1.764866 8.959121 0
M  V30 249 H 5.370192 2.847309 7.503053 0
M  V30 250 H 4.160064 3.906863 8.193566 0
M  V30 251 H 2.989178 3.736815 5.798972 0
M  V30 252 H 4.426154 2.838788 5.272940 0
M  V30 253 H 4.530711 5.670806 6.470982 0
M  V30 254 H 5.890498 4.576047 5.894374 0
M  V30 255 H 3.986254 4.898554 3.689182 0
M  V30 256 H 7.007887 7.640628 4.451091 0
M  V30 257 H 5.290458 7.735854 2.154453 0
M  V30 258 H 4.099620 8.027367 3.089179 0
M  V30 259 H 3.540569 0.595235 6.276302 0
M  V30 260 H 5.728421 -2.311618 7.042165 0
M  V30 261 H 7.175538 -1.822024 5.285323 0
M  V30 262 H 7.373813 -0.799465 6.699959 0
M  V30 263 H 6.404283 1.105795 5.799554 0
M  V30 264 H 5.888531 0.328793 4.278631 0
M  V30 265 H 8.370565 -0.280422 3.917947 0
M  V30 266 H 8.772817 0.603257 5.395855 0
M  V30 267 H 8.708227 2.620527 4.195169 0
M  V30 268 H 6.248480 1.277156 1.117146 0
M  V30 269 H 8.877616 2.492064 1.049905 0
M  V30 270 H 8.663626 3.555607 1.047463 0
M  V30 271 H 3.548604 -1.357433 6.016664 0
M  V30 272 H 2.253076 -1.443141 4.200121 0
M  V30 273 H 2.532445 -3.087886 6.081857 0
M  V30 274 H 2.628740 -4.375382 4.875249 0
M  V30 275 H 0.287297 -4.133998 4.259756 0
M  V30 276 H 0.093452 -2.737530 5.440059 0
M  V30 277 H 0.967264 -4.162446 7.192041 0
M  V30 278 H 1.141144 -5.563089 6.056166 0
M  V30 279 H -1.161207 -5.937709 6.250556 0
M  V30 280 H -1.903940 -2.150425 7.790827 0
M  V30 281 H -3.357536 -4.513004 8.504334 0
M  V30 282 H -3.674714 -5.092996 6.914036 0
M  V30 283 H 2.416020 -4.011670 2.563030 0
M  V30 284 H 0.638702 -3.368402 0.411701 0
M  V30 285 H 2.473350 -4.771223 0.557853 0
M  V30 286 H 2.322185 -4.301976 -1.142119 0
M  V30 287 H 4.327394 -2.826887 0.723050 0
M  V30 288 H 4.069296 -2.643130 -1.011041 0
M  V30 289 H 6.062963 -3.984517 -0.606085 0
M  V30 290 H 4.826616 -4.761635 -1.616346 0
M  V30 291 H 5.932578 -5.819537 0.906016 0
M  V30 292 H 2.739113 -7.594369 -0.923753 0
M  V30 293 H 2.663353 -7.381149 1.791681 0
M  V30 294 H 4.092705 -7.837510 2.204440 0
M  V30 295 H 2.433100 -1.512271 -0.843409 0
M  V30 296 H 0.962717 0.452956 -1.999689 0
M  V30 297 H 2.501378 -1.274046 -2.816963 0
M  V30 298 H 1.276906 -2.003264 -3.868092 0
M  V30 299 H 0.456688 -1.032933 -5.743183 0
M  V30 300 H 0.850270 0.234157 -7.751901 0
M  V30 301 H 3.998802 2.257059 -5.798665 0
M  V30 302 H 3.575097 0.895954 -3.713109 0
M  V30 303 H -0.833046 -0.942292 -3.732148 0
M  V30 304 H -1.725966 0.419969 -5.534433 0
M  V30 305 H -3.428062 0.089011 -3.498924 0
M  V30 306 H -4.154383 0.544797 -5.028318 0
M  V30 307 H -5.023555 2.516903 -5.587713 0
M  V30 308 H -5.984442 4.611220 -5.086901 0
M  V30 309 H -4.316167 4.464067 -1.279555 0
M  V30 310 H -3.218301 2.167829 -1.764698 0
M  V30 311 H -2.778096 3.125243 -5.935396 0
M  V30 312 H -0.453607 4.299950 -7.375461 0
M  V30 313 H -1.366102 5.221083 -6.133692 0
M  V30 314 H 1.560834 4.296560 -5.981324 0
M  V30 315 H 0.959775 5.932149 -6.424091 0
M  V30 316 H 0.196556 5.544497 -3.489529 0
M  V30 317 H 3.281442 4.771059 -2.041896 0
M  V30 318 H 3.821456 6.144296 -1.088227 0
M  V30 319 H 2.546744 7.650975 0.058278 0
M  V30 320 H 0.765263 8.035811 1.575986 0
M  V30 321 H -1.076571 6.542207 1.605737 0
M  V30 322 H -1.397033 3.594721 -0.751657 0
M  V30 323 H -5.065043 2.425888 1.578480 0
M  V30 324 H -5.286654 3.839660 3.642564 0
M  V30 325 H 1.437784 7.938416 -2.280482 0
M  V30 326 H 3.160642 8.431251 -2.021028 0
M  V30 327 H 2.352193 9.913094 -3.627947 0
M  V30 328 H 1.629499 8.685199 -4.651935 0
M  V30 329 H 3.604938 8.198451 -5.626088 0
M  V30 330 H 5.086196 12.375391 -5.718989 0
M  V30 331 H 4.905207 13.558289 -7.800289 0
M  V30 332 H 3.712433 12.581707 -9.700825 0
M  V30 333 H 5.749431 7.931167 -4.412892 0
M  V30 334 H 4.946954 8.610468 -2.904083 0
M  V30 335 H 5.051343 6.227641 -2.866269 0
M  V30 336 H 4.455667 6.086690 -4.515380 0
M  V30 337 H -4.251488 -2.586364 6.057567 0
M  V30 338 H -4.345691 -2.626388 5.741933 0
M  V30 339 H -1.102907 -4.740214 -6.098725 0
M  V30 340 H 0.900861 -2.423706 -9.337310 0
M  V30 341 H 0.608737 -6.566806 -9.402794 0
M  V30 342 H -0.769715 -8.486617 -9.119480 0
M  V30 END ATOM
M  V30 BEGIN BOND
M  V30 1 1 1 2
M  V30 2 1 2 3
M  V30 3 1 3 4
M  V30 4 2 4 5
M  V30 5 1 5 6
M  V30 6 2 6 7
M  V30 7 1 7 8
M  V30 8 2 8 9
M  V30 9 1 9 10
M  V30 10 1 10 11
M  V30 11 1 9 12
M  V30 12 2 12 13
M  V30 13 1 13 14
M  V30 14 2 14 15
M  V30 15 1 15 16
M  V30 16 2 16 17
M  V30 17 2 16 18
M  V30 18 1 16 19
M  V30 19 1 15 20
M  V30 20 2 20 21
M  V30 21 1 21 22
M  V30 22 1 22 23
M  V30 23 1 22 24
M  V30 24 1 4 25
M  V30 25 1 25 26
M  V30 26 1 25 27
M  V30 27 1 27 28
M  V30 28 1 28 29
M  V30 29 1 29 30
M  V30 30 2 30 31
M  V30 31 1 30 32
M  V30 32 1 32 33
M  V30 33 1 33 34
M  V30 34 1 34 35
M  V30 35 1 35 36
M  V30 36 1 36 37
M  V30 37 1 37 38
M  V30 38 1 38 39
M  V30 39 2 39 40
M  V30 40 1 39 41
M  V30 41 1 41 42
M  V30 42 1 42 43
M  V30 43 1 43 44
M  V30 44 1 44 45
M  V30 45 1 45 46
M  V30 46 2 46 47 CFG=2
M  V30 47 1 46 48
M  V30 48 1 41 49
M  V30 49 1 49 50
M  V30 50 2 50 51
M  V30 51 1 50 52
M  V30 52 1 52 53
M  V30 53 1 53 54
M  V30 54 1 54 55
M  V30 55 1 55 56
M  V30 56 1 56 57
M  V30 57 2 57 58 CFG=2
M  V30 58 1 57 59
M  V30 59 1 52 60
M  V30 60 1 60 61
M  V30 61 2 61 62
M  V30 62 1 61 63
M  V30 63 1 63 64
M  V30 64 1 64 65
M  V30 65 1 65 66
M  V30 66 1 66 67
M  V30 67 1 67 68
M  V30 68 2 68 69 CFG=2
M  V30 69 1 68 70
M  V30 70 1 63 71
M  V30 71 1 71 72
M  V30 72 2 72 73
M  V30 73 1 72 74
M  V30 74 1 74 75
M  V30 75 1 75 76
M  V30 76 1 76 77
M  V30 77 1 77 78
M  V30 78 1 78 79
M  V30 79 2 79 80 CFG=2
M  V30 80 1 79 81
M  V30 81 1 74 82
M  V30 82 1 82 83
M  V30 83 2 83 84
M  V30 84 1 83 85
M  V30 85 1 85 86
M  V30 86 1 86 87
M  V30 87 1 87 88
M  V30 88 1 88 89
M  V30 89 1 89 90
M  V30 90 2 90 91 CFG=2
M  V30 91 1 90 92
M  V30 92 1 85 93
M  V30 93 1 93 94
M  V30 94 2 94 95
M  V30 95 1 94 96
M  V30 96 1 96 97
M  V30 97 1 97 98
M  V30 98 1 98 99
M  V30 99 1 99 100
M  V30 100 1 100 101
M  V30 101 2 101 102 CFG=2
M  V30 102 1 101 103
M  V30 103 1 96 104
M  V30 104 1 104 105
M  V30 105 2 105 106
M  V30 106 1 105 107
M  V30 107 1 107 108
M  V30 108 1 108 109
M  V30 109 2 109 110
M  V30 110 1 110 111
M  V30 111 2 111 112
M  V30 112 1 112 113
M  V30 113 2 113 114
M  V30 114 2 114 115
M  V30 115 1 112 116
M  V30 116 2 116 117
M  V30 117 1 107 118
M  V30 118 1 118 119
M  V30 119 2 119 120
M  V30 120 1 119 121
M  V30 121 1 121 122
M  V30 122 1 122 123
M  V30 123 2 123 124
M  V30 124 1 124 125
M  V30 125 2 125 126
M  V30 126 1 126 127
M  V30 127 2 127 128
M  V30 128 2 128 129
M  V30 129 1 126 130
M  V30 130 2 130 131
M  V30 131 1 121 132
M  V30 132 1 132 133
M  V30 133 2 133 134
M  V30 134 1 133 135
M  V30 135 1 135 136
M  V30 136 1 136 137
M  V30 137 1 137 138
M  V30 138 2 138 139
M  V30 139 1 138 140
M  V30 140 1 140 141 CFG=1
M  V30 141 1 141 142
M  V30 142 2 142 143
M  V30 143 1 143 144
M  V30 144 2 144 145
M  V30 145 1 145 146
M  V30 146 1 146 147
M  V30 147 1 147 148
M  V30 148 2 148 149
M  V30 149 1 149 150
M  V30 150 2 150 151
M  V30 151 1 151 152
M  V30 152 2 146 153
M  V30 153 1 140 154
M  V30 154 1 154 155
M  V30 155 1 155 156
M  V30 156 1 156 157
M  V30 157 1 157 158
M  V30 158 2 158 159
M  V30 159 1 159 160
M  V30 160 2 160 161
M  V30 161 1 161 162
M  V30 162 1 162 163
M  V30 163 2 162 164
M  V30 164 1 164 165
M  V30 165 1 156 166
M  V30 166 1 166 167
M  V30 167 1 37 168
M  V30 168 1 168 169
M  V30 169 2 168 170
M  V30 170 1 25 171
M  V30 171 2 171 172
M  V30 172 1 172 173
M  V30 173 1 173 174
M  V30 174 2 174 175
M  V30 175 2 174 176
M  V30 176 1 174 177
M  V30 177 2 173 178
M  V30 178 1 178 179
M  V30 179 2 179 180
M  V30 180 1 180 3
M  V30 181 1 22 8
M  V30 182 1 117 109
M  V30 183 1 131 123
M  V30 184 1 167 140
M  V30 185 1 180 171
M  V30 186 1 21 12
M  V30 187 1 153 142
M  V30 188 1 164 158
M  V30 189 1 152 148
M  V30 190 1 1 181
M  V30 191 1 1 182
M  V30 192 1 1 183
M  V30 193 1 2 184
M  V30 194 1 2 185
M  V30 195 1 5 186
M  V30 196 1 6 187
M  V30 197 1 7 188
M  V30 198 1 10 189
M  V30 199 1 10 190
M  V30 200 1 11 191
M  V30 201 1 11 192
M  V30 202 1 11 193
M  V30 203 1 13 194
M  V30 204 1 14 195
M  V30 205 1 19 196
M  V30 206 1 20 197
M  V30 207 1 23 198
M  V30 208 1 23 199
M  V30 209 1 23 200
M  V30 210 1 24 201
M  V30 211 1 24 202
M  V30 212 1 24 203
M  V30 213 1 26 204
M  V30 214 1 26 205
M  V30 215 1 26 206
M  V30 216 1 27 207
M  V30 217 1 27 208
M  V30 218 1 28 209
M  V30 219 1 28 210
M  V30 220 1 29 211
M  V30 221 1 29 212
M  V30 222 1 32 213
M  V30 223 1 33 214
M  V30 224 1 33 215
M  V30 225 1 34 216
M  V30 226 1 34 217
M  V30 227 1 35 218
M  V30 228 1 35 219
M  V30 229 1 36 220
M  V30 230 1 36 221
M  V30 231 1 37 222 CFG=1
M  V30 232 1 38 223
M  V30 233 1 41 224 CFG=3
M  V30 234 1 42 225
M  V30 235 1 42 226
M  V30 236 1 43 227
M  V30 237 1 43 228
M  V30 238 1 44 229
M  V30 239 1 44 230
M  V30 240 1 45 231
M  V30 241 1 47 232
M  V30 242 1 48 233
M  V30 243 1 48 234
M  V30 244 1 49 235
M  V30 245 1 52 236 CFG=1
M  V30 246 1 53 237
M  V30 247 1 53 238
M  V30 248 1 54 239
M  V30 249 1 54 240
M  V30 250 1 55 241
M  V30 251 1 55 242
M  V30 252 1 56 243
M  V30 253 1 58 244
M  V30 254 1 59 245
M  V30 255 1 59 246
M  V30 256 1 60 247
M  V30 257 1 63 248 CFG=1
M  V30 258 1 64 249
M  V30 259 1 64 250
M  V30 260 1 65 251
M  V30 261 1 65 252
M  V30 262 1 66 253
M  V30 263 1 66 254
M  V30 264 1 67 255
M  V30 265 1 69 256
M  V30 266 1 70 257
M  V30 267 1 70 258
M  V30 268 1 71 259
M  V30 269 1 74 260 CFG=1
M  V30 270 1 75 261
M  V30 271 1 75 262
M  V30 272 1 76 263
M  V30 273 1 76 264
M  V30 274 1 77 265
M  V30 275 1 77 266
M  V30 276 1 78 267
M  V30 277 1 80 268
M  V30 278 1 81 269
M  V30 279 1 81 270
M  V30 280 1 82 271
M  V30 281 1 85 272 CFG=3
M  V30 282 1 86 273
M  V30 283 1 86 274
M  V30 284 1 87 275
M  V30 285 1 87 276
M  V30 286 1 88 277
M  V30 287 1 88 278
M  V30 288 1 89 279
M  V30 289 1 91 280
M  V30 290 1 92 281
M  V30 291 1 92 282
M  V30 292 1 93 283
M  V30 293 1 96 284 CFG=1
M  V30 294 1 97 285
M  V30 295 1 97 286
M  V30 296 1 98 287
M  V30 297 1 98 288
M  V30 298 1 99 289
M  V30 299 1 99 290
M  V30 300 1 100 291
M  V30 301 1 102 292
M  V30 302 1 103 293
M  V30 303 1 103 294
M  V30 304 1 104 295
M  V30 305 1 107 296 CFG=1
M  V30 306 1 108 297
M  V30 307 1 108 298
M  V30 308 1 110 299
M  V30 309 1 111 300
M  V30 310 1 116 301
M  V30 311 1 117 302
M  V30 312 1 118 303
M  V30 313 1 121 304 CFG=3
M  V30 314 1 122 305
M  V30 315 1 122 306
M  V30 316 1 124 307
M  V30 317 1 125 308
M  V30 318 1 130 309
M  V30 319 1 131 310
M  V30 320 1 132 311
M  V30 321 1 135 312
M  V30 322 1 135 313
M  V30 323 1 136 314
M  V30 324 1 136 315
M  V30 325 1 137 316
M  V30 326 1 141 317
M  V30 327 1 141 318
M  V30 328 1 143 319
M  V30 329 1 144 320
M  V30 330 1 145 321
M  V30 331 1 147 322
M  V30 332 1 150 323
M  V30 333 1 151 324
M  V30 334 1 154 325
M  V30 335 1 154 326
M  V30 336 1 155 327
M  V30 337 1 155 328
M  V30 338 1 156 329 CFG=3
M  V30 339 1 159 330
M  V30 340 1 160 331
M  V30 341 1 161 332
M  V30 342 1 166 333
M  V30 343 1 166 334
M  V30 344 1 167 335
M  V30 345 1 167 336
M  V30 346 1 169 337
M  V30 347 1 169 338
M  V30 348 1 172 339
M  V30 349 1 177 340
M  V30 350 1 178 341
M  V30 351 1 179 342
M  V30 END BOND
M  V30 END CTAB
M  END
>  <Dataset>  (171) 
ChEMBL_Kinases

>  <Ligand_Instance>  (171) 
nan

>  <PDB_ID>  (171) 
nan

>  <Standardized_SMILES>  (171) 
CCN1/C(=C/C=C/C2=[N+](CC)c3ccc(S(=O)(=O)O)cc3C2(C)C)C(C)(CCCC(=O)NCCCC[C@@H](NC(=O)[C@H](CCCNC(=N)N)NC(=O)[C@H](CCCNC(=N)N)NC(=O)[C@H](CCCNC(=N)N)NC(=O)[C@H](CCCNC(=N)N)NC(=O)[C@H](CCCNC(=N)N)NC(=O)[C@H](CCCNC(=N)N)NC(=O)[C@@H](Cc2ccc(N=[N+]=[N-])cc2)NC(=O)[C@@H](Cc2ccc(N=[N+]=[N-])cc2)NC(=O)CCNC(=O)[C@]2(Cc3cccc(Nc4nccs4)n3)CC[C@@H](Oc3cccc(Cl)c3F)CC2)C(N)=O)c2cc(S(=O)(=O)O)ccc21

>  <Name>  (171) 
nan

>  <Pocket>  (171) 
nan

>  <ATP_Site>  (171) 
nan

>  <Peripheral>  (171) 
nan

>  <Num_H_Atoms_ProtBoundConf>  (171) 
nan

>  <Num_Resolved_Atoms>  (171) 
nan

>  <Num_Not_Resolved_Atoms>  (171) 
nan

$$$$
CHEMBL3600869
     RDKit          3D

  0  0  0  0  0  0  0  0  0  0999 V3000
M  V30 BEGIN CTAB
M  V30 COUNTS 342 351 0 0 0
M  V30 BEGIN ATOM
M  V30 1 C 8.064595 5.426489 -5.527710 0
M  V30 2 C 7.940741 4.652709 -4.228882 0
M  V30 3 N 6.940565 5.289047 -3.359799 0
M  V30 4 C 5.521365 5.288402 -3.664737 0
M  V30 5 C 4.978356 5.054762 -4.859915 0
M  V30 6 C 3.501464 5.239639 -4.599024 0
M  V30 7 C 2.926481 4.996456 -5.769683 0
M  V30 8 C 1.669785 4.912280 -6.574273 0
M  V30 9 N 1.408961 4.527645 -7.785974 0 CHG=1 VAL=4
M  V30 10 C 2.411188 4.016469 -8.737603 0
M  V30 11 C 2.162698 2.565873 -9.054903 0
M  V30 12 C 0.016695 4.797970 -7.965858 0
M  V30 13 C -0.568624 4.544651 -9.173229 0
M  V30 14 C -1.934464 4.926735 -9.190316 0
M  V30 15 C -2.636039 5.486700 -8.159685 0
M  V30 16 S -4.306658 5.921769 -8.400650 0
M  V30 17 O -4.935842 4.941167 -9.334368 0
M  V30 18 O -5.029368 5.939566 -7.077458 0
M  V30 19 O -4.396312 7.452970 -9.123565 0
M  V30 20 C -1.918916 5.687134 -6.999765 0
M  V30 21 C -0.600357 5.340377 -6.918370 0
M  V30 22 C 0.447962 5.406452 -5.845888 0
M  V30 23 C 0.579522 6.855879 -5.473390 0
M  V30 24 C -0.056645 4.526324 -4.761975 0
M  V30 25 C 5.021570 5.427016 -2.289950 0
M  V30 26 C 5.621044 4.186883 -1.530890 0
M  V30 27 C 3.601340 5.434152 -1.981650 0
M  V30 28 C 3.465430 5.330166 -0.446554 0
M  V30 29 C 2.017485 5.100557 -0.063511 0
M  V30 30 C 1.881911 4.762917 1.403623 0
M  V30 31 O 1.825179 5.276359 2.561254 0
M  V30 32 N 1.793534 3.389859 1.808149 0
M  V30 33 C 1.695427 2.089417 2.325874 0
M  V30 34 C 0.448801 1.579200 2.967211 0
M  V30 35 C 0.745063 0.082168 3.306651 0
M  V30 36 C -0.424791 -0.607384 3.834722 0
M  V30 37 C -0.212911 -2.102846 4.111566 0 CFG=1
M  V30 38 N 0.186786 -2.703016 2.794839 0
M  V30 39 C -0.581867 -3.677860 1.968858 0
M  V30 40 O -1.593869 -3.779030 2.685987 0
M  V30 41 C 0.431325 -3.867927 0.810705 0 CFG=1
M  V30 42 C 1.554230 -4.535295 1.491484 0
M  V30 43 C 2.819863 -4.864695 0.870407 0
M  V30 44 C 2.917498 -5.768233 -0.304662 0
M  V30 45 N 2.362514 -5.292006 -1.535998 0
M  V30 46 C 2.540338 -6.247957 -2.628482 0
M  V30 47 N 2.455412 -7.488966 -2.385732 0
M  V30 48 N 2.829603 -5.761126 -3.960659 0
M  V30 49 N -0.157946 -4.776797 -0.143742 0
M  V30 50 C -1.133085 -4.279775 -1.023064 0
M  V30 51 O -1.469347 -3.046357 -0.889016 0
M  V30 52 C -2.104339 -4.204270 -2.072760 0 CFG=1
M  V30 53 C -2.882364 -5.421463 -2.461693 0
M  V30 54 C -2.053014 -6.549712 -3.071848 0
M  V30 55 C -1.393076 -6.037569 -4.342408 0
M  V30 56 N -0.664185 -7.150632 -4.971427 0
M  V30 57 C 0.067515 -6.578907 -6.074656 0
M  V30 58 N 0.668252 -5.421258 -6.264615 0
M  V30 59 N 0.255062 -7.411511 -7.276799 0
M  V30 60 N -2.907733 -3.013968 -2.051871 0
M  V30 61 C -4.292879 -2.922805 -1.637736 0
M  V30 62 O -4.972610 -3.863156 -1.200334 0
M  V30 63 C -4.772748 -1.455609 -1.843640 0 CFG=1
M  V30 64 C -4.974179 -1.348795 -3.322301 0
M  V30 65 C -5.273030 -0.137771 -4.037936 0
M  V30 66 C -6.390887 0.766295 -3.896885 0
M  V30 67 N -6.590172 1.517950 -2.704705 0
M  V30 68 C -5.653077 2.617266 -2.545775 0
M  V30 69 N -4.458402 2.527360 -3.016168 0
M  V30 70 N -5.994575 3.870747 -1.876967 0
M  V30 71 N -6.010594 -1.359517 -1.133782 0
M  V30 72 C -7.403660 -1.399963 -1.304804 0
M  V30 73 O -7.817371 -1.607467 -2.435888 0
M  V30 74 C -8.461420 -1.217182 -0.271734 0 CFG=1
M  V30 75 C -9.616970 -2.122607 -0.540058 0
M  V30 76 C -10.814016 -1.953964 0.321588 0
M  V30 77 C -10.600919 -2.148379 1.759161 0
M  V30 78 N -11.919770 -1.991142 2.459820 0
M  V30 79 C -12.807220 -3.115764 2.175770 0
M  V30 80 N -12.707609 -4.203070 1.598604 0
M  V30 81 N -14.043727 -2.727514 2.802560 0
M  V30 82 N -7.852623 -1.313499 1.015008 0
M  V30 83 C -7.509263 -2.485947 1.787416 0
M  V30 84 O -7.760958 -3.606475 1.231572 0
M  V30 85 C -6.919752 -2.670506 3.124253 0 CFG=1
M  V30 86 C -6.352892 -3.995485 3.391097 0
M  V30 87 C -5.268228 -4.477292 2.462370 0
M  V30 88 C -4.805043 -5.881164 2.790856 0
M  V30 89 N -3.803238 -6.297091 1.805665 0
M  V30 90 C -3.336943 -7.627685 2.022715 0
M  V30 91 N -3.382337 -8.155348 3.208780 0
M  V30 92 N -2.834294 -8.397094 0.933593 0
M  V30 93 N -6.375597 -1.524589 3.749418 0
M  V30 94 C -5.443564 -0.548393 3.460867 0
M  V30 95 O -4.813313 -0.588068 2.345932 0
M  V30 96 C -4.582297 0.580895 3.490668 0 CFG=1
M  V30 97 C -3.711128 0.659279 4.752305 0
M  V30 98 C -4.537779 0.879282 5.953840 0
M  V30 99 C -3.745255 0.999833 7.256016 0
M  V30 100 N -2.770045 2.043945 7.181833 0
M  V30 101 C -2.003624 2.645069 8.277346 0
M  V30 102 N -2.936631 3.079995 9.132302 0
M  V30 103 N -0.593909 2.679463 8.246579 0
M  V30 104 N -3.745996 0.823532 2.343783 0
M  V30 105 C -3.998586 1.945903 1.537426 0
M  V30 106 O -4.987933 2.734043 1.714010 0
M  V30 107 C -3.244524 2.481783 0.385845 0 CFG=1
M  V30 108 C -2.489636 3.706845 1.061447 0
M  V30 109 C -3.504080 4.648841 1.614206 0
M  V30 110 C -4.030242 5.575972 0.790286 0
M  V30 111 C -4.980638 6.597049 0.998499 0
M  V30 112 C -5.412566 6.580729 2.328959 0
M  V30 113 N -6.418388 7.596942 2.570264 0
M  V30 114 N -7.426595 7.530411 1.830057 0 CHG=1 VAL=4
M  V30 115 N -8.282501 7.939445 1.020656 0 CHG=-1 VAL=2
M  V30 116 C -4.957072 5.691793 3.271341 0
M  V30 117 C -4.019932 4.745053 2.920449 0
M  V30 118 N -2.258082 1.558643 -0.120943 0
M  V30 119 C -0.969315 1.747516 -0.682286 0
M  V30 120 O -0.477930 2.864910 -0.757447 0
M  V30 121 C -0.026071 0.790370 -1.237241 0 CFG=1
M  V30 122 C -0.416575 0.553342 -2.733666 0
M  V30 123 C 0.517924 -0.320075 -3.445714 0
M  V30 124 C 1.507662 0.448787 -4.097763 0
M  V30 125 C 2.566934 -0.023618 -4.894799 0
M  V30 126 C 2.613568 -1.402485 -5.033947 0
M  V30 127 N 3.682231 -1.902228 -5.825219 0
M  V30 128 N 4.878144 -1.643195 -5.569478 0 CHG=1 VAL=4
M  V30 129 N 5.978620 -1.108950 -5.633955 0 CHG=-1 VAL=2
M  V30 130 C 1.668814 -2.161144 -4.412201 0
M  V30 131 C 0.644978 -1.682023 -3.640087 0
M  V30 132 N 1.337953 1.225201 -1.354751 0
M  V30 133 C 2.169866 0.107082 -0.901221 0
M  V30 134 O 2.553064 -0.960862 -0.460911 0
M  V30 135 C 3.614570 0.431753 -1.094562 0
M  V30 136 C 4.537976 -0.622357 -0.634250 0
M  V30 137 N 4.666348 -0.858345 0.776523 0
M  V30 138 C 5.672764 -1.892876 1.047902 0
M  V30 139 O 6.151577 -2.394453 0.018324 0
M  V30 140 C 5.981177 -2.172647 2.469091 0 CFG=2
M  V30 141 C 7.106173 -3.161642 2.568802 0
M  V30 142 C 6.903516 -4.468738 1.917571 0
M  V30 143 C 6.182805 -5.498106 2.558425 0
M  V30 144 C 6.072282 -6.624563 1.782072 0
M  V30 145 C 6.555097 -6.838881 0.521456 0
M  V30 146 C 7.263838 -5.775797 -0.062588 0
M  V30 147 N 7.822631 -5.955734 -1.332686 0
M  V30 148 C 7.728621 -7.181037 -2.008070 0
M  V30 149 N 7.289416 -8.270992 -1.949899 0
M  V30 150 C 7.388850 -9.276520 -2.774192 0
M  V30 151 C 8.181601 -8.997349 -3.980688 0
M  V30 152 S 8.665697 -7.225894 -3.653730 0
M  V30 153 N 7.357560 -4.699634 0.704536 0
M  V30 154 C 4.847907 -2.562388 3.346843 0
M  V30 155 C 5.329034 -2.804274 4.760289 0
M  V30 156 C 5.912288 -1.560876 5.348287 0 CFG=1
M  V30 157 O 7.236868 -1.686523 5.747052 0
M  V30 158 C 7.747745 -1.247851 7.002100 0
M  V30 159 C 7.938922 -0.773196 8.221907 0
M  V30 160 C 9.191016 -0.756606 8.692017 0
M  V30 161 C 10.383255 -1.108239 8.245760 0
M  V30 162 C 10.417129 -1.701154 6.812325 0
M  V30 163 Cl 12.077865 -2.054928 6.527300 0
M  V30 164 C 9.037496 -1.663049 6.434347 0
M  V30 165 F 9.499046 -2.241102 5.206794 0
M  V30 166 C 5.820007 -0.441645 4.293375 0
M  V30 167 C 6.538885 -0.842138 3.050048 0
M  V30 168 C 0.875259 -2.318903 5.082375 0
M  V30 169 N 0.236791 -2.766675 6.378207 0
M  V30 170 O 1.857653 -2.482892 5.851321 0
M  V30 171 C 5.875381 6.541847 -1.754418 0
M  V30 172 C 5.611511 7.553158 -0.886196 0
M  V30 173 C 6.784510 8.185665 -0.366158 0
M  V30 174 S 6.523427 9.516519 0.720059 0
M  V30 175 O 5.280958 10.278009 0.315629 0
M  V30 176 O 7.654903 10.528302 0.633967 0
M  V30 177 O 6.422537 8.943730 2.271011 0
M  V30 178 C 7.992783 7.702407 -0.798478 0
M  V30 179 C 8.276732 6.692696 -1.674932 0
M  V30 180 C 7.083509 6.096742 -2.176219 0
M  V30 181 H 7.873688 4.797626 -6.417067 0
M  V30 182 H 9.158698 5.695890 -5.618126 0
M  V30 183 H 7.419709 6.308947 -5.546314 0
M  V30 184 H 8.878897 4.576000 -3.662657 0
M  V30 185 H 7.624399 3.644275 -4.511160 0
M  V30 186 H 5.602142 4.782947 -5.684776 0
M  V30 187 H 2.507286 5.370937 -4.394944 0
M  V30 188 H 3.646285 4.748104 -6.602016 0
M  V30 189 H 2.318018 4.664580 -9.656416 0
M  V30 190 H 3.438964 4.161646 -8.386900 0
M  V30 191 H 3.152729 2.141598 -9.399969 0
M  V30 192 H 1.999103 2.035906 -8.070781 0
M  V30 193 H 1.328869 2.356024 -9.704893 0
M  V30 194 H -0.152481 4.121826 -10.062944 0
M  V30 195 H -2.475655 4.756138 -10.128471 0
M  V30 196 H -3.610877 7.623296 -9.705578 0
M  V30 197 H -2.456045 6.118965 -6.155740 0
M  V30 198 H 1.531047 7.257523 -5.897437 0
M  V30 199 H -0.270398 7.423719 -5.897179 0
M  V30 200 H 0.544779 7.038673 -4.381188 0
M  V30 201 H 0.555335 4.561554 -3.864053 0
M  V30 202 H -0.190565 3.478310 -5.069438 0
M  V30 203 H -1.049856 4.978650 -4.440568 0
M  V30 204 H 5.863922 4.493569 -0.498377 0
M  V30 205 H 4.977911 3.316369 -1.640526 0
M  V30 206 H 6.608173 3.999535 -2.008009 0
M  V30 207 H 3.085366 6.357107 -2.330898 0
M  V30 208 H 3.141626 4.492257 -2.322743 0
M  V30 209 H 4.030473 6.001719 0.141446 0
M  V30 210 H 3.931842 4.297950 -0.249938 0
M  V30 211 H 1.579637 4.414295 -0.745181 0
M  V30 212 H 1.475533 6.076117 -0.186907 0
M  V30 213 H 1.829766 2.903467 0.831663 0
M  V30 214 H 2.502091 2.094161 3.208216 0
M  V30 215 H 2.124643 1.249282 1.744061 0
M  V30 216 H -0.456473 1.625598 2.366645 0
M  V30 217 H 0.283841 2.067739 3.938702 0
M  V30 218 H 1.540397 0.109584 4.087814 0
M  V30 219 H 1.179589 -0.388109 2.431994 0
M  V30 220 H -1.241807 -0.557449 3.095273 0
M  V30 221 H -0.811603 -0.172487 4.800279 0
M  V30 222 H -1.128317 -2.590690 4.411076 0
M  V30 223 H 1.110333 -2.247569 2.646031 0
M  V30 224 H 0.638109 -2.908867 0.373385 0
M  V30 225 H 1.122908 -5.593806 1.833500 0
M  V30 226 H 1.732563 -4.120782 2.536529 0
M  V30 227 H 3.306574 -3.888798 0.517925 0
M  V30 228 H 3.508497 -5.308687 1.671263 0
M  V30 229 H 2.406316 -6.757705 -0.071089 0
M  V30 230 H 3.985480 -6.099709 -0.465629 0
M  V30 231 H 1.864266 -4.435124 -1.909310 0
M  V30 232 H 2.567157 -8.225958 -3.075541 0
M  V30 233 H 3.032323 -5.408504 -4.914159 0
M  V30 234 H 3.639077 -6.323933 -4.376337 0
M  V30 235 H -0.198244 -5.764346 -0.538903 0
M  V30 236 H -1.516457 -4.041902 -3.110013 0
M  V30 237 H -3.310160 -5.820211 -1.510782 0
M  V30 238 H -3.671271 -5.189984 -3.205659 0
M  V30 239 H -1.363879 -6.931051 -2.333638 0
M  V30 240 H -2.828278 -7.304525 -3.391952 0
M  V30 241 H -2.155482 -5.673604 -5.055041 0
M  V30 242 H -0.665855 -5.207116 -4.164092 0
M  V30 243 H -0.528405 -8.180901 -4.853730 0
M  V30 244 H 1.141659 -5.271395 -7.216610 0
M  V30 245 H 1.044617 -8.108546 -7.154191 0
M  V30 246 H 1.065413 -8.053356 -7.008133 0
M  V30 247 H -2.394902 -2.134516 -2.386578 0
M  V30 248 H -4.010088 -0.799029 -1.480379 0
M  V30 249 H -5.811450 -2.116069 -3.607502 0
M  V30 250 H -4.071603 -1.889027 -3.780344 0
M  V30 251 H -4.318686 0.535687 -4.109157 0
M  V30 252 H -5.328967 -0.490899 -5.169685 0
M  V30 253 H -7.376495 0.263124 -4.164358 0
M  V30 254 H -6.332058 1.493170 -4.801964 0
M  V30 255 H -7.276225 1.451290 -1.898960 0
M  V30 256 H -3.806346 3.352398 -2.874939 0
M  V30 257 H -6.289818 4.517700 -1.100721 0
M  V30 258 H -5.903366 4.655384 -2.575209 0
M  V30 259 H -5.795950 -1.206366 -0.098707 0
M  V30 260 H -8.859918 -0.178869 -0.388492 0
M  V30 261 H -9.923207 -1.941930 -1.613875 0
M  V30 262 H -9.323907 -3.211472 -0.452585 0
M  V30 263 H -11.313824 -0.946738 0.108608 0
M  V30 264 H -11.582940 -2.701372 -0.055385 0
M  V30 265 H -10.285279 -3.174061 2.012532 0
M  V30 266 H -9.928317 -1.372529 2.198476 0
M  V30 267 H -12.080470 -1.161589 3.037270 0
M  V30 268 H -11.961246 -4.688917 1.117146 0
M  V30 269 H -15.002364 -2.589811 3.247583 0
M  V30 270 H -14.879481 -2.347162 3.244774 0
M  V30 271 H -7.573409 -0.447214 1.578425 0
M  V30 272 H -7.960918 -2.740195 3.741899 0
M  V30 273 H -5.919094 -3.939226 4.450323 0
M  V30 274 H -7.098065 -4.814529 3.484091 0
M  V30 275 H -5.501479 -4.358258 1.412800 0
M  V30 276 H -4.375529 -3.831955 2.669164 0
M  V30 277 H -4.262942 -5.854554 3.779508 0
M  V30 278 H -5.621573 -6.585656 2.922049 0
M  V30 279 H -3.410539 -5.763064 1.000389 0
M  V30 280 H -3.024374 -9.149110 3.337056 0
M  V30 281 H -2.002275 -8.888433 0.518063 0
M  V30 282 H -2.722021 -8.927485 0.046260 0
M  V30 283 H -6.627560 -1.128616 4.706622 0
M  V30 284 H -5.276558 1.522170 3.533262 0
M  V30 285 H -2.860854 1.328034 4.588400 0
M  V30 286 H -3.221132 -0.362310 4.895375 0
M  V30 287 H -5.203885 1.776994 5.854114 0
M  V30 288 H -5.226858 0.030088 6.084791 0
M  V30 289 H -3.277150 0.011900 7.470060 0
M  V30 290 H -4.463917 1.183150 8.059588 0
M  V30 291 H -2.484042 2.421055 6.190911 0
M  V30 292 H -3.922210 2.992257 9.021898 0
M  V30 293 H -0.228458 3.410683 7.564973 0
M  V30 294 H -0.207534 1.956228 8.925213 0
M  V30 295 H -2.931168 0.363101 1.901082 0
M  V30 296 H -3.770633 3.009445 -0.399164 0
M  V30 297 H -1.854417 4.209298 0.361706 0
M  V30 298 H -1.939444 3.321774 1.924902 0
M  V30 299 H -3.668807 5.576187 -0.245751 0
M  V30 300 H -5.291569 7.266283 0.224013 0
M  V30 301 H -5.355329 5.758285 4.268290 0
M  V30 302 H -3.633456 4.024631 3.642362 0
M  V30 303 H -2.523962 0.532117 -0.101598 0
M  V30 304 H -0.106964 -0.169145 -0.711269 0
M  V30 305 H -1.384067 0.006540 -2.638358 0
M  V30 306 H -0.580423 1.487605 -3.253681 0
M  V30 307 H 1.541347 1.559625 -4.044622 0
M  V30 308 H 3.278454 0.607898 -5.361387 0
M  V30 309 H 1.717470 -3.253350 -4.527949 0
M  V30 310 H -0.117462 -2.189621 -3.120489 0
M  V30 311 H 1.739031 2.115525 -1.682038 0
M  V30 312 H 3.852813 1.357974 -0.515366 0
M  V30 313 H 3.797525 0.682668 -2.177059 0
M  V30 314 H 4.334863 -1.617998 -1.126608 0
M  V30 315 H 5.566358 -0.365597 -1.048724 0
M  V30 316 H 4.187219 -0.435539 1.612967 0
M  V30 317 H 7.976726 -2.626887 2.037333 0
M  V30 318 H 7.517302 -3.290511 3.593740 0
M  V30 319 H 5.781689 -5.426218 3.530491 0
M  V30 320 H 5.511458 -7.440313 2.289776 0
M  V30 321 H 6.334907 -7.803575 0.094374 0
M  V30 322 H 8.287784 -5.106067 -1.660494 0
M  V30 323 H 6.940745 -10.244450 -2.634808 0
M  V30 324 H 8.403590 -9.635271 -4.823350 0
M  V30 325 H 4.078864 -1.774570 3.344747 0
M  V30 326 H 4.314989 -3.472562 2.965795 0
M  V30 327 H 6.060510 -3.601112 4.885486 0
M  V30 328 H 4.423164 -3.116189 5.373096 0
M  V30 329 H 5.289736 -1.219065 6.186886 0
M  V30 330 H 6.905311 -0.567946 8.360330 0
M  V30 331 H 9.061603 -0.299920 9.717413 0
M  V30 332 H 11.199924 -0.939654 8.939680 0
M  V30 333 H 4.817198 -0.111427 4.152894 0
M  V30 334 H 6.418163 0.399601 4.738344 0
M  V30 335 H 7.602568 -0.937482 3.228286 0
M  V30 336 H 6.322788 -0.072145 2.286192 0
M  V30 337 H -0.262858 -2.927806 7.268701 0
M  V30 338 H -0.014161 -3.475380 7.127752 0
M  V30 339 H 4.678711 7.948749 -0.569487 0
M  V30 340 H 7.219327 9.184037 2.836563 0
M  V30 341 H 8.879505 8.198227 -0.383443 0
M  V30 342 H 9.246888 6.363143 -1.975862 0
M  V30 END ATOM
M  V30 BEGIN BOND
M  V30 1 1 1 2
M  V30 2 1 2 3
M  V30 3 1 3 4
M  V30 4 2 4 5
M  V30 5 1 5 6
M  V30 6 2 6 7
M  V30 7 1 7 8
M  V30 8 2 8 9
M  V30 9 1 9 10
M  V30 10 1 10 11
M  V30 11 1 9 12
M  V30 12 2 12 13
M  V30 13 1 13 14
M  V30 14 2 14 15
M  V30 15 1 15 16
M  V30 16 2 16 17
M  V30 17 2 16 18
M  V30 18 1 16 19
M  V30 19 1 15 20
M  V30 20 2 20 21
M  V30 21 1 21 22
M  V30 22 1 22 23
M  V30 23 1 22 24
M  V30 24 1 4 25
M  V30 25 1 25 26
M  V30 26 1 25 27
M  V30 27 1 27 28
M  V30 28 1 28 29
M  V30 29 1 29 30
M  V30 30 2 30 31
M  V30 31 1 30 32
M  V30 32 1 32 33
M  V30 33 1 33 34
M  V30 34 1 34 35
M  V30 35 1 35 36
M  V30 36 1 36 37
M  V30 37 1 37 38
M  V30 38 1 38 39
M  V30 39 2 39 40
M  V30 40 1 39 41
M  V30 41 1 41 42
M  V30 42 1 42 43
M  V30 43 1 43 44
M  V30 44 1 44 45
M  V30 45 1 45 46
M  V30 46 2 46 47 CFG=2
M  V30 47 1 46 48
M  V30 48 1 41 49
M  V30 49 1 49 50
M  V30 50 2 50 51
M  V30 51 1 50 52
M  V30 52 1 52 53
M  V30 53 1 53 54
M  V30 54 1 54 55
M  V30 55 1 55 56
M  V30 56 1 56 57
M  V30 57 2 57 58 CFG=2
M  V30 58 1 57 59
M  V30 59 1 52 60
M  V30 60 1 60 61
M  V30 61 2 61 62
M  V30 62 1 61 63
M  V30 63 1 63 64
M  V30 64 1 64 65
M  V30 65 1 65 66
M  V30 66 1 66 67
M  V30 67 1 67 68
M  V30 68 2 68 69 CFG=2
M  V30 69 1 68 70
M  V30 70 1 63 71
M  V30 71 1 71 72
M  V30 72 2 72 73
M  V30 73 1 72 74
M  V30 74 1 74 75
M  V30 75 1 75 76
M  V30 76 1 76 77
M  V30 77 1 77 78
M  V30 78 1 78 79
M  V30 79 2 79 80 CFG=2
M  V30 80 1 79 81
M  V30 81 1 74 82
M  V30 82 1 82 83
M  V30 83 2 83 84
M  V30 84 1 83 85
M  V30 85 1 85 86
M  V30 86 1 86 87
M  V30 87 1 87 88
M  V30 88 1 88 89
M  V30 89 1 89 90
M  V30 90 2 90 91 CFG=2
M  V30 91 1 90 92
M  V30 92 1 85 93
M  V30 93 1 93 94
M  V30 94 2 94 95
M  V30 95 1 94 96
M  V30 96 1 96 97
M  V30 97 1 97 98
M  V30 98 1 98 99
M  V30 99 1 99 100
M  V30 100 1 100 101
M  V30 101 2 101 102 CFG=2
M  V30 102 1 101 103
M  V30 103 1 96 104
M  V30 104 1 104 105
M  V30 105 2 105 106
M  V30 106 1 105 107
M  V30 107 1 107 108
M  V30 108 1 108 109
M  V30 109 2 109 110
M  V30 110 1 110 111
M  V30 111 2 111 112
M  V30 112 1 112 113
M  V30 113 2 113 114
M  V30 114 2 114 115
M  V30 115 1 112 116
M  V30 116 2 116 117
M  V30 117 1 107 118
M  V30 118 1 118 119
M  V30 119 2 119 120
M  V30 120 1 119 121
M  V30 121 1 121 122
M  V30 122 1 122 123
M  V30 123 2 123 124
M  V30 124 1 124 125
M  V30 125 2 125 126
M  V30 126 1 126 127
M  V30 127 2 127 128
M  V30 128 2 128 129
M  V30 129 1 126 130
M  V30 130 2 130 131
M  V30 131 1 121 132
M  V30 132 1 132 133
M  V30 133 2 133 134
M  V30 134 1 133 135
M  V30 135 1 135 136
M  V30 136 1 136 137
M  V30 137 1 137 138
M  V30 138 2 138 139
M  V30 139 1 138 140
M  V30 140 1 140 141 CFG=3
M  V30 141 1 141 142
M  V30 142 2 142 143
M  V30 143 1 143 144
M  V30 144 2 144 145
M  V30 145 1 145 146
M  V30 146 1 146 147
M  V30 147 1 147 148
M  V30 148 2 148 149
M  V30 149 1 149 150
M  V30 150 2 150 151
M  V30 151 1 151 152
M  V30 152 2 146 153
M  V30 153 1 140 154
M  V30 154 1 154 155
M  V30 155 1 155 156
M  V30 156 1 156 157
M  V30 157 1 157 158
M  V30 158 2 158 159
M  V30 159 1 159 160
M  V30 160 2 160 161
M  V30 161 1 161 162
M  V30 162 1 162 163
M  V30 163 2 162 164
M  V30 164 1 164 165
M  V30 165 1 156 166
M  V30 166 1 166 167
M  V30 167 1 37 168
M  V30 168 1 168 169
M  V30 169 2 168 170
M  V30 170 1 25 171
M  V30 171 2 171 172
M  V30 172 1 172 173
M  V30 173 1 173 174
M  V30 174 2 174 175
M  V30 175 2 174 176
M  V30 176 1 174 177
M  V30 177 2 173 178
M  V30 178 1 178 179
M  V30 179 2 179 180
M  V30 180 1 180 3
M  V30 181 1 22 8
M  V30 182 1 117 109
M  V30 183 1 131 123
M  V30 184 1 167 140
M  V30 185 1 180 171
M  V30 186 1 21 12
M  V30 187 1 153 142
M  V30 188 1 164 158
M  V30 189 1 152 148
M  V30 190 1 1 181
M  V30 191 1 1 182
M  V30 192 1 1 183
M  V30 193 1 2 184
M  V30 194 1 2 185
M  V30 195 1 5 186
M  V30 196 1 6 187
M  V30 197 1 7 188
M  V30 198 1 10 189
M  V30 199 1 10 190
M  V30 200 1 11 191
M  V30 201 1 11 192
M  V30 202 1 11 193
M  V30 203 1 13 194
M  V30 204 1 14 195
M  V30 205 1 19 196
M  V30 206 1 20 197
M  V30 207 1 23 198
M  V30 208 1 23 199
M  V30 209 1 23 200
M  V30 210 1 24 201
M  V30 211 1 24 202
M  V30 212 1 24 203
M  V30 213 1 26 204
M  V30 214 1 26 205
M  V30 215 1 26 206
M  V30 216 1 27 207
M  V30 217 1 27 208
M  V30 218 1 28 209
M  V30 219 1 28 210
M  V30 220 1 29 211
M  V30 221 1 29 212
M  V30 222 1 32 213
M  V30 223 1 33 214
M  V30 224 1 33 215
M  V30 225 1 34 216
M  V30 226 1 34 217
M  V30 227 1 35 218
M  V30 228 1 35 219
M  V30 229 1 36 220
M  V30 230 1 36 221
M  V30 231 1 37 222 CFG=1
M  V30 232 1 38 223
M  V30 233 1 41 224 CFG=3
M  V30 234 1 42 225
M  V30 235 1 42 226
M  V30 236 1 43 227
M  V30 237 1 43 228
M  V30 238 1 44 229
M  V30 239 1 44 230
M  V30 240 1 45 231
M  V30 241 1 47 232
M  V30 242 1 48 233
M  V30 243 1 48 234
M  V30 244 1 49 235
M  V30 245 1 52 236 CFG=3
M  V30 246 1 53 237
M  V30 247 1 53 238
M  V30 248 1 54 239
M  V30 249 1 54 240
M  V30 250 1 55 241
M  V30 251 1 55 242
M  V30 252 1 56 243
M  V30 253 1 58 244
M  V30 254 1 59 245
M  V30 255 1 59 246
M  V30 256 1 60 247
M  V30 257 1 63 248 CFG=1
M  V30 258 1 64 249
M  V30 259 1 64 250
M  V30 260 1 65 251
M  V30 261 1 65 252
M  V30 262 1 66 253
M  V30 263 1 66 254
M  V30 264 1 67 255
M  V30 265 1 69 256
M  V30 266 1 70 257
M  V30 267 1 70 258
M  V30 268 1 71 259
M  V30 269 1 74 260 CFG=3
M  V30 270 1 75 261
M  V30 271 1 75 262
M  V30 272 1 76 263
M  V30 273 1 76 264
M  V30 274 1 77 265
M  V30 275 1 77 266
M  V30 276 1 78 267
M  V30 277 1 80 268
M  V30 278 1 81 269
M  V30 279 1 81 270
M  V30 280 1 82 271
M  V30 281 1 85 272 CFG=1
M  V30 282 1 86 273
M  V30 283 1 86 274
M  V30 284 1 87 275
M  V30 285 1 87 276
M  V30 286 1 88 277
M  V30 287 1 88 278
M  V30 288 1 89 279
M  V30 289 1 91 280
M  V30 290 1 92 281
M  V30 291 1 92 282
M  V30 292 1 93 283
M  V30 293 1 96 284 CFG=1
M  V30 294 1 97 285
M  V30 295 1 97 286
M  V30 296 1 98 287
M  V30 297 1 98 288
M  V30 298 1 99 289
M  V30 299 1 99 290
M  V30 300 1 100 291
M  V30 301 1 102 292
M  V30 302 1 103 293
M  V30 303 1 103 294
M  V30 304 1 104 295
M  V30 305 1 107 296 CFG=3
M  V30 306 1 108 297
M  V30 307 1 108 298
M  V30 308 1 110 299
M  V30 309 1 111 300
M  V30 310 1 116 301
M  V30 311 1 117 302
M  V30 312 1 118 303
M  V30 313 1 121 304 CFG=1
M  V30 314 1 122 305
M  V30 315 1 122 306
M  V30 316 1 124 307
M  V30 317 1 125 308
M  V30 318 1 130 309
M  V30 319 1 131 310
M  V30 320 1 132 311
M  V30 321 1 135 312
M  V30 322 1 135 313
M  V30 323 1 136 314
M  V30 324 1 136 315
M  V30 325 1 137 316
M  V30 326 1 141 317
M  V30 327 1 141 318
M  V30 328 1 143 319
M  V30 329 1 144 320
M  V30 330 1 145 321
M  V30 331 1 147 322
M  V30 332 1 150 323
M  V30 333 1 151 324
M  V30 334 1 154 325
M  V30 335 1 154 326
M  V30 336 1 155 327
M  V30 337 1 155 328
M  V30 338 1 156 329 CFG=1
M  V30 339 1 159 330
M  V30 340 1 160 331
M  V30 341 1 161 332
M  V30 342 1 166 333
M  V30 343 1 166 334
M  V30 344 1 167 335
M  V30 345 1 167 336
M  V30 346 1 169 337
M  V30 347 1 169 338
M  V30 348 1 172 339
M  V30 349 1 177 340
M  V30 350 1 178 341
M  V30 351 1 179 342
M  V30 END BOND
M  V30 END CTAB
M  END
>  <Dataset>  (172) 
ChEMBL_Kinases

>  <Ligand_Instance>  (172) 
nan

>  <PDB_ID>  (172) 
nan

>  <Standardized_SMILES>  (172) 
CCN1/C(=C/C=C/C2=[N+](CC)c3ccc(S(=O)(=O)O)cc3C2(C)C)C(C)(CCCC(=O)NCCCC[C@@H](NC(=O)[C@@H](CCCNC(=N)N)NC(=O)[C@@H](CCCNC(=N)N)NC(=O)[C@@H](CCCNC(=N)N)NC(=O)[C@@H](CCCNC(=N)N)NC(=O)[C@@H](CCCNC(=N)N)NC(=O)[C@@H](CCCNC(=N)N)NC(=O)[C@@H](Cc2ccc(N=[N+]=[N-])cc2)NC(=O)[C@@H](Cc2ccc(N=[N+]=[N-])cc2)NC(=O)CCNC(=O)[C@]2(Cc3cccc(Nc4nccs4)n3)CC[C@@H](Oc3cccc(Cl)c3F)CC2)C(N)=O)c2cc(S(=O)(=O)O)ccc21

>  <Name>  (172) 
nan

>  <Pocket>  (172) 
nan

>  <ATP_Site>  (172) 
nan

>  <Peripheral>  (172) 
nan

>  <Num_H_Atoms_ProtBoundConf>  (172) 
nan

>  <Num_Resolved_Atoms>  (172) 
nan

>  <Num_Not_Resolved_Atoms>  (172) 
nan

$$$$
CHEMBL3600870
     RDKit          3D

  0  0  0  0  0  0  0  0  0  0999 V3000
M  V30 BEGIN CTAB
M  V30 COUNTS 307 315 0 0 0
M  V30 BEGIN ATOM
M  V30 1 C -5.807249 -5.721546 4.731099 0
M  V30 2 N -6.455981 -5.757072 3.438281 0
M  V30 3 C -7.572674 -4.883766 3.152068 0
M  V30 4 C -6.009906 -6.642555 2.416561 0
M  V30 5 C -4.957882 -7.518033 2.575600 0
M  V30 6 C -4.503393 -8.376779 1.584962 0
M  V30 7 C -5.120066 -8.381955 0.349798 0
M  V30 8 C -6.191462 -7.499091 0.168123 0
M  V30 9 C -6.615983 -6.656842 1.182694 0
M  V30 10 O -6.955923 -7.340934 -1.019938 0
M  V30 11 C -6.586001 -8.155322 -2.114369 0
M  V30 12 C -6.875414 -7.633052 -3.324158 0
M  V30 13 C -6.484386 -8.494575 -4.444495 0
M  V30 14 N -6.723915 -8.028335 -5.605533 0 CHG=1 VAL=4
M  V30 15 C -7.341001 -6.741140 -5.830615 0
M  V30 16 C -6.345572 -8.853635 -6.760957 0
M  V30 17 C -5.845532 -9.785659 -4.224969 0
M  V30 18 C -5.619955 -10.170128 -2.965003 0
M  V30 19 C -5.952484 -9.417802 -1.737539 0
M  V30 20 C -4.769858 -9.237519 -0.809952 0
M  V30 21 C -3.630696 -8.691230 -1.559629 0
M  V30 22 C -3.633024 -7.361459 -1.805589 0
M  V30 23 C -2.605878 -6.744288 -2.540875 0
M  V30 24 C -1.574367 -7.549649 -3.012697 0
M  V30 25 C -0.591800 -6.772604 -3.810175 0
M  V30 26 O -0.737609 -5.495895 -3.680334 0
M  V30 27 N 0.489273 -7.156397 -4.705386 0
M  V30 28 C 0.895601 -5.804906 -5.119949 0
M  V30 29 C -0.213115 -5.162056 -5.928516 0
M  V30 30 C 0.065868 -3.726991 -6.157391 0
M  V30 31 C -1.013524 -2.977217 -6.907233 0
M  V30 32 C -2.390868 -3.131580 -6.214110 0 CFG=1
M  V30 33 N -2.434422 -2.677928 -4.893650 0
M  V30 34 C -2.049183 -2.086586 -3.695758 0
M  V30 35 O -0.913354 -1.556541 -3.727920 0
M  V30 36 C -2.516714 -1.856458 -2.336113 0 CFG=2
M  V30 37 C -3.963172 -1.696493 -2.100835 0
M  V30 38 C -4.625602 -0.557609 -2.790026 0
M  V30 39 C -6.115035 -0.572123 -2.445180 0
M  V30 40 N -6.361543 -0.470335 -1.031322 0
M  V30 41 C -7.690266 -0.529302 -0.535698 0
M  V30 42 N -8.712163 -0.234959 -1.285670 0
M  V30 43 N -7.873087 -0.932722 0.839709 0
M  V30 44 N -1.643998 -0.966965 -1.595292 0
M  V30 45 C -0.693246 -1.333884 -0.605990 0
M  V30 46 O -0.702572 -2.619636 -0.473590 0
M  V30 47 C 0.309388 -0.938568 0.356463 0 CFG=2
M  V30 48 C -0.171380 -1.065135 1.805194 0
M  V30 49 C -0.571030 -2.445666 2.160117 0
M  V30 50 C -1.019131 -2.604596 3.611732 0
M  V30 51 N -0.003420 -2.260907 4.561759 0
M  V30 52 C -0.443060 -2.465817 5.918195 0
M  V30 53 N -1.677122 -2.603718 6.254716 0
M  V30 54 N 0.556531 -2.525058 6.958465 0
M  V30 55 N 0.661826 0.508406 0.290366 0
M  V30 56 C 1.989282 0.989650 0.375693 0
M  V30 57 O 3.105037 0.366174 0.510772 0
M  V30 58 C 2.909845 2.093355 0.394455 0 CFG=2
M  V30 59 C 2.913373 3.087604 -0.703898 0
M  V30 60 C 3.200934 2.526972 -2.050914 0
M  V30 61 C 3.249560 3.624850 -3.120392 0
M  V30 62 N 3.523132 2.974724 -4.382792 0
M  V30 63 C 3.622518 3.853692 -5.503310 0
M  V30 64 N 3.106734 5.040287 -5.446702 0
M  V30 65 N 4.290458 3.425786 -6.689588 0
M  V30 66 N 4.300063 1.603620 0.569468 0
M  V30 67 C 5.052197 1.967731 1.696323 0
M  V30 68 O 4.568305 2.718373 2.582544 0
M  V30 69 C 6.457624 1.553871 2.017491 0 CFG=2
M  V30 70 C 6.534126 0.033074 2.098504 0
M  V30 71 C 7.968548 -0.343843 2.392615 0
M  V30 72 C 8.909141 0.127334 1.303021 0
M  V30 73 N 8.576812 -0.427900 0.003345 0
M  V30 74 C 9.498458 0.074088 -0.976977 0
M  V30 75 N 10.614489 0.680542 -0.926925 0
M  V30 76 N 9.287102 -0.041081 -2.371557 0
M  V30 77 N 6.782326 2.180623 3.291452 0
M  V30 78 C 7.876301 2.902252 3.871351 0
M  V30 79 O 8.880870 3.070173 3.140894 0
M  V30 80 C 7.820807 3.397678 5.223437 0 CFG=2
M  V30 81 C 8.235032 2.176971 6.125163 0
M  V30 82 C 9.618740 1.789088 5.700379 0
M  V30 83 C 10.170499 0.600379 6.476380 0
M  V30 84 N 10.265209 0.828306 7.887153 0
M  V30 85 C 10.800315 -0.360911 8.490017 0
M  V30 86 N 11.050037 -1.517919 7.956517 0
M  V30 87 N 11.210301 -0.602893 9.834158 0
M  V30 88 N 6.486246 3.788466 5.670277 0
M  V30 89 C 5.919883 4.303495 6.841741 0
M  V30 90 O 6.792960 4.451845 7.775460 0
M  V30 91 C 4.437161 4.601757 6.873464 0 CFG=2
M  V30 92 C 3.753428 3.409632 7.569881 0
M  V30 93 C 4.105772 2.221817 6.708088 0
M  V30 94 C 3.573198 0.906621 7.160855 0
M  V30 95 N 4.059652 -0.072642 6.164521 0
M  V30 96 C 3.790681 -1.448835 6.241967 0
M  V30 97 N 3.650443 -1.965369 7.404412 0
M  V30 98 N 3.694049 -2.176617 5.040887 0
M  V30 99 N 3.920618 4.789097 5.553542 0
M  V30 100 C 3.132178 5.979103 5.344596 0
M  V30 101 O 2.686291 6.988390 5.969970 0
M  V30 102 C 2.450717 6.571149 4.160250 0 CFG=2
M  V30 103 C 3.600597 7.015272 3.264208 0
M  V30 104 C 3.222012 7.645044 2.015149 0
M  V30 105 C 2.959213 7.018626 0.836800 0
M  V30 106 C 2.627805 7.651974 -0.321388 0
M  V30 107 C 2.535140 9.032168 -0.366819 0
M  V30 108 N 2.186233 9.716050 -1.560985 0
M  V30 109 N 1.779539 9.119233 -2.564527 0 CHG=1 VAL=4
M  V30 110 N 1.830659 8.397371 -3.574654 0 CHG=-1 VAL=2
M  V30 111 C 2.793132 9.713910 0.802275 0
M  V30 112 C 3.131680 9.045377 1.980393 0
M  V30 113 N 1.674045 7.692847 4.622555 0
M  V30 114 C 0.379540 7.878672 4.078940 0
M  V30 115 O -0.065595 7.062330 3.180817 0
M  V30 116 C -0.918592 8.564451 3.937608 0
M  V30 117 C -1.549013 8.271001 2.574629 0
M  V30 118 C -0.725197 8.803376 1.461742 0
M  V30 119 C -1.297891 8.488718 0.105016 0
M  V30 120 C -1.342587 6.989886 -0.053703 0
M  V30 121 N -1.788488 6.606952 -1.397533 0
M  V30 122 C -1.764439 5.187607 -1.431104 0
M  V30 123 O -1.405118 4.719212 -0.291489 0
M  V30 124 C -2.053121 4.141826 -2.489429 0 CFG=2
M  V30 125 C -0.895661 4.333819 -3.437638 0
M  V30 126 C -0.761480 3.438147 -4.583789 0
M  V30 127 C -1.230743 3.492909 -5.872189 0
M  V30 128 C -0.892097 2.507866 -6.781996 0
M  V30 129 C -0.087908 1.442555 -6.460417 0
M  V30 130 C 0.372287 1.406977 -5.157145 0
M  V30 131 N 1.271059 0.384027 -4.766616 0
M  V30 132 C 1.973415 -0.477822 -5.606132 0
M  V30 133 N 2.066255 -0.645801 -7.073095 0
M  V30 134 C 2.925048 -1.628113 -7.270258 0
M  V30 135 C 3.703306 -2.475990 -6.409455 0
M  V30 136 S 3.125371 -1.751886 -4.810615 0
M  V30 137 N 0.029605 2.367809 -4.299213 0
M  V30 138 C -3.372131 4.416266 -3.190531 0
M  V30 139 C -4.536704 3.807705 -2.468763 0
M  V30 140 C -4.303083 3.770792 -0.965948 0 CFG=1
M  V30 141 O -5.501207 3.333427 -0.395225 0
M  V30 142 C -6.351017 4.054891 0.391416 0
M  V30 143 C -7.415286 3.189562 0.716316 0
M  V30 144 C -8.509807 3.538827 1.512294 0
M  V30 145 C -8.562744 4.825486 2.022739 0
M  V30 146 C -7.542206 5.692592 1.725954 0
M  V30 147 Cl -7.439234 7.339740 2.289188 0
M  V30 148 C -6.493303 5.304727 0.943911 0
M  V30 149 F -5.444838 6.083811 0.592775 0
M  V30 150 C -3.157664 2.809239 -0.721724 0
M  V30 151 C -2.134747 2.818352 -1.827637 0
M  V30 152 C -3.341252 -2.502439 -7.130709 0
M  V30 153 N -4.063211 -2.195219 -8.290727 0
M  V30 154 O -3.573417 -1.872714 -6.073864 0
M  V30 155 C -1.518024 -8.903727 -2.790105 0
M  V30 156 C -2.570022 -9.396432 -2.063623 0
M  V30 157 C -2.503423 -10.819429 -1.801612 0
M  V30 158 O -1.577762 -11.609546 -2.198236 0
M  V30 159 O -3.068713 -11.917993 -1.220771 0
M  V30 160 H -6.110801 -4.751665 5.228054 0
M  V30 161 H -6.172786 -6.527526 5.405537 0
M  V30 162 H -4.696549 -5.693359 4.658921 0
M  V30 163 H -7.371457 -4.232416 2.268288 0
M  V30 164 H -7.800630 -4.287837 4.040772 0
M  V30 165 H -8.491482 -5.445532 2.870225 0
M  V30 166 H -4.447988 -7.541484 3.532297 0
M  V30 167 H -3.695175 -9.052466 1.695553 0
M  V30 168 H -7.454115 -5.966689 1.057077 0
M  V30 169 H -7.345054 -6.661243 -3.402518 0
M  V30 170 H -6.641018 -5.941391 -5.477693 0
M  V30 171 H -7.456942 -6.573507 -6.917544 0
M  V30 172 H -8.330569 -6.649252 -5.364554 0
M  V30 173 H -6.598890 -8.337456 -7.709843 0
M  V30 174 H -5.238451 -8.941615 -6.733593 0
M  V30 175 H -6.765557 -9.864890 -6.671981 0
M  V30 176 H -5.588454 -10.367726 -5.097759 0
M  V30 177 H -5.144674 -11.148271 -2.946675 0
M  V30 178 H -6.717238 -10.032112 -1.190328 0
M  V30 179 H -4.470356 -10.228967 -0.414884 0
M  V30 180 H -4.417968 -6.713413 -1.441805 0
M  V30 181 H -2.757265 -5.660530 -2.657211 0
M  V30 182 H 0.554340 -8.181347 -4.705786 0
M  V30 183 H 1.741682 -5.951465 -5.841601 0
M  V30 184 H 1.293360 -5.194638 -4.315591 0
M  V30 185 H -1.172369 -5.494939 -5.616698 0
M  V30 186 H -0.142075 -5.620800 -7.009245 0
M  V30 187 H 0.394598 -3.146697 -5.303143 0
M  V30 188 H 0.954645 -3.702009 -6.878572 0
M  V30 189 H -0.720658 -1.940051 -7.012644 0
M  V30 190 H -1.135239 -3.449703 -7.898976 0
M  V30 191 H -2.475083 -4.264335 -6.230250 0
M  V30 192 H -3.424262 -3.005798 -4.606831 0
M  V30 193 H -2.300677 -2.905587 -1.833343 0
M  V30 194 H -4.549884 -2.625177 -2.395658 0
M  V30 195 H -4.163287 -1.619010 -0.991777 0
M  V30 196 H -4.595353 -0.725980 -3.882076 0
M  V30 197 H -4.258309 0.426772 -2.489796 0
M  V30 198 H -6.570107 0.281743 -2.983472 0
M  V30 199 H -6.557313 -1.494619 -2.881254 0
M  V30 200 H -5.608305 -0.352627 -0.330163 0
M  V30 201 H -9.698325 -0.284772 -0.894189 0
M  V30 202 H -8.415920 -1.768162 1.187326 0
M  V30 203 H -7.539423 -0.524806 1.757097 0
M  V30 204 H -1.501808 0.074121 -1.599392 0
M  V30 205 H 1.268782 -1.459081 0.296283 0
M  V30 206 H -0.930279 -0.292602 2.035838 0
M  V30 207 H 0.723777 -0.794145 2.431953 0
M  V30 208 H -1.415509 -2.815925 1.505991 0
M  V30 209 H 0.269716 -3.143951 2.005020 0
M  V30 210 H -1.311882 -3.659145 3.757850 0
M  V30 211 H -1.898201 -1.949109 3.781790 0
M  V30 212 H 0.968404 -1.898481 4.437986 0
M  V30 213 H -1.945508 -2.750181 7.240025 0
M  V30 214 H 0.813972 -1.612332 7.388204 0
M  V30 215 H 1.071087 -3.358607 7.349551 0
M  V30 216 H 0.186413 1.428540 0.189305 0
M  V30 217 H 2.728533 2.644551 1.380237 0
M  V30 218 H 1.959445 3.675443 -0.692980 0
M  V30 219 H 3.707261 3.843260 -0.497961 0
M  V30 220 H 4.171984 2.026628 -2.077824 0
M  V30 221 H 2.341176 1.901014 -2.337980 0
M  V30 222 H 4.103665 4.313740 -2.926599 0
M  V30 223 H 2.300736 4.170985 -3.204575 0
M  V30 224 H 3.661417 1.959008 -4.622940 0
M  V30 225 H 3.189129 5.667081 -6.267435 0
M  V30 226 H 3.742282 3.267927 -7.567579 0
M  V30 227 H 5.314392 3.265332 -6.715795 0
M  V30 228 H 4.863781 0.984890 -0.046770 0
M  V30 229 H 7.134832 1.884011 1.250263 0
M  V30 230 H 6.220254 -0.360483 1.122492 0
M  V30 231 H 5.907333 -0.386462 2.914395 0
M  V30 232 H 8.075615 -1.448546 2.526161 0
M  V30 233 H 8.331775 0.095033 3.333609 0
M  V30 234 H 9.052162 1.205379 1.256611 0
M  V30 235 H 9.914770 -0.299626 1.587970 0
M  V30 236 H 7.836243 -1.084390 -0.308943 0
M  V30 237 H 11.145878 0.967695 -0.090715 0
M  V30 238 H 9.167830 -0.229343 -3.368755 0
M  V30 239 H 8.946131 0.769414 -2.948877 0
M  V30 240 H 5.976503 2.008282 3.931058 0
M  V30 241 H 8.552577 4.135329 5.489887 0
M  V30 242 H 8.274050 2.501284 7.174469 0
M  V30 243 H 7.505573 1.377926 6.023272 0
M  V30 244 H 9.731644 1.562421 4.627853 0
M  V30 245 H 10.313075 2.637643 5.919245 0
M  V30 246 H 9.497312 -0.283990 6.327952 0
M  V30 247 H 11.183328 0.368960 6.090730 0
M  V30 248 H 10.123266 1.479365 8.708851 0
M  V30 249 H 10.875966 -1.725374 6.949301 0
M  V30 250 H 12.236605 -0.494765 10.043927 0
M  V30 251 H 10.367992 -0.854309 10.382521 0
M  V30 252 H 5.758497 3.657749 4.904259 0
M  V30 253 H 4.272127 5.470492 7.479027 0
M  V30 254 H 4.220978 3.239709 8.557868 0
M  V30 255 H 2.692982 3.581088 7.720120 0
M  V30 256 H 5.233471 2.133559 6.749442 0
M  V30 257 H 3.874997 2.393846 5.637339 0
M  V30 258 H 2.485806 0.841910 7.270977 0
M  V30 259 H 4.132171 0.620918 8.095042 0
M  V30 260 H 4.648961 0.223829 5.320716 0
M  V30 261 H 3.449435 -2.983959 7.531168 0
M  V30 262 H 3.268970 -2.547767 4.167407 0
M  V30 263 H 4.532075 -2.726840 4.772885 0
M  V30 264 H 3.876050 4.388271 4.596301 0
M  V30 265 H 1.810259 5.848505 3.668442 0
M  V30 266 H 4.241083 6.133971 3.046307 0
M  V30 267 H 4.227532 7.695644 3.871619 0
M  V30 268 H 3.018073 5.943039 0.826547 0
M  V30 269 H 2.430664 7.101173 -1.221628 0
M  V30 270 H 2.720854 10.791310 0.749221 0
M  V30 271 H 3.320727 9.644300 2.868096 0
M  V30 272 H 1.631869 8.540321 5.259488 0
M  V30 273 H -0.841170 9.660843 4.073542 0
M  V30 274 H -1.644058 8.205027 4.696944 0
M  V30 275 H -2.503105 8.855254 2.584809 0
M  V30 276 H -1.837299 7.218326 2.516671 0
M  V30 277 H -0.654459 9.926865 1.519592 0
M  V30 278 H 0.320186 8.379661 1.430953 0
M  V30 279 H -2.369177 8.846651 0.107388 0
M  V30 280 H -0.726317 8.944198 -0.719614 0
M  V30 281 H -2.028391 6.524540 0.679931 0
M  V30 282 H -0.336201 6.554442 0.095076 0
M  V30 283 H -2.118756 6.950763 -2.351348 0
M  V30 284 H -0.963500 5.412630 -3.748891 0
M  V30 285 H 0.017200 4.327774 -2.771577 0
M  V30 286 H -1.855356 4.360039 -6.043330 0
M  V30 287 H -1.297095 2.610339 -7.778443 0
M  V30 288 H 0.139653 0.704406 -7.214900 0
M  V30 289 H 1.416099 0.269662 -3.750366 0
M  V30 290 H 2.919656 -1.656722 -8.374705 0
M  V30 291 H 4.280372 -3.146245 -6.800456 0
M  V30 292 H -3.514973 5.459749 -3.472923 0
M  V30 293 H -3.298626 3.858902 -4.173695 0
M  V30 294 H -4.723704 2.754124 -2.783648 0
M  V30 295 H -5.487700 4.337029 -2.655901 0
M  V30 296 H -4.102848 4.798348 -0.661912 0
M  V30 297 H -7.574314 2.145627 0.422182 0
M  V30 298 H -9.346210 2.925258 1.791304 0
M  V30 299 H -9.357485 5.197706 2.644007 0
M  V30 300 H -2.752688 2.993058 0.285477 0
M  V30 301 H -3.601659 1.767402 -0.634960 0
M  V30 302 H -2.482492 2.058234 -2.567544 0
M  V30 303 H -1.123465 2.555521 -1.435007 0
M  V30 304 H -3.367036 -2.804337 -8.818372 0
M  V30 305 H -4.884213 -1.580754 -8.215172 0
M  V30 306 H -0.690011 -9.446943 -3.188610 0
M  V30 307 H -3.770583 -12.529374 -1.587603 0
M  V30 END ATOM
M  V30 BEGIN BOND
M  V30 1 1 1 2
M  V30 2 1 2 3
M  V30 3 1 2 4
M  V30 4 2 4 5
M  V30 5 1 5 6
M  V30 6 2 6 7
M  V30 7 1 7 8
M  V30 8 2 8 9
M  V30 9 1 8 10
M  V30 10 1 10 11
M  V30 11 2 11 12
M  V30 12 1 12 13
M  V30 13 2 13 14 CFG=2
M  V30 14 1 14 15
M  V30 15 1 14 16
M  V30 16 1 13 17
M  V30 17 2 17 18
M  V30 18 1 18 19
M  V30 19 1 19 20
M  V30 20 1 20 21
M  V30 21 2 21 22
M  V30 22 1 22 23
M  V30 23 2 23 24
M  V30 24 1 24 25
M  V30 25 2 25 26
M  V30 26 1 25 27
M  V30 27 1 27 28
M  V30 28 1 28 29
M  V30 29 1 29 30
M  V30 30 1 30 31
M  V30 31 1 31 32
M  V30 32 1 32 33
M  V30 33 1 33 34
M  V30 34 2 34 35
M  V30 35 1 34 36
M  V30 36 1 36 37
M  V30 37 1 37 38
M  V30 38 1 38 39
M  V30 39 1 39 40
M  V30 40 1 40 41
M  V30 41 2 41 42 CFG=2
M  V30 42 1 41 43
M  V30 43 1 36 44
M  V30 44 1 44 45
M  V30 45 2 45 46
M  V30 46 1 45 47
M  V30 47 1 47 48
M  V30 48 1 48 49
M  V30 49 1 49 50
M  V30 50 1 50 51
M  V30 51 1 51 52
M  V30 52 2 52 53 CFG=2
M  V30 53 1 52 54
M  V30 54 1 47 55
M  V30 55 1 55 56
M  V30 56 2 56 57
M  V30 57 1 56 58
M  V30 58 1 58 59
M  V30 59 1 59 60
M  V30 60 1 60 61
M  V30 61 1 61 62
M  V30 62 1 62 63
M  V30 63 2 63 64 CFG=2
M  V30 64 1 63 65
M  V30 65 1 58 66
M  V30 66 1 66 67
M  V30 67 2 67 68
M  V30 68 1 67 69
M  V30 69 1 69 70
M  V30 70 1 70 71
M  V30 71 1 71 72
M  V30 72 1 72 73
M  V30 73 1 73 74
M  V30 74 2 74 75 CFG=2
M  V30 75 1 74 76
M  V30 76 1 69 77
M  V30 77 1 77 78
M  V30 78 2 78 79
M  V30 79 1 78 80
M  V30 80 1 80 81
M  V30 81 1 81 82
M  V30 82 1 82 83
M  V30 83 1 83 84
M  V30 84 1 84 85
M  V30 85 2 85 86 CFG=2
M  V30 86 1 85 87
M  V30 87 1 80 88
M  V30 88 1 88 89
M  V30 89 2 89 90
M  V30 90 1 89 91
M  V30 91 1 91 92
M  V30 92 1 92 93
M  V30 93 1 93 94
M  V30 94 1 94 95
M  V30 95 1 95 96
M  V30 96 2 96 97 CFG=2
M  V30 97 1 96 98
M  V30 98 1 91 99
M  V30 99 1 99 100
M  V30 100 2 100 101
M  V30 101 1 100 102
M  V30 102 1 102 103
M  V30 103 1 103 104
M  V30 104 2 104 105
M  V30 105 1 105 106
M  V30 106 2 106 107
M  V30 107 1 107 108
M  V30 108 2 108 109
M  V30 109 2 109 110
M  V30 110 1 107 111
M  V30 111 2 111 112
M  V30 112 1 102 113
M  V30 113 1 113 114
M  V30 114 2 114 115
M  V30 115 1 114 116
M  V30 116 1 116 117
M  V30 117 1 117 118
M  V30 118 1 118 119
M  V30 119 1 119 120
M  V30 120 1 120 121
M  V30 121 1 121 122
M  V30 122 2 122 123
M  V30 123 1 122 124
M  V30 124 1 124 125 CFG=3
M  V30 125 1 125 126
M  V30 126 2 126 127
M  V30 127 1 127 128
M  V30 128 2 128 129
M  V30 129 1 129 130
M  V30 130 1 130 131
M  V30 131 1 131 132
M  V30 132 2 132 133
M  V30 133 1 133 134
M  V30 134 2 134 135
M  V30 135 1 135 136
M  V30 136 2 130 137
M  V30 137 1 124 138
M  V30 138 1 138 139
M  V30 139 1 139 140
M  V30 140 1 140 141
M  V30 141 1 141 142
M  V30 142 2 142 143
M  V30 143 1 143 144
M  V30 144 2 144 145
M  V30 145 1 145 146
M  V30 146 1 146 147
M  V30 147 2 146 148
M  V30 148 1 148 149
M  V30 149 1 140 150
M  V30 150 1 150 151
M  V30 151 1 32 152
M  V30 152 1 152 153
M  V30 153 2 152 154
M  V30 154 1 24 155
M  V30 155 2 155 156
M  V30 156 1 156 157
M  V30 157 2 157 158
M  V30 158 1 157 159
M  V30 159 1 9 4
M  V30 160 1 19 11
M  V30 161 1 156 21
M  V30 162 1 20 7
M  V30 163 1 112 104
M  V30 164 1 151 124
M  V30 165 1 137 126
M  V30 166 1 148 142
M  V30 167 1 136 132
M  V30 168 1 1 160
M  V30 169 1 1 161
M  V30 170 1 1 162
M  V30 171 1 3 163
M  V30 172 1 3 164
M  V30 173 1 3 165
M  V30 174 1 5 166
M  V30 175 1 6 167
M  V30 176 1 9 168
M  V30 177 1 12 169
M  V30 178 1 15 170
M  V30 179 1 15 171
M  V30 180 1 15 172
M  V30 181 1 16 173
M  V30 182 1 16 174
M  V30 183 1 16 175
M  V30 184 1 17 176
M  V30 185 1 18 177
M  V30 186 1 19 178
M  V30 187 1 20 179
M  V30 188 1 22 180
M  V30 189 1 23 181
M  V30 190 1 27 182
M  V30 191 1 28 183
M  V30 192 1 28 184
M  V30 193 1 29 185
M  V30 194 1 29 186
M  V30 195 1 30 187
M  V30 196 1 30 188
M  V30 197 1 31 189
M  V30 198 1 31 190
M  V30 199 1 32 191 CFG=1
M  V30 200 1 33 192
M  V30 201 1 36 193 CFG=1
M  V30 202 1 37 194
M  V30 203 1 37 195
M  V30 204 1 38 196
M  V30 205 1 38 197
M  V30 206 1 39 198
M  V30 207 1 39 199
M  V30 208 1 40 200
M  V30 209 1 42 201
M  V30 210 1 43 202
M  V30 211 1 43 203
M  V30 212 1 44 204
M  V30 213 1 47 205 CFG=1
M  V30 214 1 48 206
M  V30 215 1 48 207
M  V30 216 1 49 208
M  V30 217 1 49 209
M  V30 218 1 50 210
M  V30 219 1 50 211
M  V30 220 1 51 212
M  V30 221 1 53 213
M  V30 222 1 54 214
M  V30 223 1 54 215
M  V30 224 1 55 216
M  V30 225 1 58 217 CFG=1
M  V30 226 1 59 218
M  V30 227 1 59 219
M  V30 228 1 60 220
M  V30 229 1 60 221
M  V30 230 1 61 222
M  V30 231 1 61 223
M  V30 232 1 62 224
M  V30 233 1 64 225
M  V30 234 1 65 226
M  V30 235 1 65 227
M  V30 236 1 66 228
M  V30 237 1 69 229 CFG=3
M  V30 238 1 70 230
M  V30 239 1 70 231
M  V30 240 1 71 232
M  V30 241 1 71 233
M  V30 242 1 72 234
M  V30 243 1 72 235
M  V30 244 1 73 236
M  V30 245 1 75 237
M  V30 246 1 76 238
M  V30 247 1 76 239
M  V30 248 1 77 240
M  V30 249 1 80 241 CFG=3
M  V30 250 1 81 242
M  V30 251 1 81 243
M  V30 252 1 82 244
M  V30 253 1 82 245
M  V30 254 1 83 246
M  V30 255 1 83 247
M  V30 256 1 84 248
M  V30 257 1 86 249
M  V30 258 1 87 250
M  V30 259 1 87 251
M  V30 260 1 88 252
M  V30 261 1 91 253 CFG=1
M  V30 262 1 92 254
M  V30 263 1 92 255
M  V30 264 1 93 256
M  V30 265 1 93 257
M  V30 266 1 94 258
M  V30 267 1 94 259
M  V30 268 1 95 260
M  V30 269 1 97 261
M  V30 270 1 98 262
M  V30 271 1 98 263
M  V30 272 1 99 264
M  V30 273 1 102 265 CFG=3
M  V30 274 1 103 266
M  V30 275 1 103 267
M  V30 276 1 105 268
M  V30 277 1 106 269
M  V30 278 1 111 270
M  V30 279 1 112 271
M  V30 280 1 113 272
M  V30 281 1 116 273
M  V30 282 1 116 274
M  V30 283 1 117 275
M  V30 284 1 117 276
M  V30 285 1 118 277
M  V30 286 1 118 278
M  V30 287 1 119 279
M  V30 288 1 119 280
M  V30 289 1 120 281
M  V30 290 1 120 282
M  V30 291 1 121 283
M  V30 292 1 125 284
M  V30 293 1 125 285
M  V30 294 1 127 286
M  V30 295 1 128 287
M  V30 296 1 129 288
M  V30 297 1 131 289
M  V30 298 1 134 290
M  V30 299 1 135 291
M  V30 300 1 138 292
M  V30 301 1 138 293
M  V30 302 1 139 294
M  V30 303 1 139 295
M  V30 304 1 140 296 CFG=1
M  V30 305 1 143 297
M  V30 306 1 144 298
M  V30 307 1 145 299
M  V30 308 1 150 300
M  V30 309 1 150 301
M  V30 310 1 151 302
M  V30 311 1 151 303
M  V30 312 1 153 304
M  V30 313 1 153 305
M  V30 314 1 155 306
M  V30 315 1 159 307
M  V30 END BOND
M  V30 END CTAB
M  END
>  <Dataset>  (173) 
ChEMBL_Kinases

>  <Ligand_Instance>  (173) 
nan

>  <PDB_ID>  (173) 
nan

>  <Standardized_SMILES>  (173) 
CN(C)c1ccc2c(c1)OC1=CC(=[N+](C)C)C=CC1C2c1ccc(C(=O)NCCCC[C@@H](NC(=O)[C@H](CCCNC(=N)N)NC(=O)[C@H](CCCNC(=N)N)NC(=O)[C@H](CCCNC(=N)N)NC(=O)[C@H](CCCNC(=N)N)NC(=O)[C@H](CCCNC(=N)N)NC(=O)[C@H](CCCNC(=N)N)NC(=O)[C@H](Cc2ccc(N=[N+]=[N-])cc2)NC(=O)CCCCCNC(=O)[C@]2(Cc3cccc(Nc4nccs4)n3)CC[C@@H](Oc3cccc(Cl)c3F)CC2)C(N)=O)cc1C(=O)O

>  <Name>  (173) 
nan

>  <Pocket>  (173) 
nan

>  <ATP_Site>  (173) 
nan

>  <Peripheral>  (173) 
nan

>  <Num_H_Atoms_ProtBoundConf>  (173) 
nan

>  <Num_Resolved_Atoms>  (173) 
nan

>  <Num_Not_Resolved_Atoms>  (173) 
nan

$$$$
CHEMBL3600871
     RDKit          3D

  0  0  0  0  0  0  0  0  0  0999 V3000
M  V30 BEGIN CTAB
M  V30 COUNTS 179 188 0 0 0
M  V30 BEGIN ATOM
M  V30 1 C 8.717240 0.792068 -2.182194 0
M  V30 2 N 8.242048 1.609731 -1.052326 0
M  V30 3 C 9.240341 1.835441 -0.019417 0
M  V30 4 C 6.884866 2.107916 -1.033213 0
M  V30 5 C 6.423638 2.870873 0.003907 0
M  V30 6 C 5.106154 3.334166 -0.007774 0
M  V30 7 C 4.349500 2.974240 -1.098642 0
M  V30 8 C 3.024595 3.435866 -1.107244 0
M  V30 9 C 2.520689 4.224709 0.007634 0
M  V30 10 C 1.898462 3.549491 1.032893 0
M  V30 11 C 1.407307 4.271967 2.096333 0
M  V30 12 C 1.508394 5.638053 2.187678 0
M  V30 13 C 0.926985 6.265814 3.365604 0
M  V30 14 O 1.183920 7.348087 3.979358 0
M  V30 15 N -0.132133 5.717528 4.099799 0
M  V30 16 C -1.091444 5.646815 5.151075 0
M  V30 17 C -0.305559 5.531217 6.470034 0
M  V30 18 C 0.609129 4.346809 6.398871 0
M  V30 19 C 0.040284 3.024764 6.157260 0
M  V30 20 C -0.850808 2.365304 7.157539 0 CFG=2
M  V30 21 N -1.300977 1.042704 6.601033 0
M  V30 22 C -0.901398 0.384719 5.437680 0
M  V30 23 O -0.088390 0.823583 4.599402 0
M  V30 24 C -1.451705 -0.954671 5.105862 0 CFG=2
M  V30 25 C -0.478388 -2.006562 5.756748 0
M  V30 26 C 0.872364 -1.800680 5.190652 0
M  V30 27 C 1.581418 -0.872372 5.963061 0
M  V30 28 C 2.881179 -0.513025 5.624082 0
M  V30 29 C 3.508042 -1.069504 4.504415 0
M  V30 30 C 2.805147 -1.998374 3.726670 0
M  V30 31 C 1.525453 -2.319375 4.106011 0
M  V30 32 N -1.331585 -1.259262 3.696436 0
M  V30 33 C -2.331226 -2.132586 3.248848 0
M  V30 34 O -3.275565 -2.701878 3.884006 0
M  V30 35 C -2.798636 -2.779460 2.028291 0 CFG=2
M  V30 36 C -3.635801 -1.707029 1.279937 0
M  V30 37 C -2.796897 -0.528265 0.971874 0
M  V30 38 C -2.775807 0.597426 1.755211 0
M  V30 39 C -1.932628 1.637284 1.392928 0
M  V30 40 C -1.161769 1.478728 0.265769 0
M  V30 41 C -1.158786 0.366377 -0.536819 0
M  V30 42 C -2.011382 -0.672615 -0.165385 0
M  V30 43 N -3.643194 -3.929096 2.281771 0
M  V30 44 C -4.149802 -4.656950 1.210457 0
M  V30 45 O -3.894523 -4.273195 0.058987 0
M  V30 46 C -4.963964 -5.849338 1.151793 0
M  V30 47 C -5.475638 -6.332679 -0.129602 0
M  V30 48 C -4.719503 -6.858294 -1.253955 0
M  V30 49 N -3.712963 -6.205368 -1.972738 0
M  V30 50 C -2.440591 -5.623506 -2.208782 0
M  V30 51 O -1.723297 -5.774110 -1.153485 0
M  V30 52 C -1.967434 -4.948078 -3.434171 0 CFG=2
M  V30 53 C -2.630142 -3.646619 -3.708177 0
M  V30 54 C -4.082958 -3.613464 -3.884424 0
M  V30 55 C -4.752791 -3.755686 -5.070638 0
M  V30 56 C -6.121170 -3.706837 -5.297885 0
M  V30 57 C -6.910919 -3.482136 -4.160180 0
M  V30 58 C -6.249920 -3.333365 -2.935435 0
M  V30 59 N -6.930458 -3.093529 -1.716816 0
M  V30 60 C -6.765315 -1.922744 -0.938628 0
M  V30 61 N -6.203703 -0.871381 -0.919665 0
M  V30 62 C -6.316735 -0.009804 0.100960 0
M  V30 63 C -7.164687 -0.348921 1.265946 0
M  V30 64 S -7.747721 -2.036763 0.676965 0
M  V30 65 N -4.933240 -3.399842 -2.834430 0
M  V30 66 C -1.925295 -5.871950 -4.622989 0
M  V30 67 C -0.736771 -5.648340 -5.527126 0
M  V30 68 C 0.594172 -5.915009 -4.803644 0 CFG=1
M  V30 69 O 1.552941 -4.967364 -5.177831 0
M  V30 70 C 2.691147 -5.150321 -5.890984 0
M  V30 71 C 3.218413 -6.293201 -6.455443 0
M  V30 72 C 4.423919 -6.251402 -7.162654 0
M  V30 73 C 5.111815 -5.082172 -7.316703 0
M  V30 74 C 4.610623 -3.904495 -6.758923 0
M  V30 75 Cl 5.514457 -2.406582 -6.958265 0
M  V30 76 C 3.413596 -3.968683 -6.060022 0
M  V30 77 F 3.014520 -2.774804 -5.554980 0
M  V30 78 C 0.284954 -5.872744 -3.325593 0
M  V30 79 C -0.495991 -4.592040 -3.124165 0
M  V30 80 C -1.989422 3.106934 7.621877 0
M  V30 81 N -3.039280 3.913813 8.132580 0
M  V30 82 O -2.750442 2.250936 7.044069 0
M  V30 83 C 2.126184 6.335480 1.178428 0
M  V30 84 C 2.609782 5.599735 0.123900 0
M  V30 85 C 3.265358 6.323603 -0.944627 0
M  V30 86 O 3.463284 7.571494 -1.047313 0
M  V30 87 O 3.837025 5.858137 -2.105668 0
M  V30 88 C 2.198338 3.114804 -2.161410 0
M  V30 89 C 0.882810 3.534583 -2.219455 0
M  V30 90 C 0.130985 3.157256 -3.316475 0
M  V30 91 C 0.631121 2.377013 -4.366053 0
M  V30 92 N -0.127967 2.049101 -5.364662 0 CHG=1 VAL=4
M  V30 93 C -1.499651 2.520616 -5.344722 0
M  V30 94 C 0.411973 1.242730 -6.439536 0
M  V30 95 C 1.955078 1.959506 -4.298433 0
M  V30 96 C 2.778220 2.301616 -3.216569 0
M  V30 97 O 4.044575 1.874088 -3.187087 0
M  V30 98 C 4.791245 2.208688 -2.151338 0
M  V30 99 C 6.117829 1.739585 -2.147564 0
M  V30 100 H 8.148110 -0.141310 -2.250901 0
M  V30 101 H 9.783215 0.596017 -2.118688 0
M  V30 102 H 8.483615 1.343839 -3.137195 0
M  V30 103 H 8.755259 2.093201 0.921118 0
M  V30 104 H 9.763563 0.848862 0.174456 0
M  V30 105 H 10.051246 2.510058 -0.348901 0
M  V30 106 H 7.027623 3.139665 0.838338 0
M  V30 107 H 4.726192 3.938413 0.798747 0
M  V30 108 H 1.815953 2.451228 0.962602 0
M  V30 109 H 0.944268 3.603070 2.845586 0
M  V30 110 H -0.417440 4.814751 3.575656 0
M  V30 111 H -1.829083 4.870233 5.141795 0
M  V30 112 H -1.618514 6.624154 5.229315 0
M  V30 113 H -1.032239 5.425370 7.273713 0
M  V30 114 H 0.201493 6.486464 6.603425 0
M  V30 115 H 1.135171 4.324250 7.410203 0
M  V30 116 H 1.459915 4.507687 5.690037 0
M  V30 117 H -0.524125 3.046377 5.172981 0
M  V30 118 H 0.890668 2.280435 5.981717 0
M  V30 119 H -0.126216 2.046644 7.975234 0
M  V30 120 H -2.025169 0.526240 7.187340 0
M  V30 121 H -2.426117 -1.176887 5.504661 0
M  V30 122 H -0.863831 -2.974318 5.398155 0
M  V30 123 H -0.524751 -1.962522 6.837772 0
M  V30 124 H 1.214930 -0.360547 6.870823 0
M  V30 125 H 3.463631 0.192649 6.182760 0
M  V30 126 H 4.501559 -0.863287 4.151264 0
M  V30 127 H 3.222295 -2.453665 2.865267 0
M  V30 128 H 0.866901 -3.034013 3.586794 0
M  V30 129 H -0.754881 -1.072132 2.860072 0
M  V30 130 H -2.061240 -3.054275 1.275818 0
M  V30 131 H -4.061496 -2.063685 0.355728 0
M  V30 132 H -4.422600 -1.405778 1.993529 0
M  V30 133 H -3.440657 0.558487 2.596348 0
M  V30 134 H -1.942204 2.516941 2.027323 0
M  V30 135 H -0.524119 2.308721 0.023130 0
M  V30 136 H -0.521989 0.304179 -1.417778 0
M  V30 137 H -2.005344 -1.565351 -0.808191 0
M  V30 138 H -3.970231 -4.347489 3.207068 0
M  V30 139 H -4.432149 -6.725850 1.641438 0
M  V30 140 H -5.829740 -5.692554 1.878560 0
M  V30 141 H -6.237210 -5.538197 -0.480007 0
M  V30 142 H -6.243230 -7.186236 0.124255 0
M  V30 143 H -4.185966 -7.843094 -0.834338 0
M  V30 144 H -5.402958 -7.375484 -2.018024 0
M  V30 145 H -4.164720 -6.031489 -2.946412 0
M  V30 146 H -2.090405 -3.074408 -4.517370 0
M  V30 147 H -2.390385 -3.009023 -2.787101 0
M  V30 148 H -4.188514 -3.922956 -5.978970 0
M  V30 149 H -6.568377 -3.826364 -6.254849 0
M  V30 150 H -7.988286 -3.422307 -4.201357 0
M  V30 151 H -7.526894 -3.923048 -1.573508 0
M  V30 152 H -5.712626 0.890229 -0.094821 0
M  V30 153 H -7.127436 0.491306 2.000376 0
M  V30 154 H -2.820294 -5.743392 -5.289935 0
M  V30 155 H -1.902254 -6.944991 -4.308939 0
M  V30 156 H -0.806050 -6.440136 -6.317171 0
M  V30 157 H -0.747759 -4.680459 -6.034943 0
M  V30 158 H 0.980375 -6.918041 -5.049179 0
M  V30 159 H 2.606132 -7.173223 -6.284391 0
M  V30 160 H 4.737935 -7.200099 -7.559919 0
M  V30 161 H 6.052007 -5.056153 -7.873606 0
M  V30 162 H 1.197941 -5.902317 -2.695706 0
M  V30 163 H -0.312433 -6.765955 -3.070463 0
M  V30 164 H -0.375241 -4.182590 -2.122255 0
M  V30 165 H -0.247081 -3.833041 -3.894769 0
M  V30 166 H -3.298205 3.631889 9.125150 0
M  V30 167 H -3.440917 4.661095 7.531715 0
M  V30 168 H 2.157895 7.394501 1.329724 0
M  V30 169 H 4.771905 6.016023 -2.426263 0
M  V30 170 H 0.484635 4.136695 -1.421115 0
M  V30 171 H -0.905261 3.501912 -3.348941 0
M  V30 172 H -1.572056 3.636881 -5.261024 0
M  V30 173 H -2.017232 2.239848 -6.286476 0
M  V30 174 H -2.027075 2.103858 -4.465411 0
M  V30 175 H -0.451098 1.033608 -7.126461 0
M  V30 176 H 1.101705 1.876003 -7.015974 0
M  V30 177 H 0.865174 0.309908 -6.070824 0
M  V30 178 H 2.309420 1.364530 -5.115504 0
M  V30 179 H 6.487082 1.135665 -2.962864 0
M  V30 END ATOM
M  V30 BEGIN BOND
M  V30 1 1 1 2
M  V30 2 1 2 3
M  V30 3 1 2 4
M  V30 4 2 4 5
M  V30 5 1 5 6
M  V30 6 2 6 7
M  V30 7 1 7 8
M  V30 8 1 8 9
M  V30 9 2 9 10
M  V30 10 1 10 11
M  V30 11 2 11 12
M  V30 12 1 12 13
M  V30 13 2 13 14
M  V30 14 1 13 15
M  V30 15 1 15 16
M  V30 16 1 16 17
M  V30 17 1 17 18
M  V30 18 1 18 19
M  V30 19 1 19 20
M  V30 20 1 20 21
M  V30 21 1 21 22
M  V30 22 2 22 23
M  V30 23 1 22 24
M  V30 24 1 24 25
M  V30 25 1 25 26
M  V30 26 2 26 27
M  V30 27 1 27 28
M  V30 28 2 28 29
M  V30 29 1 29 30
M  V30 30 2 30 31
M  V30 31 1 24 32
M  V30 32 1 32 33
M  V30 33 2 33 34
M  V30 34 1 33 35
M  V30 35 1 35 36
M  V30 36 1 36 37
M  V30 37 2 37 38
M  V30 38 1 38 39
M  V30 39 2 39 40
M  V30 40 1 40 41
M  V30 41 2 41 42
M  V30 42 1 35 43
M  V30 43 1 43 44
M  V30 44 2 44 45
M  V30 45 1 44 46
M  V30 46 1 46 47
M  V30 47 1 47 48
M  V30 48 1 48 49
M  V30 49 1 49 50
M  V30 50 2 50 51
M  V30 51 1 50 52
M  V30 52 1 52 53 CFG=3
M  V30 53 1 53 54
M  V30 54 2 54 55
M  V30 55 1 55 56
M  V30 56 2 56 57
M  V30 57 1 57 58
M  V30 58 1 58 59
M  V30 59 1 59 60
M  V30 60 2 60 61
M  V30 61 1 61 62
M  V30 62 2 62 63
M  V30 63 1 63 64
M  V30 64 2 58 65
M  V30 65 1 52 66
M  V30 66 1 66 67
M  V30 67 1 67 68
M  V30 68 1 68 69
M  V30 69 1 69 70
M  V30 70 2 70 71
M  V30 71 1 71 72
M  V30 72 2 72 73
M  V30 73 1 73 74
M  V30 74 1 74 75
M  V30 75 2 74 76
M  V30 76 1 76 77
M  V30 77 1 68 78
M  V30 78 1 78 79
M  V30 79 1 20 80
M  V30 80 1 80 81
M  V30 81 2 80 82
M  V30 82 1 12 83
M  V30 83 2 83 84
M  V30 84 1 84 85
M  V30 85 2 85 86
M  V30 86 1 85 87
M  V30 87 2 8 88
M  V30 88 1 88 89
M  V30 89 2 89 90
M  V30 90 1 90 91
M  V30 91 2 91 92 CFG=2
M  V30 92 1 92 93
M  V30 93 1 92 94
M  V30 94 1 91 95
M  V30 95 2 95 96
M  V30 96 1 96 97
M  V30 97 1 97 98
M  V30 98 2 98 99
M  V30 99 1 99 4
M  V30 100 1 98 7
M  V30 101 1 84 9
M  V30 102 1 96 88
M  V30 103 1 31 26
M  V30 104 1 42 37
M  V30 105 1 79 52
M  V30 106 1 65 54
M  V30 107 1 76 70
M  V30 108 1 64 60
M  V30 109 1 1 100
M  V30 110 1 1 101
M  V30 111 1 1 102
M  V30 112 1 3 103
M  V30 113 1 3 104
M  V30 114 1 3 105
M  V30 115 1 5 106
M  V30 116 1 6 107
M  V30 117 1 10 108
M  V30 118 1 11 109
M  V30 119 1 15 110
M  V30 120 1 16 111
M  V30 121 1 16 112
M  V30 122 1 17 113
M  V30 123 1 17 114
M  V30 124 1 18 115
M  V30 125 1 18 116
M  V30 126 1 19 117
M  V30 127 1 19 118
M  V30 128 1 20 119 CFG=1
M  V30 129 1 21 120
M  V30 130 1 24 121 CFG=1
M  V30 131 1 25 122
M  V30 132 1 25 123
M  V30 133 1 27 124
M  V30 134 1 28 125
M  V30 135 1 29 126
M  V30 136 1 30 127
M  V30 137 1 31 128
M  V30 138 1 32 129
M  V30 139 1 35 130 CFG=3
M  V30 140 1 36 131
M  V30 141 1 36 132
M  V30 142 1 38 133
M  V30 143 1 39 134
M  V30 144 1 40 135
M  V30 145 1 41 136
M  V30 146 1 42 137
M  V30 147 1 43 138
M  V30 148 1 46 139
M  V30 149 1 46 140
M  V30 150 1 47 141
M  V30 151 1 47 142
M  V30 152 1 48 143
M  V30 153 1 48 144
M  V30 154 1 49 145
M  V30 155 1 53 146
M  V30 156 1 53 147
M  V30 157 1 55 148
M  V30 158 1 56 149
M  V30 159 1 57 150
M  V30 160 1 59 151
M  V30 161 1 62 152
M  V30 162 1 63 153
M  V30 163 1 66 154
M  V30 164 1 66 155
M  V30 165 1 67 156
M  V30 166 1 67 157
M  V30 167 1 68 158 CFG=3
M  V30 168 1 71 159
M  V30 169 1 72 160
M  V30 170 1 73 161
M  V30 171 1 78 162
M  V30 172 1 78 163
M  V30 173 1 79 164
M  V30 174 1 79 165
M  V30 175 1 81 166
M  V30 176 1 81 167
M  V30 177 1 83 168
M  V30 178 1 87 169
M  V30 179 1 89 170
M  V30 180 1 90 171
M  V30 181 1 93 172
M  V30 182 1 93 173
M  V30 183 1 93 174
M  V30 184 1 94 175
M  V30 185 1 94 176
M  V30 186 1 94 177
M  V30 187 1 95 178
M  V30 188 1 99 179
M  V30 END BOND
M  V30 END CTAB
M  END
>  <Dataset>  (174) 
ChEMBL_Kinases

>  <Ligand_Instance>  (174) 
nan

>  <PDB_ID>  (174) 
nan

>  <Standardized_SMILES>  (174) 
CN(C)c1ccc2c(-c3ccc(C(=O)NCCCC[C@H](NC(=O)[C@H](Cc4ccccc4)NC(=O)[C@H](Cc4ccccc4)NC(=O)CCCNC(=O)[C@]4(Cc5cccc(Nc6nccs6)n5)CC[C@@H](Oc5cccc(Cl)c5F)CC4)C(N)=O)cc3C(=O)O)c3ccc(=[N+](C)C)cc-3oc2c1

>  <Name>  (174) 
nan

>  <Pocket>  (174) 
nan

>  <ATP_Site>  (174) 
nan

>  <Peripheral>  (174) 
nan

>  <Num_H_Atoms_ProtBoundConf>  (174) 
nan

>  <Num_Resolved_Atoms>  (174) 
nan

>  <Num_Not_Resolved_Atoms>  (174) 
nan

$$$$
CHEMBL3601120
     RDKit          3D

  0  0  0  0  0  0  0  0  0  0999 V3000
M  V30 BEGIN CTAB
M  V30 COUNTS 49 51 0 0 0
M  V30 BEGIN ATOM
M  V30 1 C 0.655697 -5.015929 1.885082 0
M  V30 2 C 1.231376 -4.255761 2.797782 0
M  V30 3 C 2.321310 -3.398845 2.297337 0
M  V30 4 O 2.543415 -3.544965 1.052719 0
M  V30 5 N 3.086239 -2.474338 3.083766 0
M  V30 6 C 3.978118 -1.934591 2.080907 0
M  V30 7 C 5.256074 -2.379445 1.837686 0
M  V30 8 C 5.954345 -1.777138 0.815806 0
M  V30 9 C 5.443106 -0.772159 0.043640 0
M  V30 10 C 4.169773 -0.303205 0.258004 0
M  V30 11 C 3.337906 0.741325 -0.448818 0
M  V30 12 N 2.532127 0.089046 -1.479016 0
M  V30 13 C 1.146076 0.207880 -1.758941 0
M  V30 14 N 0.507391 1.025703 -0.911276 0
M  V30 15 C -0.817473 1.238397 -1.014901 0
M  V30 16 N -1.814494 1.986655 -0.323847 0
M  V30 17 C -2.722616 1.295021 0.552748 0
M  V30 18 C -2.725169 -0.057998 0.807809 0
M  V30 19 N -3.740240 -0.267068 1.654363 0
M  V30 20 N -4.374337 0.850005 1.949893 0
M  V30 21 C -5.502163 1.141523 2.809503 0
M  V30 22 C -6.763169 0.994808 1.987869 0
M  V30 23 O -6.789706 -0.339930 1.543161 0
M  V30 24 C -3.754853 1.859078 1.269758 0
M  V30 25 N -1.467879 0.588860 -2.011667 0
M  V30 26 C -0.860846 -0.240209 -2.882030 0
M  V30 27 C 0.497224 -0.462122 -2.781037 0
M  V30 28 Cl 1.431823 -1.506436 -3.826209 0
M  V30 29 C 3.457681 -0.909890 1.291822 0
M  V30 30 H -0.155788 -5.690635 2.104957 0
M  V30 31 H 0.627423 -5.304402 0.855144 0
M  V30 32 H 0.832783 -4.364445 3.793660 0
M  V30 33 H 2.861753 -2.395960 4.086815 0
M  V30 34 H 5.650543 -3.170553 2.453362 0
M  V30 35 H 6.955839 -2.085055 0.583384 0
M  V30 36 H 5.903259 -0.249249 -0.765059 0
M  V30 37 H 2.787683 1.302540 0.288379 0
M  V30 38 H 4.029983 1.433533 -0.999568 0
M  V30 39 H 3.092737 -0.551328 -2.076488 0
M  V30 40 H -1.864951 2.996673 -0.452662 0
M  V30 41 H -2.061332 -0.835591 0.425147 0
M  V30 42 H -5.408666 2.150370 3.252671 0
M  V30 43 H -5.510434 0.368076 3.594419 0
M  V30 44 H -6.662631 1.628294 1.098107 0
M  V30 45 H -7.691259 1.193891 2.566079 0
M  V30 46 H -6.164547 -0.457281 0.794741 0
M  V30 47 H -3.939321 2.919546 1.218718 0
M  V30 48 H -1.343344 -0.778311 -3.694418 0
M  V30 49 H 2.436434 -0.595834 1.536299 0
M  V30 END ATOM
M  V30 BEGIN BOND
M  V30 1 2 1 2
M  V30 2 1 2 3
M  V30 3 2 3 4
M  V30 4 1 3 5
M  V30 5 1 5 6
M  V30 6 2 6 7
M  V30 7 1 7 8
M  V30 8 2 8 9
M  V30 9 1 9 10
M  V30 10 1 10 11
M  V30 11 1 11 12
M  V30 12 1 12 13
M  V30 13 2 13 14
M  V30 14 1 14 15
M  V30 15 1 15 16
M  V30 16 1 16 17
M  V30 17 1 17 18
M  V30 18 2 18 19
M  V30 19 1 19 20
M  V30 20 1 20 21
M  V30 21 1 21 22
M  V30 22 1 22 23
M  V30 23 1 20 24
M  V30 24 2 15 25
M  V30 25 1 25 26
M  V30 26 2 26 27
M  V30 27 1 27 28
M  V30 28 2 10 29
M  V30 29 1 29 6
M  V30 30 1 27 13
M  V30 31 2 24 17
M  V30 32 1 1 30
M  V30 33 1 1 31
M  V30 34 1 2 32
M  V30 35 1 5 33
M  V30 36 1 7 34
M  V30 37 1 8 35
M  V30 38 1 9 36
M  V30 39 1 11 37
M  V30 40 1 11 38
M  V30 41 1 12 39
M  V30 42 1 16 40
M  V30 43 1 18 41
M  V30 44 1 21 42
M  V30 45 1 21 43
M  V30 46 1 22 44
M  V30 47 1 22 45
M  V30 48 1 23 46
M  V30 49 1 24 47
M  V30 50 1 26 48
M  V30 51 1 29 49
M  V30 END BOND
M  V30 END CTAB
M  END
>  <Dataset>  (175) 
ChEMBL_Kinases

>  <Ligand_Instance>  (175) 
nan

>  <PDB_ID>  (175) 
nan

>  <Standardized_SMILES>  (175) 
C=CC(=O)Nc1cccc(CNc2nc(Nc3cnn(CCO)c3)ncc2Cl)c1

>  <Name>  (175) 
nan

>  <Pocket>  (175) 
nan

>  <ATP_Site>  (175) 
nan

>  <Peripheral>  (175) 
nan

>  <Num_H_Atoms_ProtBoundConf>  (175) 
nan

>  <Num_Resolved_Atoms>  (175) 
nan

>  <Num_Not_Resolved_Atoms>  (175) 
nan

$$$$
CHEMBL3601223
     RDKit          3D

  0  0  0  0  0  0  0  0  0  0999 V3000
M  V30 BEGIN CTAB
M  V30 COUNTS 66 69 0 0 0
M  V30 BEGIN ATOM
M  V30 1 C 0.865939 -2.937499 3.917436 0
M  V30 2 C 2.055851 -2.363425 4.083112 0
M  V30 3 C 2.753102 -1.163496 3.645011 0
M  V30 4 O 3.926013 -0.975147 4.050887 0
M  V30 5 N 2.010821 -0.308620 2.780476 0
M  V30 6 C 2.746324 0.867090 2.381241 0
M  V30 7 C 4.036096 0.745252 1.869962 0
M  V30 8 C 4.691013 1.892889 1.491087 0
M  V30 9 C 4.057242 3.087172 1.630197 0
M  V30 10 C 2.773005 3.250442 2.134815 0
M  V30 11 C 2.267235 4.647265 2.196483 0
M  V30 12 N 1.647751 5.105443 0.995612 0
M  V30 13 C 0.510666 4.602463 0.316367 0
M  V30 14 N -0.154645 3.538957 0.783001 0
M  V30 15 C -1.227438 3.006409 0.205334 0
M  V30 16 N -2.006919 1.886333 0.597878 0
M  V30 17 C -1.857936 0.536453 0.183710 0
M  V30 18 C -0.881470 0.164869 -0.710950 0
M  V30 19 C -0.640912 -1.104560 -1.188102 0
M  V30 20 C -1.493891 -2.080086 -0.691228 0
M  V30 21 N -1.365241 -3.436168 -1.088103 0
M  V30 22 C -0.374330 -4.005536 -1.972659 0
M  V30 23 C -1.152986 -4.722215 -3.083621 0
M  V30 24 N -1.726795 -5.910186 -2.487417 0
M  V30 25 C -0.887607 -7.031504 -2.855203 0
M  V30 26 C -1.900078 -5.811709 -1.056518 0
M  V30 27 C -2.287063 -4.443336 -0.601017 0
M  V30 28 C -2.487740 -1.757258 0.207128 0
M  V30 29 C -2.684137 -0.469668 0.652388 0
M  V30 30 O -3.670342 -0.119006 1.550290 0
M  V30 31 C -4.544682 -1.110572 2.058486 0
M  V30 32 N -1.688923 3.563799 -0.926625 0
M  V30 33 C -1.107063 4.628316 -1.485188 0
M  V30 34 C -0.001992 5.147062 -0.857545 0
M  V30 35 Cl 0.809262 6.553293 -1.546277 0
M  V30 36 C 2.102784 2.103722 2.520065 0
M  V30 37 H -0.126191 -2.965341 3.500304 0
M  V30 38 H -0.086727 -2.827967 3.435238 0
M  V30 39 H 2.147579 -3.262880 4.667025 0
M  V30 40 H 1.028310 -0.540501 2.483135 0
M  V30 41 H 4.502202 -0.215030 1.776623 0
M  V30 42 H 5.702737 1.813186 1.091823 0
M  V30 43 H 4.645640 3.959071 1.305665 0
M  V30 44 H 3.103409 5.294090 2.489756 0
M  V30 45 H 1.501312 4.661824 3.004613 0
M  V30 46 H 2.078017 5.945000 0.515779 0
M  V30 47 H -2.747879 2.165015 1.262109 0
M  V30 48 H -0.236979 0.952337 -1.078711 0
M  V30 49 H 0.146314 -1.324644 -1.894013 0
M  V30 50 H 0.333156 -3.282525 -2.381684 0
M  V30 51 H 0.129893 -4.831040 -1.406072 0
M  V30 52 H -0.464822 -4.986682 -3.899123 0
M  V30 53 H -2.000946 -4.091848 -3.420378 0
M  V30 54 H -0.009733 -7.090857 -2.190142 0
M  V30 55 H -0.502005 -6.822533 -3.882739 0
M  V30 56 H -1.490512 -7.969023 -2.865961 0
M  V30 57 H -2.767329 -6.493388 -0.818087 0
M  V30 58 H -1.048589 -6.235006 -0.515058 0
M  V30 59 H -2.281736 -4.454348 0.516041 0
M  V30 60 H -3.302911 -4.211690 -0.995406 0
M  V30 61 H -3.131900 -2.559467 0.567968 0
M  V30 62 H -5.332050 -0.657820 2.707568 0
M  V30 63 H -3.990679 -1.904447 2.578203 0
M  V30 64 H -5.033740 -1.579209 1.156131 0
M  V30 65 H -1.439803 5.116870 -2.398521 0
M  V30 66 H 1.121828 2.247311 2.904638 0
M  V30 END ATOM
M  V30 BEGIN BOND
M  V30 1 2 1 2
M  V30 2 1 2 3
M  V30 3 2 3 4
M  V30 4 1 3 5
M  V30 5 1 5 6
M  V30 6 2 6 7
M  V30 7 1 7 8
M  V30 8 2 8 9
M  V30 9 1 9 10
M  V30 10 1 10 11
M  V30 11 1 11 12
M  V30 12 1 12 13
M  V30 13 2 13 14
M  V30 14 1 14 15
M  V30 15 1 15 16
M  V30 16 1 16 17
M  V30 17 2 17 18
M  V30 18 1 18 19
M  V30 19 2 19 20
M  V30 20 1 20 21
M  V30 21 1 21 22
M  V30 22 1 22 23
M  V30 23 1 23 24
M  V30 24 1 24 25
M  V30 25 1 24 26
M  V30 26 1 26 27
M  V30 27 1 20 28
M  V30 28 2 28 29
M  V30 29 1 29 30
M  V30 30 1 30 31
M  V30 31 2 15 32
M  V30 32 1 32 33
M  V30 33 2 33 34
M  V30 34 1 34 35
M  V30 35 2 10 36
M  V30 36 1 36 6
M  V30 37 1 34 13
M  V30 38 1 29 17
M  V30 39 1 27 21
M  V30 40 1 1 37
M  V30 41 1 1 38
M  V30 42 1 2 39
M  V30 43 1 5 40
M  V30 44 1 7 41
M  V30 45 1 8 42
M  V30 46 1 9 43
M  V30 47 1 11 44
M  V30 48 1 11 45
M  V30 49 1 12 46
M  V30 50 1 16 47
M  V30 51 1 18 48
M  V30 52 1 19 49
M  V30 53 1 22 50
M  V30 54 1 22 51
M  V30 55 1 23 52
M  V30 56 1 23 53
M  V30 57 1 25 54
M  V30 58 1 25 55
M  V30 59 1 25 56
M  V30 60 1 26 57
M  V30 61 1 26 58
M  V30 62 1 27 59
M  V30 63 1 27 60
M  V30 64 1 28 61
M  V30 65 1 31 62
M  V30 66 1 31 63
M  V30 67 1 31 64
M  V30 68 1 33 65
M  V30 69 1 36 66
M  V30 END BOND
M  V30 END CTAB
M  END
>  <Dataset>  (176) 
ChEMBL_Kinases

>  <Ligand_Instance>  (176) 
nan

>  <PDB_ID>  (176) 
nan

>  <Standardized_SMILES>  (176) 
C=CC(=O)Nc1cccc(CNc2nc(Nc3ccc(N4CCN(C)CC4)cc3OC)ncc2Cl)c1

>  <Name>  (176) 
nan

>  <Pocket>  (176) 
nan

>  <ATP_Site>  (176) 
nan

>  <Peripheral>  (176) 
nan

>  <Num_H_Atoms_ProtBoundConf>  (176) 
nan

>  <Num_Resolved_Atoms>  (176) 
nan

>  <Num_Not_Resolved_Atoms>  (176) 
nan

$$$$
CHEMBL3600762
     RDKit          3D

  0  0  0  0  0  0  0  0  0  0999 V3000
M  V30 BEGIN CTAB
M  V30 COUNTS 365 376 0 0 0
M  V30 BEGIN ATOM
M  V30 1 C 0.095390 -7.633302 -8.413494 0
M  V30 2 C 0.437249 -6.191032 -8.163961 0
M  V30 3 N 1.648901 -5.999199 -7.450173 0
M  V30 4 C 2.059743 -4.640208 -7.108933 0
M  V30 5 C 1.737276 -3.598931 -7.872137 0
M  V30 6 C 1.928514 -2.180116 -7.881936 0
M  V30 7 C 1.676697 -1.121253 -8.578231 0
M  V30 8 C 2.009644 0.239810 -8.307185 0
M  V30 9 N 2.539248 0.986081 -7.429666 0 CHG=1 VAL=4
M  V30 10 C 3.077076 0.588897 -6.149958 0
M  V30 11 C 2.107890 0.976094 -5.026780 0
M  V30 12 C 2.561268 2.372276 -7.777651 0
M  V30 13 C 3.021664 3.539646 -7.199394 0
M  V30 14 C 2.909146 4.746929 -7.814936 0
M  V30 15 C 2.316865 4.817368 -9.062502 0
M  V30 16 S 2.263724 6.415432 -9.751908 0
M  V30 17 O 2.253405 6.404325 -11.260975 0
M  V30 18 O 3.429527 7.275154 -9.275334 0
M  V30 19 O 0.861035 7.198079 -9.257843 0
M  V30 20 C 1.849474 3.646788 -9.645538 0
M  V30 21 C 1.970987 2.450268 -9.011394 0
M  V30 22 C 1.570101 1.122311 -9.439376 0
M  V30 23 C 2.325040 0.777851 -10.714815 0
M  V30 24 C 0.081397 1.074157 -9.607260 0
M  V30 25 C 2.923539 -4.502441 -5.993508 0
M  V30 26 C 4.038675 -3.546511 -5.977781 0
M  V30 27 C 2.445373 -4.792637 -4.603722 0
M  V30 28 C 1.267843 -4.127047 -4.053788 0
M  V30 29 C 1.265540 -2.634746 -4.160261 0
M  V30 30 C 0.014813 -2.158956 -3.437928 0
M  V30 31 O -0.073491 -2.694808 -2.299211 0
M  V30 32 N -0.912795 -1.238563 -3.991313 0
M  V30 33 C -2.057136 -0.838603 -3.186997 0
M  V30 34 C -1.585970 0.034967 -2.048050 0
M  V30 35 C -2.674725 0.439243 -1.123813 0
M  V30 36 C -2.199350 1.488592 -0.145015 0
M  V30 37 C -1.840127 2.774126 -0.956189 0 CFG=1
M  V30 38 N -3.129015 3.049508 -1.586682 0
M  V30 39 C -3.189357 3.035576 -3.019376 0
M  V30 40 O -2.258313 2.833575 -3.863213 0
M  V30 41 C -4.536889 3.284573 -3.722734 0 CFG=1
M  V30 42 C -4.787681 2.023198 -4.463393 0
M  V30 43 C -6.052099 1.960434 -5.263417 0
M  V30 44 C -6.064208 0.570083 -5.920623 0
M  V30 45 N -6.022013 -0.484598 -4.935708 0
M  V30 46 C -5.980200 -1.848088 -5.348556 0
M  V30 47 N -5.717259 -2.137815 -6.583464 0
M  V30 48 N -6.210341 -2.930164 -4.444444 0
M  V30 49 N -5.461473 3.522532 -2.622396 0
M  V30 50 C -5.770994 4.852842 -2.261968 0
M  V30 51 O -5.155151 5.604975 -3.024445 0
M  V30 52 C -6.682505 5.016462 -1.152817 0 CFG=1
M  V30 53 C -7.942922 5.844394 -1.578940 0
M  V30 54 C -7.452643 7.210118 -2.011135 0
M  V30 55 C -8.564465 8.143296 -2.411407 0
M  V30 56 N -7.906290 9.394118 -2.791403 0
M  V30 57 C -7.285756 10.089163 -1.712068 0
M  V30 58 N -7.681663 9.888024 -0.514782 0
M  V30 59 N -6.217040 11.006523 -1.957300 0
M  V30 60 N -7.083042 3.871803 -0.409561 0
M  V30 61 C -8.302762 3.281609 -0.063569 0
M  V30 62 O -9.377519 3.835862 -0.526150 0
M  V30 63 C -8.723820 2.125760 0.740930 0 CFG=1
M  V30 64 C -9.405220 1.040153 -0.039515 0
M  V30 65 C -8.498573 0.476319 -1.112740 0
M  V30 66 C -9.083488 -0.638096 -1.932210 0
M  V30 67 N -10.266302 -0.293796 -2.682013 0
M  V30 68 C -10.799703 -1.368299 -3.484337 0
M  V30 69 N -10.537529 -2.618191 -3.208361 0
M  V30 70 N -11.625546 -1.128252 -4.606214 0
M  V30 71 N -7.707050 1.565748 1.617177 0
M  V30 72 C -6.905527 2.253508 2.565102 0
M  V30 73 O -7.053167 3.519929 2.606459 0
M  V30 74 C -5.978492 1.549598 3.437908 0 CFG=1
M  V30 75 C -5.605025 0.189553 2.942690 0
M  V30 76 C -4.642526 -0.464724 3.928174 0
M  V30 77 C -4.307184 -1.854735 3.513704 0
M  V30 78 N -5.542164 -2.621452 3.500939 0
M  V30 79 C -5.590027 -4.013159 3.220642 0
M  V30 80 N -4.474263 -4.650842 3.199122 0
M  V30 81 N -6.794809 -4.747827 2.982709 0
M  V30 82 N -4.885088 2.220615 4.019734 0
M  V30 83 C -4.770445 2.839239 5.312721 0
M  V30 84 O -5.912639 2.726756 5.888123 0
M  V30 85 C -3.776043 3.509058 6.096397 0 CFG=1
M  V30 86 C -3.988309 3.131591 7.566136 0
M  V30 87 C -3.897932 1.694736 7.903467 0
M  V30 88 C -4.221302 1.619934 9.419060 0
M  V30 89 N -3.306153 2.421368 10.191258 0
M  V30 90 C -3.495522 2.511374 11.617471 0
M  V30 91 N -4.625303 2.044385 12.105687 0
M  V30 92 N -2.529832 3.090291 12.482819 0
M  V30 93 N -2.418022 3.367758 5.646897 0
M  V30 94 C -1.230436 3.243977 6.374838 0
M  V30 95 O -1.063100 3.194391 7.610511 0
M  V30 96 C 0.204576 3.127129 6.077200 0 CFG=1
M  V30 97 C 0.834123 4.551360 6.010836 0
M  V30 98 C 0.129740 5.265718 4.911687 0
M  V30 99 C 0.642660 6.695509 4.770663 0
M  V30 100 N 2.089129 6.623856 4.525893 0
M  V30 101 C 2.587072 6.103277 3.301388 0
M  V30 102 N 1.834542 5.805179 2.308693 0
M  V30 103 N 4.011483 5.938821 3.278193 0
M  V30 104 N 0.904676 2.443790 7.179930 0
M  V30 105 C 1.830681 1.410551 6.830880 0
M  V30 106 O 2.148388 0.999259 5.682521 0
M  V30 107 C 2.801106 0.371162 7.161512 0 CFG=2
M  V30 108 C 3.617489 0.686893 8.405346 0
M  V30 109 C 4.568052 -0.440351 8.645156 0
M  V30 110 C 4.021193 -1.623797 9.099752 0
M  V30 111 C 4.786244 -2.757057 9.343675 0
M  V30 112 C 6.163141 -2.749313 9.132907 0
M  V30 113 C 7.177898 -3.780455 9.211489 0
M  V30 114 O 8.413513 -3.566109 9.473641 0
M  V30 115 C 6.921220 -5.206266 8.989270 0
M  V30 116 C 5.800471 -5.583284 8.261451 0
M  V30 117 C 5.479606 -6.915716 7.986809 0
M  V30 118 C 6.306231 -7.916040 8.448811 0
M  V30 119 C 7.422964 -7.553378 9.172208 0
M  V30 120 C 7.712206 -6.226091 9.428313 0
M  V30 121 C 6.721645 -1.563613 8.684042 0
M  V30 122 C 5.963151 -0.455881 8.449769 0
M  V30 123 N 3.492413 -0.190672 6.061446 0
M  V30 124 C 4.654580 -0.241096 5.342755 0
M  V30 125 O 5.684206 0.436269 5.532544 0
M  V30 126 C 5.539898 -0.718909 4.290959 0 CFG=2
M  V30 127 C 5.891113 -2.198506 4.372137 0
M  V30 128 C 4.760652 -3.130691 4.241846 0
M  V30 129 C 4.568956 -3.629413 2.930994 0
M  V30 130 C 3.545828 -4.524352 2.694748 0
M  V30 131 C 2.658259 -4.999139 3.616636 0
M  V30 132 C 1.590662 -5.943001 3.456211 0
M  V30 133 O 1.115083 -6.430510 4.556647 0
M  V30 134 C 0.958988 -6.437165 2.260373 0
M  V30 135 C 0.882104 -5.892339 0.998304 0
M  V30 136 C 0.272216 -6.404356 -0.125467 0
M  V30 137 C -0.347950 -7.646485 0.041077 0
M  V30 138 C -0.329644 -8.288142 1.264241 0
M  V30 139 C 0.310443 -7.669051 2.310976 0
M  V30 140 C 2.889325 -4.474108 4.887746 0
M  V30 141 C 3.890862 -3.579997 5.210102 0
M  V30 142 N 6.823024 -0.018036 4.236295 0
M  V30 143 C 7.286261 0.499396 2.988293 0
M  V30 144 O 6.356422 0.171821 2.245689 0
M  V30 145 C 8.416058 1.224033 2.374880 0
M  V30 146 C 8.047090 1.875813 1.045906 0
M  V30 147 C 7.123192 3.022319 1.182563 0
M  V30 148 N 6.615295 3.504938 -0.085348 0
M  V30 149 C 5.712240 2.619507 -0.758831 0
M  V30 150 O 5.959191 1.914615 0.243788 0
M  V30 151 C 4.784110 1.764991 -1.498706 0 CFG=2
M  V30 152 C 5.166908 1.329901 -2.849148 0
M  V30 153 C 6.391232 0.513565 -2.982954 0
M  V30 154 C 6.190007 -0.872417 -2.849789 0
M  V30 155 C 7.125768 -1.890654 -2.906992 0
M  V30 156 C 8.433637 -1.425366 -3.128492 0
M  V30 157 C 8.667199 -0.066806 -3.265689 0
M  V30 158 N 10.008238 0.204969 -3.503491 0
M  V30 159 C 10.847533 0.493432 -2.205689 0
M  V30 160 N 10.458064 0.530459 -0.799281 0
M  V30 161 C 11.579220 0.824803 -0.162771 0
M  V30 162 C 12.972849 1.094014 -0.507604 0
M  V30 163 S 12.692464 0.876298 -2.363255 0
M  V30 164 N 7.696819 0.848211 -3.196379 0
M  V30 165 C 3.463523 2.528397 -1.580820 0
M  V30 166 C 2.249949 1.678344 -1.280270 0
M  V30 167 C 2.191135 1.308508 0.153720 0 CFG=1
M  V30 168 O 1.559779 0.089183 0.432082 0
M  V30 169 C 0.790133 -0.199369 1.534727 0
M  V30 170 C 0.451586 0.619411 2.583466 0
M  V30 171 C -0.335775 0.156673 3.592731 0
M  V30 172 C -0.837375 -1.111257 3.661888 0
M  V30 173 C -0.500038 -1.976463 2.586499 0
M  V30 174 Cl -1.153350 -3.623559 2.644248 0
M  V30 175 C 0.293226 -1.506061 1.571313 0
M  V30 176 F 0.546852 -2.410793 0.590718 0
M  V30 177 C 3.686753 1.172477 0.598220 0
M  V30 178 C 4.439150 0.566465 -0.593633 0
M  V30 179 C -1.568469 3.847882 0.034201 0
M  V30 180 N -0.799606 4.525992 1.054369 0
M  V30 181 O -2.698372 4.188299 -0.465888 0
M  V30 182 C 3.682103 -5.901036 -6.251368 0
M  V30 183 C 4.886883 -6.455602 -5.878601 0
M  V30 184 C 5.083282 -7.785247 -6.143481 0
M  V30 185 S 6.620302 -8.502275 -5.666921 0
M  V30 186 O 6.562991 -10.015531 -5.809055 0
M  V30 187 O 7.023375 -8.162125 -4.285920 0
M  V30 188 O 7.757444 -8.019294 -6.837603 0
M  V30 189 C 4.170390 -8.602870 -6.753064 0
M  V30 190 C 2.951268 -8.073840 -7.144561 0
M  V30 191 C 2.772455 -6.729944 -6.870456 0
M  V30 192 H -0.004188 -8.228287 -7.503853 0
M  V30 193 H 0.736132 -8.044171 -9.219768 0
M  V30 194 H -0.956415 -7.687825 -8.875273 0
M  V30 195 H 0.403001 -5.618776 -9.134282 0
M  V30 196 H -0.442686 -5.779788 -7.601874 0
M  V30 197 H 1.166601 -3.718571 -8.796533 0
M  V30 198 H 2.471155 -2.061415 -6.980404 0
M  V30 199 H 1.138777 -1.518593 -9.422443 0
M  V30 200 H 3.428482 -0.411437 -6.010090 0
M  V30 201 H 3.975578 1.270304 -5.950430 0
M  V30 202 H 1.052045 0.803279 -5.396007 0
M  V30 203 H 2.220271 0.247539 -4.198400 0
M  V30 204 H 2.293278 1.970472 -4.643193 0
M  V30 205 H 3.474243 3.455213 -6.242533 0
M  V30 206 H 3.281972 5.633515 -7.309201 0
M  V30 207 H 1.039468 8.125587 -8.949499 0
M  V30 208 H 1.394535 3.765623 -10.618670 0
M  V30 209 H 2.061638 -0.236670 -11.089348 0
M  V30 210 H 2.007802 1.508888 -11.482847 0
M  V30 211 H 3.409353 0.938680 -10.560765 0
M  V30 212 H -0.229514 1.971868 -10.182007 0
M  V30 213 H -0.364011 1.174912 -8.600496 0
M  V30 214 H -0.235341 0.159373 -10.129895 0
M  V30 215 H 4.450133 -3.296457 -6.979039 0
M  V30 216 H 4.912926 -4.064630 -5.466173 0
M  V30 217 H 3.924351 -2.650451 -5.322409 0
M  V30 218 H 2.279291 -5.915095 -4.433895 0
M  V30 219 H 3.332206 -4.632725 -3.883790 0
M  V30 220 H 1.217861 -4.324682 -2.927693 0
M  V30 221 H 0.290087 -4.549505 -4.418699 0
M  V30 222 H 1.130216 -2.382343 -5.210378 0
M  V30 223 H 2.119465 -2.168180 -3.653184 0
M  V30 224 H -0.632908 -0.967790 -4.934000 0
M  V30 225 H -2.832428 -0.369465 -3.815534 0
M  V30 226 H -2.497097 -1.760803 -2.729668 0
M  V30 227 H -0.852369 -0.598574 -1.464804 0
M  V30 228 H -1.016022 0.893047 -2.390827 0
M  V30 229 H -3.522127 0.850136 -1.688241 0
M  V30 230 H -2.926477 -0.454139 -0.500832 0
M  V30 231 H -1.399935 1.194395 0.500343 0
M  V30 232 H -3.070980 1.786320 0.467138 0
M  V30 233 H -1.022849 2.619320 -1.642847 0
M  V30 234 H -4.026223 3.233116 -1.093967 0
M  V30 235 H -4.432029 4.151796 -4.375966 0
M  V30 236 H -3.949331 1.922425 -5.216067 0
M  V30 237 H -4.736404 1.168133 -3.748497 0
M  V30 238 H -6.084022 2.734229 -6.035310 0
M  V30 239 H -6.934345 1.973157 -4.605932 0
M  V30 240 H -6.895455 0.462068 -6.626057 0
M  V30 241 H -5.132031 0.485919 -6.527195 0
M  V30 242 H -6.032718 -0.380778 -3.893413 0
M  V30 243 H -5.679678 -3.105889 -6.906664 0
M  V30 244 H -6.669763 -3.594847 -3.802800 0
M  V30 245 H -5.329265 -3.455710 -4.277899 0
M  V30 246 H -5.806396 2.617554 -2.219088 0
M  V30 247 H -6.242688 5.792332 -0.423225 0
M  V30 248 H -8.383445 5.356136 -2.460596 0
M  V30 249 H -8.625162 5.919888 -0.718834 0
M  V30 250 H -6.706411 7.167143 -2.830312 0
M  V30 251 H -6.931857 7.705641 -1.126545 0
M  V30 252 H -9.157499 8.355345 -1.496140 0
M  V30 253 H -9.103579 7.693772 -3.246829 0
M  V30 254 H -7.806206 9.865179 -3.727839 0
M  V30 255 H -7.224360 10.389981 0.278081 0
M  V30 256 H -5.724771 11.918527 -2.136291 0
M  V30 257 H -5.291549 10.488058 -1.922787 0
M  V30 258 H -6.295307 3.295086 -0.004745 0
M  V30 259 H -9.467501 2.573395 1.482893 0
M  V30 260 H -10.320642 1.390434 -0.539456 0
M  V30 261 H -9.710306 0.199004 0.600351 0
M  V30 262 H -7.544038 0.110574 -0.680444 0
M  V30 263 H -8.226729 1.282602 -1.822653 0
M  V30 264 H -8.326250 -1.064361 -2.640438 0
M  V30 265 H -9.425704 -1.438520 -1.226499 0
M  V30 266 H -10.749632 0.613618 -2.701332 0
M  V30 267 H -10.932936 -3.386007 -3.805635 0
M  V30 268 H -12.478169 -0.911388 -5.162064 0
M  V30 269 H -11.092865 -1.212154 -5.509362 0
M  V30 270 H -7.565305 0.534419 1.533391 0
M  V30 271 H -6.688881 1.248449 4.369907 0
M  V30 272 H -6.433262 -0.511902 2.785662 0
M  V30 273 H -5.052259 0.300254 1.976187 0
M  V30 274 H -3.699121 0.137448 4.016283 0
M  V30 275 H -5.051712 -0.452167 4.977746 0
M  V30 276 H -3.603706 -2.323160 4.235965 0
M  V30 277 H -3.811279 -1.914628 2.523437 0
M  V30 278 H -6.534166 -2.266269 3.711716 0
M  V30 279 H -4.338125 -5.659482 3.012346 0
M  V30 280 H -7.768439 -4.898017 3.263095 0
M  V30 281 H -6.944112 -5.498030 2.307618 0
M  V30 282 H -3.951889 2.349631 3.523620 0
M  V30 283 H -3.944978 4.634813 6.134113 0
M  V30 284 H -5.037537 3.482544 7.809532 0
M  V30 285 H -3.355006 3.795353 8.206477 0
M  V30 286 H -2.942678 1.196032 7.788892 0
M  V30 287 H -4.648209 1.139374 7.336549 0
M  V30 288 H -5.247659 2.034369 9.615082 0
M  V30 289 H -4.145538 0.569562 9.749822 0
M  V30 290 H -2.467313 2.961998 9.857186 0
M  V30 291 H -4.768087 2.106205 13.132636 0
M  V30 292 H -2.157941 4.084344 12.307147 0
M  V30 293 H -2.089328 2.665161 13.322094 0
M  V30 294 H -2.185742 3.329280 4.633268 0
M  V30 295 H 0.475479 2.672334 5.148358 0
M  V30 296 H 1.901618 4.407613 5.867981 0
M  V30 297 H 0.704342 5.048792 7.012087 0
M  V30 298 H -0.965220 5.256567 5.099587 0
M  V30 299 H 0.276169 4.708485 3.971184 0
M  V30 300 H 0.195202 7.163808 3.872784 0
M  V30 301 H 0.388392 7.282789 5.658139 0
M  V30 302 H 2.682755 6.986477 5.289229 0
M  V30 303 H 2.234257 5.423691 1.432212 0
M  V30 304 H 5.029337 5.813625 3.315519 0
M  V30 305 H 4.412711 6.012313 2.302560 0
M  V30 306 H 1.061992 2.331401 8.197383 0
M  V30 307 H 2.181484 -0.529922 7.596096 0
M  V30 308 H 4.104333 1.656192 8.367597 0
M  V30 309 H 2.920893 0.705512 9.265103 0
M  V30 310 H 2.978468 -1.817018 9.326248 0
M  V30 311 H 4.439413 -3.714833 9.700281 0
M  V30 312 H 5.061800 -4.922562 7.802674 0
M  V30 313 H 4.601428 -7.242437 7.438443 0
M  V30 314 H 6.100339 -8.936126 8.239434 0
M  V30 315 H 8.071409 -8.360728 9.522678 0
M  V30 316 H 8.593050 -5.964966 10.005889 0
M  V30 317 H 7.758853 -1.382180 8.492414 0
M  V30 318 H 6.306725 0.523588 8.101437 0
M  V30 319 H 2.955812 -0.900026 5.457022 0
M  V30 320 H 5.051377 -0.607992 3.313057 0
M  V30 321 H 6.619539 -2.386121 3.547275 0
M  V30 322 H 6.420161 -2.329944 5.356981 0
M  V30 323 H 5.210221 -3.332812 2.111273 0
M  V30 324 H 3.480853 -4.889608 1.673507 0
M  V30 325 H 1.350726 -4.941251 0.857715 0
M  V30 326 H 0.253682 -5.933759 -1.078505 0
M  V30 327 H -0.854195 -8.127425 -0.765595 0
M  V30 328 H -0.805549 -9.262468 1.379521 0
M  V30 329 H 0.263510 -8.244711 3.260152 0
M  V30 330 H 2.290143 -4.733730 5.740790 0
M  V30 331 H 4.073126 -3.178781 6.184410 0
M  V30 332 H 7.575277 0.238607 4.956419 0
M  V30 333 H 8.921144 1.921408 3.057852 0
M  V30 334 H 9.186987 0.450044 2.104576 0
M  V30 335 H 9.047432 2.348064 0.705742 0
M  V30 336 H 7.876766 1.105621 0.312525 0
M  V30 337 H 6.313300 2.921032 1.936299 0
M  V30 338 H 7.714952 3.933782 1.575276 0
M  V30 339 H 6.460212 4.163724 -0.925282 0
M  V30 340 H 4.333168 0.742349 -3.279992 0
M  V30 341 H 5.198172 2.262657 -3.487873 0
M  V30 342 H 5.162435 -1.270005 -2.672188 0
M  V30 343 H 6.860105 -2.934258 -2.800086 0
M  V30 344 H 9.186721 -2.209786 -3.171030 0
M  V30 345 H 10.634965 0.278114 -4.324655 0
M  V30 346 H 11.163199 0.819411 0.861232 0
M  V30 347 H 13.585545 1.301866 0.296740 0
M  V30 348 H 3.424308 2.949955 -2.608137 0
M  V30 349 H 3.455679 3.428385 -0.915184 0
M  V30 350 H 2.273967 0.746887 -1.870084 0
M  V30 351 H 1.351094 2.306184 -1.583015 0
M  V30 352 H 1.821644 2.122540 0.799365 0
M  V30 353 H 0.852072 1.614748 2.511121 0
M  V30 354 H -0.626229 0.801712 4.396440 0
M  V30 355 H -1.437969 -1.413946 4.513973 0
M  V30 356 H 4.000298 2.165516 0.893597 0
M  V30 357 H 3.668591 0.502758 1.459120 0
M  V30 358 H 5.366255 0.131313 -0.249947 0
M  V30 359 H 3.798593 -0.157628 -1.044068 0
M  V30 360 H -0.838265 3.537593 1.220340 0
M  V30 361 H -0.947637 5.530771 0.642692 0
M  V30 362 H 5.638757 -5.867575 -5.387839 0
M  V30 363 H 7.911369 -7.046849 -6.747001 0
M  V30 364 H 4.369421 -9.646015 -6.952001 0
M  V30 365 H 2.254011 -8.720851 -7.618987 0
M  V30 END ATOM
M  V30 BEGIN BOND
M  V30 1 1 1 2
M  V30 2 1 2 3
M  V30 3 1 3 4
M  V30 4 2 4 5
M  V30 5 1 5 6
M  V30 6 2 6 7
M  V30 7 1 7 8
M  V30 8 2 8 9
M  V30 9 1 9 10
M  V30 10 1 10 11
M  V30 11 1 9 12
M  V30 12 2 12 13
M  V30 13 1 13 14
M  V30 14 2 14 15
M  V30 15 1 15 16
M  V30 16 2 16 17
M  V30 17 2 16 18
M  V30 18 1 16 19
M  V30 19 1 15 20
M  V30 20 2 20 21
M  V30 21 1 21 22
M  V30 22 1 22 23
M  V30 23 1 22 24
M  V30 24 1 4 25
M  V30 25 1 25 26
M  V30 26 1 25 27
M  V30 27 1 27 28
M  V30 28 1 28 29
M  V30 29 1 29 30
M  V30 30 2 30 31
M  V30 31 1 30 32
M  V30 32 1 32 33
M  V30 33 1 33 34
M  V30 34 1 34 35
M  V30 35 1 35 36
M  V30 36 1 36 37
M  V30 37 1 37 38
M  V30 38 1 38 39
M  V30 39 2 39 40
M  V30 40 1 39 41
M  V30 41 1 41 42
M  V30 42 1 42 43
M  V30 43 1 43 44
M  V30 44 1 44 45
M  V30 45 1 45 46
M  V30 46 2 46 47 CFG=2
M  V30 47 1 46 48
M  V30 48 1 41 49
M  V30 49 1 49 50
M  V30 50 2 50 51
M  V30 51 1 50 52
M  V30 52 1 52 53
M  V30 53 1 53 54
M  V30 54 1 54 55
M  V30 55 1 55 56
M  V30 56 1 56 57
M  V30 57 2 57 58 CFG=2
M  V30 58 1 57 59
M  V30 59 1 52 60
M  V30 60 1 60 61
M  V30 61 2 61 62
M  V30 62 1 61 63
M  V30 63 1 63 64
M  V30 64 1 64 65
M  V30 65 1 65 66
M  V30 66 1 66 67
M  V30 67 1 67 68
M  V30 68 2 68 69 CFG=2
M  V30 69 1 68 70
M  V30 70 1 63 71
M  V30 71 1 71 72
M  V30 72 2 72 73
M  V30 73 1 72 74
M  V30 74 1 74 75
M  V30 75 1 75 76
M  V30 76 1 76 77
M  V30 77 1 77 78
M  V30 78 1 78 79
M  V30 79 2 79 80 CFG=2
M  V30 80 1 79 81
M  V30 81 1 74 82
M  V30 82 1 82 83
M  V30 83 2 83 84
M  V30 84 1 83 85
M  V30 85 1 85 86
M  V30 86 1 86 87
M  V30 87 1 87 88
M  V30 88 1 88 89
M  V30 89 1 89 90
M  V30 90 2 90 91 CFG=2
M  V30 91 1 90 92
M  V30 92 1 85 93
M  V30 93 1 93 94
M  V30 94 2 94 95
M  V30 95 1 94 96
M  V30 96 1 96 97
M  V30 97 1 97 98
M  V30 98 1 98 99
M  V30 99 1 99 100
M  V30 100 1 100 101
M  V30 101 2 101 102 CFG=2
M  V30 102 1 101 103
M  V30 103 1 96 104
M  V30 104 1 104 105
M  V30 105 2 105 106
M  V30 106 1 105 107
M  V30 107 1 107 108
M  V30 108 1 108 109
M  V30 109 2 109 110
M  V30 110 1 110 111
M  V30 111 2 111 112
M  V30 112 1 112 113
M  V30 113 2 113 114
M  V30 114 1 113 115
M  V30 115 2 115 116
M  V30 116 1 116 117
M  V30 117 2 117 118
M  V30 118 1 118 119
M  V30 119 2 119 120
M  V30 120 1 112 121
M  V30 121 2 121 122
M  V30 122 1 107 123
M  V30 123 1 123 124
M  V30 124 2 124 125
M  V30 125 1 124 126
M  V30 126 1 126 127
M  V30 127 1 127 128
M  V30 128 2 128 129
M  V30 129 1 129 130
M  V30 130 2 130 131
M  V30 131 1 131 132
M  V30 132 2 132 133
M  V30 133 1 132 134
M  V30 134 2 134 135
M  V30 135 1 135 136
M  V30 136 2 136 137
M  V30 137 1 137 138
M  V30 138 2 138 139
M  V30 139 1 131 140
M  V30 140 2 140 141
M  V30 141 1 126 142
M  V30 142 1 142 143
M  V30 143 2 143 144
M  V30 144 1 143 145
M  V30 145 1 145 146
M  V30 146 1 146 147
M  V30 147 1 147 148
M  V30 148 1 148 149
M  V30 149 2 149 150
M  V30 150 1 149 151
M  V30 151 1 151 152 CFG=3
M  V30 152 1 152 153
M  V30 153 2 153 154
M  V30 154 1 154 155
M  V30 155 2 155 156
M  V30 156 1 156 157
M  V30 157 1 157 158
M  V30 158 1 158 159
M  V30 159 2 159 160
M  V30 160 1 160 161
M  V30 161 2 161 162
M  V30 162 1 162 163
M  V30 163 2 157 164
M  V30 164 1 151 165
M  V30 165 1 165 166
M  V30 166 1 166 167
M  V30 167 1 167 168
M  V30 168 1 168 169
M  V30 169 2 169 170
M  V30 170 1 170 171
M  V30 171 2 171 172
M  V30 172 1 172 173
M  V30 173 1 173 174
M  V30 174 2 173 175
M  V30 175 1 175 176
M  V30 176 1 167 177
M  V30 177 1 177 178
M  V30 178 1 37 179
M  V30 179 1 179 180
M  V30 180 2 179 181
M  V30 181 1 25 182
M  V30 182 2 182 183
M  V30 183 1 183 184
M  V30 184 1 184 185
M  V30 185 2 185 186
M  V30 186 2 185 187
M  V30 187 1 185 188
M  V30 188 2 184 189
M  V30 189 1 189 190
M  V30 190 2 190 191
M  V30 191 1 191 3
M  V30 192 1 22 8
M  V30 193 1 122 109
M  V30 194 1 141 128
M  V30 195 1 178 151
M  V30 196 1 191 182
M  V30 197 1 21 12
M  V30 198 1 120 115
M  V30 199 1 139 134
M  V30 200 1 164 153
M  V30 201 1 175 169
M  V30 202 1 163 159
M  V30 203 1 1 192
M  V30 204 1 1 193
M  V30 205 1 1 194
M  V30 206 1 2 195
M  V30 207 1 2 196
M  V30 208 1 5 197
M  V30 209 1 6 198
M  V30 210 1 7 199
M  V30 211 1 10 200
M  V30 212 1 10 201
M  V30 213 1 11 202
M  V30 214 1 11 203
M  V30 215 1 11 204
M  V30 216 1 13 205
M  V30 217 1 14 206
M  V30 218 1 19 207
M  V30 219 1 20 208
M  V30 220 1 23 209
M  V30 221 1 23 210
M  V30 222 1 23 211
M  V30 223 1 24 212
M  V30 224 1 24 213
M  V30 225 1 24 214
M  V30 226 1 26 215
M  V30 227 1 26 216
M  V30 228 1 26 217
M  V30 229 1 27 218
M  V30 230 1 27 219
M  V30 231 1 28 220
M  V30 232 1 28 221
M  V30 233 1 29 222
M  V30 234 1 29 223
M  V30 235 1 32 224
M  V30 236 1 33 225
M  V30 237 1 33 226
M  V30 238 1 34 227
M  V30 239 1 34 228
M  V30 240 1 35 229
M  V30 241 1 35 230
M  V30 242 1 36 231
M  V30 243 1 36 232
M  V30 244 1 37 233 CFG=3
M  V30 245 1 38 234
M  V30 246 1 41 235 CFG=3
M  V30 247 1 42 236
M  V30 248 1 42 237
M  V30 249 1 43 238
M  V30 250 1 43 239
M  V30 251 1 44 240
M  V30 252 1 44 241
M  V30 253 1 45 242
M  V30 254 1 47 243
M  V30 255 1 48 244
M  V30 256 1 48 245
M  V30 257 1 49 246
M  V30 258 1 52 247 CFG=1
M  V30 259 1 53 248
M  V30 260 1 53 249
M  V30 261 1 54 250
M  V30 262 1 54 251
M  V30 263 1 55 252
M  V30 264 1 55 253
M  V30 265 1 56 254
M  V30 266 1 58 255
M  V30 267 1 59 256
M  V30 268 1 59 257
M  V30 269 1 60 258
M  V30 270 1 63 259 CFG=1
M  V30 271 1 64 260
M  V30 272 1 64 261
M  V30 273 1 65 262
M  V30 274 1 65 263
M  V30 275 1 66 264
M  V30 276 1 66 265
M  V30 277 1 67 266
M  V30 278 1 69 267
M  V30 279 1 70 268
M  V30 280 1 70 269
M  V30 281 1 71 270
M  V30 282 1 74 271 CFG=1
M  V30 283 1 75 272
M  V30 284 1 75 273
M  V30 285 1 76 274
M  V30 286 1 76 275
M  V30 287 1 77 276
M  V30 288 1 77 277
M  V30 289 1 78 278
M  V30 290 1 80 279
M  V30 291 1 81 280
M  V30 292 1 81 281
M  V30 293 1 82 282
M  V30 294 1 85 283 CFG=1
M  V30 295 1 86 284
M  V30 296 1 86 285
M  V30 297 1 87 286
M  V30 298 1 87 287
M  V30 299 1 88 288
M  V30 300 1 88 289
M  V30 301 1 89 290
M  V30 302 1 91 291
M  V30 303 1 92 292
M  V30 304 1 92 293
M  V30 305 1 93 294
M  V30 306 1 96 295 CFG=3
M  V30 307 1 97 296
M  V30 308 1 97 297
M  V30 309 1 98 298
M  V30 310 1 98 299
M  V30 311 1 99 300
M  V30 312 1 99 301
M  V30 313 1 100 302
M  V30 314 1 102 303
M  V30 315 1 103 304
M  V30 316 1 103 305
M  V30 317 1 104 306
M  V30 318 1 107 307 CFG=1
M  V30 319 1 108 308
M  V30 320 1 108 309
M  V30 321 1 110 310
M  V30 322 1 111 311
M  V30 323 1 116 312
M  V30 324 1 117 313
M  V30 325 1 118 314
M  V30 326 1 119 315
M  V30 327 1 120 316
M  V30 328 1 121 317
M  V30 329 1 122 318
M  V30 330 1 123 319
M  V30 331 1 126 320 CFG=3
M  V30 332 1 127 321
M  V30 333 1 127 322
M  V30 334 1 129 323
M  V30 335 1 130 324
M  V30 336 1 135 325
M  V30 337 1 136 326
M  V30 338 1 137 327
M  V30 339 1 138 328
M  V30 340 1 139 329
M  V30 341 1 140 330
M  V30 342 1 141 331
M  V30 343 1 142 332
M  V30 344 1 145 333
M  V30 345 1 145 334
M  V30 346 1 146 335
M  V30 347 1 146 336
M  V30 348 1 147 337
M  V30 349 1 147 338
M  V30 350 1 148 339
M  V30 351 1 152 340
M  V30 352 1 152 341
M  V30 353 1 154 342
M  V30 354 1 155 343
M  V30 355 1 156 344
M  V30 356 1 158 345
M  V30 357 1 161 346
M  V30 358 1 162 347
M  V30 359 1 165 348
M  V30 360 1 165 349
M  V30 361 1 166 350
M  V30 362 1 166 351
M  V30 363 1 167 352 CFG=1
M  V30 364 1 170 353
M  V30 365 1 171 354
M  V30 366 1 172 355
M  V30 367 1 177 356
M  V30 368 1 177 357
M  V30 369 1 178 358
M  V30 370 1 178 359
M  V30 371 1 180 360
M  V30 372 1 180 361
M  V30 373 1 183 362
M  V30 374 1 188 363
M  V30 375 1 189 364
M  V30 376 1 190 365
M  V30 END BOND
M  V30 END CTAB
M  END
>  <Dataset>  (177) 
ChEMBL_Kinases

>  <Ligand_Instance>  (177) 
nan

>  <PDB_ID>  (177) 
nan

>  <Standardized_SMILES>  (177) 
CCN1/C(=C/C=C/C2=[N+](CC)c3ccc(S(=O)(=O)O)cc3C2(C)C)C(C)(CCCC(=O)NCCCC[C@@H](NC(=O)[C@@H](CCCNC(=N)N)NC(=O)[C@@H](CCCNC(=N)N)NC(=O)[C@@H](CCCNC(=N)N)NC(=O)[C@@H](CCCNC(=N)N)NC(=O)[C@@H](CCCNC(=N)N)NC(=O)[C@@H](CCCNC(=N)N)NC(=O)[C@H](Cc2ccc(C(=O)c3ccccc3)cc2)NC(=O)[C@H](Cc2ccc(C(=O)c3ccccc3)cc2)NC(=O)CCCNC(=O)[C@]2(Cc3cccc(Nc4nccs4)n3)CC[C@@H](Oc3cccc(Cl)c3F)CC2)C(N)=O)c2cc(S(=O)(=O)O)ccc21

>  <Name>  (177) 
nan

>  <Pocket>  (177) 
nan

>  <ATP_Site>  (177) 
nan

>  <Peripheral>  (177) 
nan

>  <Num_H_Atoms_ProtBoundConf>  (177) 
nan

>  <Num_Resolved_Atoms>  (177) 
nan

>  <Num_Not_Resolved_Atoms>  (177) 
nan

$$$$
CHEMBL3641987
     RDKit          3D

  0  0  0  0  0  0  0  0  0  0999 V3000
M  V30 BEGIN CTAB
M  V30 COUNTS 60 65 0 0 0
M  V30 BEGIN ATOM
M  V30 1 C 2.370374 -3.271032 4.212019 0
M  V30 2 C 3.606199 -3.633284 3.420539 0
M  V30 3 C 4.572085 -4.326595 4.349334 0
M  V30 4 C 4.141258 -2.327582 2.876846 0
M  V30 5 N 4.090410 -2.442874 1.412132 0
M  V30 6 C 3.290136 -1.647548 0.549110 0
M  V30 7 C 3.418027 -1.608348 -0.840193 0
M  V30 8 C 2.585846 -0.813782 -1.588207 0
M  V30 9 C 1.626929 -0.062303 -0.920604 0
M  V30 10 N 0.764181 0.783554 -1.687907 0
M  V30 11 C -0.290326 1.600750 -1.187365 0
M  V30 12 N -0.231220 2.833274 -0.600954 0
M  V30 13 C -1.371924 3.427842 -0.211541 0
M  V30 14 C -2.612127 2.874634 -0.364974 0
M  V30 15 C -3.899853 3.254155 -0.068199 0
M  V30 16 C -4.401878 4.414743 0.535134 0
M  V30 17 C -5.776773 4.465643 0.681544 0
M  V30 18 N -6.587836 3.469594 0.273725 0
M  V30 19 C -6.092242 2.349565 -0.309187 0
M  V30 20 C -4.724836 2.231476 -0.487324 0
M  V30 21 N -3.946642 1.271551 -1.018014 0
M  V30 22 C -4.464985 0.045997 -1.575589 0 CFG=2
M  V30 23 C -3.871583 -1.178804 -0.917609 0
M  V30 24 C -3.847014 -2.162580 -2.058619 0
M  V30 25 O -4.150358 -1.478083 -3.229952 0
M  V30 26 C -3.950838 -0.143606 -3.009913 0
M  V30 27 C -2.626901 1.612554 -0.969775 0
M  V30 28 N -1.487386 1.021942 -1.356742 0
M  V30 29 N 1.525424 -0.117178 0.401688 0
M  V30 30 N 2.339120 -0.891779 1.113322 0
M  V30 31 C 4.987106 -3.522017 0.980942 0
M  V30 32 C 4.247844 -4.793799 1.407634 0
M  V30 33 N 3.215201 -4.546063 2.379462 0
M  V30 34 H 1.440266 -3.641912 3.715199 0
M  V30 35 H 2.279347 -2.169275 4.398793 0
M  V30 36 H 2.424686 -3.727669 5.213673 0
M  V30 37 H 5.047730 -5.225731 3.886711 0
M  V30 38 H 3.979018 -4.723456 5.209840 0
M  V30 39 H 5.375579 -3.657669 4.735280 0
M  V30 40 H 3.639931 -1.443908 3.254415 0
M  V30 41 H 5.220667 -2.266656 3.189727 0
M  V30 42 H 4.168018 -2.201984 -1.294399 0
M  V30 43 H 2.728621 -0.824787 -2.640852 0
M  V30 44 H 0.869572 0.849530 -2.724753 0
M  V30 45 H -1.263244 4.397309 0.245361 0
M  V30 46 H -3.713871 5.192476 0.849825 0
M  V30 47 H -6.210960 5.360303 1.150181 0
M  V30 48 H -6.767612 1.545795 -0.635223 0
M  V30 49 H -5.553961 0.001342 -1.553765 0
M  V30 50 H -2.819396 -0.919683 -0.654810 0
M  V30 51 H -4.475368 -1.522747 -0.054436 0
M  V30 52 H -2.883948 -2.704083 -2.105148 0
M  V30 53 H -4.637410 -2.928916 -1.848933 0
M  V30 54 H -2.879363 0.074589 -3.048675 0
M  V30 55 H -4.543463 0.473753 -3.727171 0
M  V30 56 H 5.954854 -3.447292 1.505521 0
M  V30 57 H 5.147019 -3.505186 -0.106611 0
M  V30 58 H 3.715754 -5.146830 0.493911 0
M  V30 59 H 4.972885 -5.567478 1.672380 0
M  V30 60 H 2.295906 -4.304814 1.948065 0
M  V30 END ATOM
M  V30 BEGIN BOND
M  V30 1 1 1 2
M  V30 2 1 2 3
M  V30 3 1 2 4
M  V30 4 1 4 5
M  V30 5 1 5 6
M  V30 6 2 6 7
M  V30 7 1 7 8
M  V30 8 2 8 9
M  V30 9 1 9 10
M  V30 10 1 10 11
M  V30 11 2 11 12
M  V30 12 1 12 13
M  V30 13 2 13 14
M  V30 14 1 14 15
M  V30 15 2 15 16
M  V30 16 1 16 17
M  V30 17 2 17 18
M  V30 18 1 18 19
M  V30 19 2 19 20
M  V30 20 1 20 21
M  V30 21 1 21 22
M  V30 22 1 22 23
M  V30 23 1 23 24
M  V30 24 1 24 25
M  V30 25 1 25 26
M  V30 26 1 21 27
M  V30 27 2 27 28
M  V30 28 1 9 29
M  V30 29 2 29 30
M  V30 30 1 5 31
M  V30 31 1 31 32
M  V30 32 1 32 33
M  V30 33 1 33 2
M  V30 34 1 30 6
M  V30 35 1 28 11
M  V30 36 1 27 14
M  V30 37 1 20 15
M  V30 38 1 26 22
M  V30 39 1 1 34
M  V30 40 1 1 35
M  V30 41 1 1 36
M  V30 42 1 3 37
M  V30 43 1 3 38
M  V30 44 1 3 39
M  V30 45 1 4 40
M  V30 46 1 4 41
M  V30 47 1 7 42
M  V30 48 1 8 43
M  V30 49 1 10 44
M  V30 50 1 13 45
M  V30 51 1 16 46
M  V30 52 1 17 47
M  V30 53 1 19 48
M  V30 54 1 22 49 CFG=3
M  V30 55 1 23 50
M  V30 56 1 23 51
M  V30 57 1 24 52
M  V30 58 1 24 53
M  V30 59 1 26 54
M  V30 60 1 26 55
M  V30 61 1 31 56
M  V30 62 1 31 57
M  V30 63 1 32 58
M  V30 64 1 32 59
M  V30 65 1 33 60
M  V30 END BOND
M  V30 END CTAB
M  END
>  <Dataset>  (178) 
ChEMBL_Kinases

>  <Ligand_Instance>  (178) 
nan

>  <PDB_ID>  (178) 
nan

>  <Standardized_SMILES>  (178) 
CC1(C)CN(c2ccc(Nc3ncc4c5ccncc5n([C@@H]5CCOC5)c4n3)nn2)CCN1

>  <Name>  (178) 
nan

>  <Pocket>  (178) 
nan

>  <ATP_Site>  (178) 
nan

>  <Peripheral>  (178) 
nan

>  <Num_H_Atoms_ProtBoundConf>  (178) 
nan

>  <Num_Resolved_Atoms>  (178) 
nan

>  <Num_Not_Resolved_Atoms>  (178) 
nan

$$$$
CHEMBL3641986
     RDKit          3D

  0  0  0  0  0  0  0  0  0  0999 V3000
M  V30 BEGIN CTAB
M  V30 COUNTS 60 65 0 0 0
M  V30 BEGIN ATOM
M  V30 1 C 4.373251 -1.640871 5.079597 0
M  V30 2 N 4.814719 -2.349129 3.894743 0
M  V30 3 C 4.784953 -1.573635 2.709208 0
M  V30 4 C 5.681431 -0.389581 2.637450 0
M  V30 5 C 5.608321 0.210629 1.261461 0
M  V30 6 N 4.439525 -0.338075 0.601835 0
M  V30 7 C 3.251613 0.390778 0.339030 0
M  V30 8 C 3.193603 1.745707 0.167911 0
M  V30 9 C 1.963802 2.325164 -0.033848 0
M  V30 10 C 0.782231 1.578001 -0.067770 0
M  V30 11 N -0.520155 2.181182 -0.253394 0
M  V30 12 C -1.619792 1.283234 -0.199783 0
M  V30 13 N -1.664658 0.954182 1.115474 0
M  V30 14 C -2.581916 0.104798 1.646507 0
M  V30 15 C -3.498263 -0.421159 0.733226 0
M  V30 16 C -4.520146 -1.292742 0.982292 0
M  V30 17 C -4.987056 -1.916377 2.120702 0
M  V30 18 C -6.070408 -2.770560 2.089799 0
M  V30 19 N -6.638394 -2.950380 0.864923 0
M  V30 20 C -6.183206 -2.345757 -0.234523 0
M  V30 21 C -5.110117 -1.484909 -0.266714 0
M  V30 22 N -4.489243 -0.778795 -1.204164 0
M  V30 23 C -4.732342 -0.639803 -2.564297 0 CFG=2
M  V30 24 C -5.435547 -1.510583 -3.435191 0
M  V30 25 C -4.329255 -2.446165 -3.955261 0
M  V30 26 O -3.452164 -1.409293 -4.388327 0
M  V30 27 C -3.364662 -0.556854 -3.283856 0
M  V30 28 C -3.473276 -0.103710 -0.600944 0
M  V30 29 N -2.515584 0.757713 -1.043237 0
M  V30 30 N 0.930189 0.244393 0.110807 0
M  V30 31 N 2.118391 -0.336599 0.306079 0
M  V30 32 C 4.632851 -1.758265 0.232910 0
M  V30 33 C 4.963985 -2.510380 1.517947 0
M  V30 34 H 3.574336 -0.907697 4.871749 0
M  V30 35 H 3.887643 -2.443605 5.714334 0
M  V30 36 H 5.204048 -1.252317 5.705401 0
M  V30 37 H 5.783838 -2.708152 4.135526 0
M  V30 38 H 3.711125 -1.215793 2.597449 0
M  V30 39 H 6.714576 -0.587269 2.994794 0
M  V30 40 H 5.285887 0.391560 3.350974 0
M  V30 41 H 6.501694 -0.116807 0.686241 0
M  V30 42 H 5.633721 1.312520 1.253685 0
M  V30 43 H 4.082112 2.323815 0.190921 0
M  V30 44 H 1.820134 3.381489 -0.177297 0
M  V30 45 H -0.500509 3.212641 -0.402415 0
M  V30 46 H -2.657576 -0.185709 2.688418 0
M  V30 47 H -4.515371 -1.754867 3.092444 0
M  V30 48 H -6.423399 -3.250853 2.991280 0
M  V30 49 H -6.685108 -2.541158 -1.160554 0
M  V30 50 H -5.163535 0.415090 -2.703437 0
M  V30 51 H -6.396420 -1.941660 -3.300515 0
M  V30 52 H -5.615044 -0.905297 -4.411227 0
M  V30 53 H -4.641543 -3.033676 -4.822089 0
M  V30 54 H -3.792106 -2.969519 -3.173263 0
M  V30 55 H -2.558741 -0.947343 -2.659375 0
M  V30 56 H -3.157818 0.447582 -3.637626 0
M  V30 57 H 5.530326 -1.859073 -0.408370 0
M  V30 58 H 3.735404 -2.203069 -0.207560 0
M  V30 59 H 5.989193 -2.918155 1.526824 0
M  V30 60 H 4.257126 -3.339801 1.647966 0
M  V30 END ATOM
M  V30 BEGIN BOND
M  V30 1 1 1 2
M  V30 2 1 2 3
M  V30 3 1 3 4
M  V30 4 1 4 5
M  V30 5 1 5 6
M  V30 6 1 6 7
M  V30 7 2 7 8
M  V30 8 1 8 9
M  V30 9 2 9 10
M  V30 10 1 10 11
M  V30 11 1 11 12
M  V30 12 2 12 13
M  V30 13 1 13 14
M  V30 14 2 14 15
M  V30 15 1 15 16
M  V30 16 2 16 17
M  V30 17 1 17 18
M  V30 18 2 18 19
M  V30 19 1 19 20
M  V30 20 2 20 21
M  V30 21 1 21 22
M  V30 22 1 22 23
M  V30 23 1 23 24
M  V30 24 1 24 25
M  V30 25 1 25 26
M  V30 26 1 26 27
M  V30 27 1 22 28
M  V30 28 2 28 29
M  V30 29 1 10 30
M  V30 30 2 30 31
M  V30 31 1 6 32
M  V30 32 1 32 33
M  V30 33 1 33 3
M  V30 34 1 31 7
M  V30 35 1 29 12
M  V30 36 1 28 15
M  V30 37 1 21 16
M  V30 38 1 27 23
M  V30 39 1 1 34
M  V30 40 1 1 35
M  V30 41 1 1 36
M  V30 42 1 2 37
M  V30 43 1 3 38
M  V30 44 1 4 39
M  V30 45 1 4 40
M  V30 46 1 5 41
M  V30 47 1 5 42
M  V30 48 1 8 43
M  V30 49 1 9 44
M  V30 50 1 11 45
M  V30 51 1 14 46
M  V30 52 1 17 47
M  V30 53 1 18 48
M  V30 54 1 20 49
M  V30 55 1 23 50 CFG=1
M  V30 56 1 24 51
M  V30 57 1 24 52
M  V30 58 1 25 53
M  V30 59 1 25 54
M  V30 60 1 27 55
M  V30 61 1 27 56
M  V30 62 1 32 57
M  V30 63 1 32 58
M  V30 64 1 33 59
M  V30 65 1 33 60
M  V30 END BOND
M  V30 END CTAB
M  END
>  <Dataset>  (179) 
ChEMBL_Kinases

>  <Ligand_Instance>  (179) 
nan

>  <PDB_ID>  (179) 
nan

>  <Standardized_SMILES>  (179) 
CNC1CCN(c2ccc(Nc3ncc4c5ccncc5n([C@@H]5CCOC5)c4n3)nn2)CC1

>  <Name>  (179) 
nan

>  <Pocket>  (179) 
nan

>  <ATP_Site>  (179) 
nan

>  <Peripheral>  (179) 
nan

>  <Num_H_Atoms_ProtBoundConf>  (179) 
nan

>  <Num_Resolved_Atoms>  (179) 
nan

>  <Num_Not_Resolved_Atoms>  (179) 
nan

$$$$
CHEMBL3641985
     RDKit          3D

  0  0  0  0  0  0  0  0  0  0999 V3000
M  V30 BEGIN CTAB
M  V30 COUNTS 54 59 0 0 0
M  V30 BEGIN ATOM
M  V30 1 C -2.700218 -5.711883 4.227440 0
M  V30 2 C -1.549001 -4.936555 4.241817 0
M  V30 3 C -1.126140 -4.466380 3.018660 0
M  V30 4 C -0.046252 -3.685109 2.670048 0
M  V30 5 C 1.001546 -3.077732 3.331441 0
M  V30 6 N 1.925727 -2.354976 2.670709 0
M  V30 7 C 1.857447 -2.197649 1.317648 0
M  V30 8 N 2.773043 -1.461273 0.515704 0
M  V30 9 C 2.475229 -0.086837 0.290419 0
M  V30 10 C 1.362391 0.547742 0.804290 0
M  V30 11 C 1.064670 1.878249 0.591512 0
M  V30 12 C 1.913614 2.642972 -0.177327 0
M  V30 13 N 1.721480 4.019444 -0.470160 0
M  V30 14 C 0.623758 4.830732 0.007694 0
M  V30 15 C 1.213075 6.203596 0.361154 0
M  V30 16 N 1.714814 6.884027 -0.800008 0
M  V30 17 C 1.940816 5.933977 -1.882161 0
M  V30 18 C 2.673508 4.711555 -1.313275 0
M  V30 19 N 2.990066 2.007000 -0.667670 0
M  V30 20 N 3.253843 0.729962 -0.449586 0
M  V30 21 N 0.830902 -2.795205 0.686434 0
M  V30 22 C -0.116234 -3.524846 1.290347 0
M  V30 23 N -1.207875 -4.189174 0.811022 0
M  V30 24 C -1.655412 -4.283569 -0.561785 0 CFG=2
M  V30 25 C -2.950094 -3.564610 -0.822759 0
M  V30 26 C -3.764680 -4.561649 -1.569815 0
M  V30 27 O -3.109090 -5.762139 -1.634371 0
M  V30 28 C -1.862713 -5.664945 -1.059462 0
M  V30 29 C -1.829202 -4.767715 1.869116 0
M  V30 30 C -2.963583 -5.548893 1.969014 0
M  V30 31 N -3.422949 -6.037472 3.150246 0
M  V30 32 H -3.035501 -6.083158 5.186747 0
M  V30 33 H -1.001462 -4.699899 5.122654 0
M  V30 34 H 1.059918 -3.197411 4.388209 0
M  V30 35 H 3.647927 -1.811614 0.068803 0
M  V30 36 H 0.668278 -0.030252 1.418848 0
M  V30 37 H 0.182843 2.335033 1.011962 0
M  V30 38 H -0.201548 4.945204 -0.724771 0
M  V30 39 H 0.202658 4.359399 0.918459 0
M  V30 40 H 2.046323 6.039934 1.071972 0
M  V30 41 H 0.407350 6.781590 0.878380 0
M  V30 42 H 1.037028 7.595317 -1.091747 0
M  V30 43 H 0.941906 5.639297 -2.260153 0
M  V30 44 H 2.566275 6.400562 -2.679334 0
M  V30 45 H 2.960108 4.110154 -2.218735 0
M  V30 46 H 3.590774 4.998403 -0.799396 0
M  V30 47 H -0.878980 -3.771549 -1.196079 0
M  V30 48 H -2.819798 -2.659971 -1.475455 0
M  V30 49 H -3.416369 -3.208050 0.107528 0
M  V30 50 H -3.983128 -4.234454 -2.624787 0
M  V30 51 H -4.766502 -4.606464 -1.069513 0
M  V30 52 H -1.127070 -5.913816 -1.867061 0
M  V30 53 H -1.661787 -6.403346 -0.261219 0
M  V30 54 H -3.560771 -5.819008 1.087050 0
M  V30 END ATOM
M  V30 BEGIN BOND
M  V30 1 2 1 2
M  V30 2 1 2 3
M  V30 3 1 3 4
M  V30 4 2 4 5
M  V30 5 1 5 6
M  V30 6 2 6 7
M  V30 7 1 7 8
M  V30 8 1 8 9
M  V30 9 2 9 10
M  V30 10 1 10 11
M  V30 11 2 11 12
M  V30 12 1 12 13
M  V30 13 1 13 14
M  V30 14 1 14 15
M  V30 15 1 15 16
M  V30 16 1 16 17
M  V30 17 1 17 18
M  V30 18 1 12 19
M  V30 19 2 19 20
M  V30 20 1 7 21
M  V30 21 2 21 22
M  V30 22 1 22 23
M  V30 23 1 23 24
M  V30 24 1 24 25
M  V30 25 1 25 26
M  V30 26 1 26 27
M  V30 27 1 27 28
M  V30 28 1 23 29
M  V30 29 1 29 30
M  V30 30 2 30 31
M  V30 31 1 31 1
M  V30 32 2 29 3
M  V30 33 1 22 4
M  V30 34 1 28 24
M  V30 35 1 20 9
M  V30 36 1 18 13
M  V30 37 1 1 32
M  V30 38 1 2 33
M  V30 39 1 5 34
M  V30 40 1 8 35
M  V30 41 1 10 36
M  V30 42 1 11 37
M  V30 43 1 14 38
M  V30 44 1 14 39
M  V30 45 1 15 40
M  V30 46 1 15 41
M  V30 47 1 16 42
M  V30 48 1 17 43
M  V30 49 1 17 44
M  V30 50 1 18 45
M  V30 51 1 18 46
M  V30 52 1 24 47 CFG=3
M  V30 53 1 25 48
M  V30 54 1 25 49
M  V30 55 1 26 50
M  V30 56 1 26 51
M  V30 57 1 28 52
M  V30 58 1 28 53
M  V30 59 1 30 54
M  V30 END BOND
M  V30 END CTAB
M  END
>  <Dataset>  (180) 
ChEMBL_Kinases

>  <Ligand_Instance>  (180) 
nan

>  <PDB_ID>  (180) 
nan

>  <Standardized_SMILES>  (180) 
c1cc2c3cnc(Nc4ccc(N5CCNCC5)nn4)nc3n([C@@H]3CCOC3)c2cn1

>  <Name>  (180) 
nan

>  <Pocket>  (180) 
nan

>  <ATP_Site>  (180) 
nan

>  <Peripheral>  (180) 
nan

>  <Num_H_Atoms_ProtBoundConf>  (180) 
nan

>  <Num_Resolved_Atoms>  (180) 
nan

>  <Num_Not_Resolved_Atoms>  (180) 
nan

$$$$
CHEMBL3641984
     RDKit          3D

  0  0  0  0  0  0  0  0  0  0999 V3000
M  V30 BEGIN CTAB
M  V30 COUNTS 60 64 0 0 0
M  V30 BEGIN ATOM
M  V30 1 C 1.480702 1.475181 4.166793 0
M  V30 2 C 2.648305 0.591469 3.739082 0 CFG=1
M  V30 3 O 2.519452 -0.574145 4.533322 0
M  V30 4 C 2.610587 0.218577 2.292060 0
M  V30 5 N 2.649162 1.335279 1.379501 0
M  V30 6 C 3.701318 2.006684 0.824973 0
M  V30 7 C 5.067906 1.779917 1.001794 0
M  V30 8 N 5.999520 2.537292 0.374229 0
M  V30 9 C 5.619587 3.553454 -0.457261 0
M  V30 10 C 4.277254 3.783629 -0.636931 0
M  V30 11 C 3.304835 3.020512 -0.004610 0
M  V30 12 C 1.925545 2.994198 0.021271 0
M  V30 13 C 1.024034 3.804060 -0.647956 0
M  V30 14 N -0.303707 3.541398 -0.441578 0
M  V30 15 C -0.695328 2.547421 0.371506 0
M  V30 16 N -2.090183 2.244166 0.596122 0
M  V30 17 C -2.345153 0.827564 0.522420 0
M  V30 18 C -3.635115 0.335587 0.668874 0
M  V30 19 C -3.925423 -1.010746 0.578776 0
M  V30 20 C -2.920579 -1.922060 0.336553 0
M  V30 21 N -2.863892 -3.331598 0.141524 0
M  V30 22 C -2.206401 -4.316527 0.982897 0
M  V30 23 C -1.027869 -4.804528 0.214248 0
M  V30 24 N -1.086582 -4.677968 -1.198560 0
M  V30 25 C -2.381624 -4.744629 -1.793917 0
M  V30 26 C -2.268747 -4.024387 -3.121968 0
M  V30 27 C -2.704653 -6.189674 -2.090644 0
M  V30 28 C -3.459216 -4.043851 -1.009783 0
M  V30 29 C -1.625468 -1.419896 0.192853 0
M  V30 30 N -1.401974 -0.098209 0.289900 0
M  V30 31 N 0.226573 1.800130 0.991258 0
M  V30 32 C 1.560579 1.966020 0.864717 0
M  V30 33 H 1.308236 2.294374 3.452413 0
M  V30 34 H 1.752110 1.939833 5.167111 0
M  V30 35 H 0.570605 0.885122 4.364392 0
M  V30 36 H 3.605301 1.094235 4.050230 0
M  V30 37 H 1.529606 -0.781246 4.594917 0
M  V30 38 H 3.396555 -0.539439 2.062398 0
M  V30 39 H 1.641403 -0.309455 2.118682 0
M  V30 40 H 5.426016 0.972722 1.658042 0
M  V30 41 H 6.281005 4.212411 -1.006325 0
M  V30 42 H 3.834007 4.559893 -1.272549 0
M  V30 43 H 1.324940 4.603917 -1.300242 0
M  V30 44 H -2.907989 2.876308 0.798126 0
M  V30 45 H -4.481827 0.970187 0.862727 0
M  V30 46 H -4.868417 -1.518912 0.671990 0
M  V30 47 H -2.865127 -5.183504 1.207323 0
M  V30 48 H -1.877086 -3.768001 1.883012 0
M  V30 49 H -0.123793 -4.231512 0.566616 0
M  V30 50 H -0.821856 -5.861953 0.543548 0
M  V30 51 H -0.449003 -5.380587 -1.631608 0
M  V30 52 H -2.271747 -4.742566 -3.990195 0
M  V30 53 H -3.146041 -3.345100 -3.314638 0
M  V30 54 H -1.344076 -3.399697 -3.180703 0
M  V30 55 H -3.481434 -6.617480 -1.401028 0
M  V30 56 H -3.089752 -6.366791 -3.117920 0
M  V30 57 H -1.776075 -6.829614 -2.034308 0
M  V30 58 H -4.088985 -3.361279 -1.602300 0
M  V30 59 H -4.116815 -4.815215 -0.574576 0
M  V30 60 H -0.676534 -1.905935 0.008270 0
M  V30 END ATOM
M  V30 BEGIN BOND
M  V30 1 1 1 2
M  V30 2 1 2 3
M  V30 3 1 2 4
M  V30 4 1 4 5
M  V30 5 1 5 6
M  V30 6 2 6 7
M  V30 7 1 7 8
M  V30 8 2 8 9
M  V30 9 1 9 10
M  V30 10 2 10 11
M  V30 11 1 11 12
M  V30 12 2 12 13
M  V30 13 1 13 14
M  V30 14 2 14 15
M  V30 15 1 15 16
M  V30 16 1 16 17
M  V30 17 2 17 18
M  V30 18 1 18 19
M  V30 19 2 19 20
M  V30 20 1 20 21
M  V30 21 1 21 22
M  V30 22 1 22 23
M  V30 23 1 23 24
M  V30 24 1 24 25
M  V30 25 1 25 26
M  V30 26 1 25 27
M  V30 27 1 25 28
M  V30 28 1 20 29
M  V30 29 2 29 30
M  V30 30 1 15 31
M  V30 31 2 31 32
M  V30 32 1 32 5
M  V30 33 1 11 6
M  V30 34 1 32 12
M  V30 35 1 30 17
M  V30 36 1 28 21
M  V30 37 1 1 33
M  V30 38 1 1 34
M  V30 39 1 1 35
M  V30 40 1 2 36 CFG=1
M  V30 41 1 3 37
M  V30 42 1 4 38
M  V30 43 1 4 39
M  V30 44 1 7 40
M  V30 45 1 9 41
M  V30 46 1 10 42
M  V30 47 1 13 43
M  V30 48 1 16 44
M  V30 49 1 18 45
M  V30 50 1 19 46
M  V30 51 1 22 47
M  V30 52 1 22 48
M  V30 53 1 23 49
M  V30 54 1 23 50
M  V30 55 1 24 51
M  V30 56 1 26 52
M  V30 57 1 26 53
M  V30 58 1 26 54
M  V30 59 1 27 55
M  V30 60 1 27 56
M  V30 61 1 27 57
M  V30 62 1 28 58
M  V30 63 1 28 59
M  V30 64 1 29 60
M  V30 END BOND
M  V30 END CTAB
M  END
>  <Dataset>  (181) 
ChEMBL_Kinases

>  <Ligand_Instance>  (181) 
nan

>  <PDB_ID>  (181) 
nan

>  <Standardized_SMILES>  (181) 
C[C@@H](O)Cn1c2cnccc2c2cnc(Nc3ccc(N4CCNC(C)(C)C4)cn3)nc21

>  <Name>  (181) 
nan

>  <Pocket>  (181) 
nan

>  <ATP_Site>  (181) 
nan

>  <Peripheral>  (181) 
nan

>  <Num_H_Atoms_ProtBoundConf>  (181) 
nan

>  <Num_Resolved_Atoms>  (181) 
nan

>  <Num_Not_Resolved_Atoms>  (181) 
nan

$$$$
CHEMBL3641983
     RDKit          3D

  0  0  0  0  0  0  0  0  0  0999 V3000
M  V30 BEGIN CTAB
M  V30 COUNTS 60 64 0 0 0
M  V30 BEGIN ATOM
M  V30 1 C 1.429145 -4.910561 3.500442 0
M  V30 2 N 2.354443 -4.910231 2.377273 0
M  V30 3 C 3.719196 -4.744460 2.799718 0
M  V30 4 C 3.971980 -3.451111 3.543407 0
M  V30 5 C 3.636773 -2.222542 2.718819 0
M  V30 6 N 3.818765 -2.408126 1.307858 0
M  V30 7 C 3.038416 -1.770626 0.310392 0
M  V30 8 C 2.123196 -0.808937 0.669431 0
M  V30 9 C 1.383831 -0.220795 -0.337890 0
M  V30 10 C 1.493022 -0.524239 -1.679368 0
M  V30 11 N 0.710669 0.107300 -2.685111 0
M  V30 12 C -0.220911 1.099446 -2.271986 0
M  V30 13 N 0.174075 2.392708 -2.213535 0
M  V30 14 C -0.688971 3.349967 -1.826236 0
M  V30 15 C -1.962426 2.920538 -1.505715 0
M  V30 16 C -3.084384 3.597650 -1.079972 0
M  V30 17 C -3.318471 4.952594 -0.826367 0
M  V30 18 C -4.563597 5.383121 -0.397495 0
M  V30 19 N -5.561928 4.478667 -0.223419 0
M  V30 20 C -5.353753 3.175448 -0.462315 0
M  V30 21 C -4.123078 2.698941 -0.893035 0
M  V30 22 N -3.647098 1.461293 -1.202904 0
M  V30 23 C -4.409170 0.252781 -1.139992 0
M  V30 24 C -4.329935 -0.424881 0.216241 0 CFG=1
M  V30 25 C -5.162804 -1.706806 0.219050 0
M  V30 26 O -3.019702 -0.828091 0.491198 0
M  V30 27 C -2.363133 1.591802 -1.567185 0
M  V30 28 N -1.463432 0.688703 -1.957913 0
M  V30 29 N 2.410803 -1.482399 -1.997128 0
M  V30 30 C 3.146129 -2.071880 -1.026799 0
M  V30 31 C 4.914703 -3.329828 1.101994 0
M  V30 32 C 4.605317 -4.731392 1.575566 0
M  V30 33 H 1.932695 -5.390584 4.363235 0
M  V30 34 H 0.464723 -5.358252 3.244379 0
M  V30 35 H 1.266842 -3.847512 3.776757 0
M  V30 36 H 2.105508 -4.091155 1.788909 0
M  V30 37 H 4.081378 -5.584747 3.425570 0
M  V30 38 H 5.001039 -3.456166 3.907823 0
M  V30 39 H 3.314772 -3.490813 4.454499 0
M  V30 40 H 2.665113 -1.804799 2.986785 0
M  V30 41 H 4.407825 -1.456867 3.027465 0
M  V30 42 H 1.930679 -0.471053 1.664503 0
M  V30 43 H 0.648205 0.543862 -0.105627 0
M  V30 44 H 0.854225 -0.183333 -3.665277 0
M  V30 45 H -0.502779 4.403582 -1.737965 0
M  V30 46 H -2.476610 5.619085 -0.986618 0
M  V30 47 H -4.708835 6.432871 -0.211376 0
M  V30 48 H -6.128437 2.407594 -0.336628 0
M  V30 49 H -5.463993 0.409570 -1.419920 0
M  V30 50 H -3.955811 -0.460594 -1.877506 0
M  V30 51 H -4.650182 0.277373 1.002322 0
M  V30 52 H -4.545207 -2.592809 -0.071139 0
M  V30 53 H -5.476650 -1.880334 1.285296 0
M  V30 54 H -6.021651 -1.647162 -0.475441 0
M  V30 55 H -2.984640 -1.713764 0.920312 0
M  V30 56 H 3.829223 -2.806390 -1.396578 0
M  V30 57 H 5.813443 -2.950094 1.635537 0
M  V30 58 H 5.157966 -3.341988 0.019302 0
M  V30 59 H 4.155500 -5.271265 0.723622 0
M  V30 60 H 5.584660 -5.243275 1.785601 0
M  V30 END ATOM
M  V30 BEGIN BOND
M  V30 1 1 1 2
M  V30 2 1 2 3
M  V30 3 1 3 4
M  V30 4 1 4 5
M  V30 5 1 5 6
M  V30 6 1 6 7
M  V30 7 2 7 8
M  V30 8 1 8 9
M  V30 9 2 9 10
M  V30 10 1 10 11
M  V30 11 1 11 12
M  V30 12 2 12 13
M  V30 13 1 13 14
M  V30 14 2 14 15
M  V30 15 1 15 16
M  V30 16 2 16 17
M  V30 17 1 17 18
M  V30 18 2 18 19
M  V30 19 1 19 20
M  V30 20 2 20 21
M  V30 21 1 21 22
M  V30 22 1 22 23
M  V30 23 1 23 24
M  V30 24 1 24 25
M  V30 25 1 24 26
M  V30 26 1 22 27
M  V30 27 2 27 28
M  V30 28 1 10 29
M  V30 29 2 29 30
M  V30 30 1 6 31
M  V30 31 1 31 32
M  V30 32 1 32 3
M  V30 33 1 30 7
M  V30 34 1 28 12
M  V30 35 1 27 15
M  V30 36 1 21 16
M  V30 37 1 1 33
M  V30 38 1 1 34
M  V30 39 1 1 35
M  V30 40 1 2 36
M  V30 41 1 3 37
M  V30 42 1 4 38
M  V30 43 1 4 39
M  V30 44 1 5 40
M  V30 45 1 5 41
M  V30 46 1 8 42
M  V30 47 1 9 43
M  V30 48 1 11 44
M  V30 49 1 14 45
M  V30 50 1 17 46
M  V30 51 1 18 47
M  V30 52 1 20 48
M  V30 53 1 23 49
M  V30 54 1 23 50
M  V30 55 1 24 51 CFG=1
M  V30 56 1 25 52
M  V30 57 1 25 53
M  V30 58 1 25 54
M  V30 59 1 26 55
M  V30 60 1 30 56
M  V30 61 1 31 57
M  V30 62 1 31 58
M  V30 63 1 32 59
M  V30 64 1 32 60
M  V30 END BOND
M  V30 END CTAB
M  END
>  <Dataset>  (182) 
ChEMBL_Kinases

>  <Ligand_Instance>  (182) 
nan

>  <PDB_ID>  (182) 
nan

>  <Standardized_SMILES>  (182) 
CNC1CCN(c2ccc(Nc3ncc4c5ccncc5n(C[C@@H](C)O)c4n3)nc2)CC1

>  <Name>  (182) 
nan

>  <Pocket>  (182) 
nan

>  <ATP_Site>  (182) 
nan

>  <Peripheral>  (182) 
nan

>  <Num_H_Atoms_ProtBoundConf>  (182) 
nan

>  <Num_Resolved_Atoms>  (182) 
nan

>  <Num_Not_Resolved_Atoms>  (182) 
nan

$$$$
CHEMBL3641982
     RDKit          3D

  0  0  0  0  0  0  0  0  0  0999 V3000
M  V30 BEGIN CTAB
M  V30 COUNTS 53 57 0 0 0
M  V30 BEGIN ATOM
M  V30 1 C 0.485484 -0.954306 3.181387 0
M  V30 2 C 1.526304 -2.079111 3.129831 0 CFG=2
M  V30 3 O 2.424737 -1.947177 4.170489 0
M  V30 4 C 2.251004 -2.059834 1.804915 0
M  V30 5 N 2.911478 -0.776941 1.667213 0
M  V30 6 C 4.177227 -0.625363 2.125317 0
M  V30 7 C 5.124442 -1.403545 2.747763 0
M  V30 8 N 6.339572 -0.937939 3.087178 0
M  V30 9 C 6.718793 0.338598 2.838342 0
M  V30 10 C 5.803502 1.162731 2.214242 0
M  V30 11 C 4.556758 0.674570 1.869276 0
M  V30 12 C 3.501266 1.327405 1.242902 0
M  V30 13 C 3.233109 2.584312 0.741427 0
M  V30 14 N 2.045114 2.870540 0.176896 0
M  V30 15 C 1.062002 1.938188 0.076533 0
M  V30 16 N -0.198590 2.231055 -0.519064 0
M  V30 17 C -1.249528 1.277674 -0.640009 0
M  V30 18 C -2.449471 1.624116 -1.228055 0
M  V30 19 C -3.447224 0.670508 -1.327613 0
M  V30 20 C -3.208783 -0.595350 -0.835374 0
M  V30 21 N -4.234260 -1.575747 -0.937407 0
M  V30 22 C -5.555511 -1.417814 -1.514131 0
M  V30 23 C -5.667204 -2.683410 -2.363373 0
M  V30 24 C -4.650013 -3.649926 -1.796159 0 CFG=1
M  V30 25 O -3.484287 -3.662006 -2.591619 0
M  V30 26 C -4.216454 -2.958413 -0.496719 0
M  V30 27 C -2.004209 -0.925613 -0.250559 0
M  V30 28 N -1.065460 0.030494 -0.175351 0
M  V30 29 N 1.323008 0.700764 0.569036 0
M  V30 30 C 2.501369 0.389964 1.137442 0
M  V30 31 H -0.142762 -0.961174 2.277941 0
M  V30 32 H 1.073111 -0.025180 3.261615 0
M  V30 33 H -0.151381 -1.074243 4.076026 0
M  V30 34 H 1.010108 -3.038913 3.226981 0
M  V30 35 H 2.078896 -1.460762 4.950467 0
M  V30 36 H 2.883901 -2.925962 1.643710 0
M  V30 37 H 1.437592 -2.114481 1.027073 0
M  V30 38 H 4.873214 -2.431122 2.969675 0
M  V30 39 H 7.704162 0.712683 3.114669 0
M  V30 40 H 6.063886 2.202304 1.992233 0
M  V30 41 H 4.017849 3.315463 0.825608 0
M  V30 42 H -0.341937 3.198848 -0.879860 0
M  V30 43 H -2.538375 2.645549 -1.583893 0
M  V30 44 H -4.360966 0.992965 -1.793737 0
M  V30 45 H -6.264391 -1.512201 -0.666119 0
M  V30 46 H -5.697341 -0.513051 -2.099895 0
M  V30 47 H -5.400939 -2.414075 -3.396580 0
M  V30 48 H -6.700901 -3.048861 -2.256180 0
M  V30 49 H -5.031130 -4.653398 -1.608513 0
M  V30 50 H -3.571755 -3.105757 -3.403582 0
M  V30 51 H -3.209483 -3.305484 -0.193469 0
M  V30 52 H -4.926897 -3.162365 0.330068 0
M  V30 53 H -1.772567 -1.903190 0.148607 0
M  V30 END ATOM
M  V30 BEGIN BOND
M  V30 1 1 1 2
M  V30 2 1 2 3
M  V30 3 1 2 4
M  V30 4 1 4 5
M  V30 5 1 5 6
M  V30 6 2 6 7
M  V30 7 1 7 8
M  V30 8 2 8 9
M  V30 9 1 9 10
M  V30 10 2 10 11
M  V30 11 1 11 12
M  V30 12 2 12 13
M  V30 13 1 13 14
M  V30 14 2 14 15
M  V30 15 1 15 16
M  V30 16 1 16 17
M  V30 17 2 17 18
M  V30 18 1 18 19
M  V30 19 2 19 20
M  V30 20 1 20 21
M  V30 21 1 21 22
M  V30 22 1 22 23
M  V30 23 1 23 24
M  V30 24 1 24 25
M  V30 25 1 24 26
M  V30 26 1 20 27
M  V30 27 2 27 28
M  V30 28 1 15 29
M  V30 29 2 29 30
M  V30 30 1 30 5
M  V30 31 1 11 6
M  V30 32 1 30 12
M  V30 33 1 28 17
M  V30 34 1 26 21
M  V30 35 1 1 31
M  V30 36 1 1 32
M  V30 37 1 1 33
M  V30 38 1 2 34 CFG=1
M  V30 39 1 3 35
M  V30 40 1 4 36
M  V30 41 1 4 37
M  V30 42 1 7 38
M  V30 43 1 9 39
M  V30 44 1 10 40
M  V30 45 1 13 41
M  V30 46 1 16 42
M  V30 47 1 18 43
M  V30 48 1 19 44
M  V30 49 1 22 45
M  V30 50 1 22 46
M  V30 51 1 23 47
M  V30 52 1 23 48
M  V30 53 1 24 49 CFG=1
M  V30 54 1 25 50
M  V30 55 1 26 51
M  V30 56 1 26 52
M  V30 57 1 27 53
M  V30 END BOND
M  V30 END CTAB
M  END
>  <Dataset>  (183) 
ChEMBL_Kinases

>  <Ligand_Instance>  (183) 
nan

>  <PDB_ID>  (183) 
nan

>  <Standardized_SMILES>  (183) 
C[C@H](O)Cn1c2cnccc2c2cnc(Nc3ccc(N4CC[C@@H](O)C4)cn3)nc21

>  <Name>  (183) 
nan

>  <Pocket>  (183) 
nan

>  <ATP_Site>  (183) 
nan

>  <Peripheral>  (183) 
nan

>  <Num_H_Atoms_ProtBoundConf>  (183) 
nan

>  <Num_Resolved_Atoms>  (183) 
nan

>  <Num_Not_Resolved_Atoms>  (183) 
nan

$$$$
CHEMBL3641981
     RDKit          3D

  0  0  0  0  0  0  0  0  0  0999 V3000
M  V30 BEGIN CTAB
M  V30 COUNTS 57 61 0 0 0
M  V30 BEGIN ATOM
M  V30 1 C 2.173172 -1.809540 4.802375 0
M  V30 2 C 2.547878 -1.098009 3.534525 0 CFG=2
M  V30 3 O 3.696970 -1.636544 3.011374 0
M  V30 4 C 2.691148 0.399341 3.797208 0
M  V30 5 N 3.057555 1.060391 2.560989 0
M  V30 6 C 4.335867 1.261015 2.165439 0
M  V30 7 C 5.540420 0.937107 2.766883 0
M  V30 8 N 6.760438 1.215135 2.228393 0
M  V30 9 C 6.802603 1.851753 1.022774 0
M  V30 10 C 5.635995 2.202134 0.370831 0
M  V30 11 C 4.400091 1.903004 0.949081 0
M  V30 12 C 3.090454 2.108365 0.576239 0
M  V30 13 C 2.512317 2.689444 -0.526150 0
M  V30 14 N 1.148552 2.729459 -0.592881 0
M  V30 15 C 0.369280 2.214412 0.394022 0
M  V30 16 N -0.998544 2.382532 0.055411 0
M  V30 17 C -1.710830 1.152110 -0.196002 0
M  V30 18 C -3.050124 1.172313 -0.580584 0
M  V30 19 C -3.756079 0.010252 -0.808963 0
M  V30 20 C -3.134490 -1.210703 -0.656812 0
M  V30 21 N -3.695902 -2.502891 -0.859754 0
M  V30 22 C -3.147777 -3.799255 -0.464588 0
M  V30 23 C -3.056480 -4.737089 -1.633629 0
M  V30 24 N -3.475994 -4.193148 -2.876975 0
M  V30 25 C -4.515345 -3.246819 -2.910681 0 CFG=1
M  V30 26 C -5.679136 -3.862661 -3.689072 0
M  V30 27 C -4.965785 -2.749173 -1.546785 0
M  V30 28 C -1.809350 -1.222363 -0.276376 0
M  V30 29 N -1.160495 -0.065695 -0.064958 0
M  V30 30 N 0.947474 1.636838 1.489721 0
M  V30 31 C 2.302118 1.583453 1.580528 0
M  V30 32 H 3.124417 -2.107840 5.309815 0
M  V30 33 H 1.580278 -1.169782 5.460053 0
M  V30 34 H 1.678680 -2.773446 4.539355 0
M  V30 35 H 1.731782 -1.200245 2.764133 0
M  V30 36 H 3.495703 -2.149628 2.179188 0
M  V30 37 H 3.517529 0.493333 4.531961 0
M  V30 38 H 1.767872 0.816841 4.200314 0
M  V30 39 H 5.606295 0.430772 3.725324 0
M  V30 40 H 7.660721 2.153582 0.443535 0
M  V30 41 H 5.566719 2.706388 -0.582894 0
M  V30 42 H 3.149540 3.091257 -1.296969 0
M  V30 43 H -1.523724 3.254372 -0.030231 0
M  V30 44 H -3.547396 2.103991 -0.703774 0
M  V30 45 H -4.789684 -0.019256 -1.106520 0
M  V30 46 H -3.912509 -4.204606 0.260067 0
M  V30 47 H -2.224554 -3.706864 0.130900 0
M  V30 48 H -1.996023 -5.052016 -1.724545 0
M  V30 49 H -3.638789 -5.672517 -1.444905 0
M  V30 50 H -2.763506 -4.120858 -3.604173 0
M  V30 51 H -4.229683 -2.296468 -3.453611 0
M  V30 52 H -6.345248 -4.440093 -3.048345 0
M  V30 53 H -6.202712 -3.084577 -4.267656 0
M  V30 54 H -5.252294 -4.606363 -4.425407 0
M  V30 55 H -5.589604 -3.492169 -1.013506 0
M  V30 56 H -5.537979 -1.807773 -1.676776 0
M  V30 57 H -1.119817 -2.034955 -0.095827 0
M  V30 END ATOM
M  V30 BEGIN BOND
M  V30 1 1 1 2
M  V30 2 1 2 3
M  V30 3 1 2 4
M  V30 4 1 4 5
M  V30 5 1 5 6
M  V30 6 2 6 7
M  V30 7 1 7 8
M  V30 8 2 8 9
M  V30 9 1 9 10
M  V30 10 2 10 11
M  V30 11 1 11 12
M  V30 12 2 12 13
M  V30 13 1 13 14
M  V30 14 2 14 15
M  V30 15 1 15 16
M  V30 16 1 16 17
M  V30 17 2 17 18
M  V30 18 1 18 19
M  V30 19 2 19 20
M  V30 20 1 20 21
M  V30 21 1 21 22
M  V30 22 1 22 23
M  V30 23 1 23 24
M  V30 24 1 24 25
M  V30 25 1 25 26
M  V30 26 1 25 27
M  V30 27 1 20 28
M  V30 28 2 28 29
M  V30 29 1 15 30
M  V30 30 2 30 31
M  V30 31 1 31 5
M  V30 32 1 11 6
M  V30 33 1 31 12
M  V30 34 1 29 17
M  V30 35 1 27 21
M  V30 36 1 1 32
M  V30 37 1 1 33
M  V30 38 1 1 34
M  V30 39 1 2 35 CFG=3
M  V30 40 1 3 36
M  V30 41 1 4 37
M  V30 42 1 4 38
M  V30 43 1 7 39
M  V30 44 1 9 40
M  V30 45 1 10 41
M  V30 46 1 13 42
M  V30 47 1 16 43
M  V30 48 1 18 44
M  V30 49 1 19 45
M  V30 50 1 22 46
M  V30 51 1 22 47
M  V30 52 1 23 48
M  V30 53 1 23 49
M  V30 54 1 24 50
M  V30 55 1 25 51 CFG=3
M  V30 56 1 26 52
M  V30 57 1 26 53
M  V30 58 1 26 54
M  V30 59 1 27 55
M  V30 60 1 27 56
M  V30 61 1 28 57
M  V30 END BOND
M  V30 END CTAB
M  END
>  <Dataset>  (184) 
ChEMBL_Kinases

>  <Ligand_Instance>  (184) 
nan

>  <PDB_ID>  (184) 
nan

>  <Standardized_SMILES>  (184) 
C[C@H](O)Cn1c2cnccc2c2cnc(Nc3ccc(N4CCN[C@@H](C)C4)cn3)nc21

>  <Name>  (184) 
nan

>  <Pocket>  (184) 
nan

>  <ATP_Site>  (184) 
nan

>  <Peripheral>  (184) 
nan

>  <Num_H_Atoms_ProtBoundConf>  (184) 
nan

>  <Num_Resolved_Atoms>  (184) 
nan

>  <Num_Not_Resolved_Atoms>  (184) 
nan

$$$$
CHEMBL3641980
     RDKit          3D

  0  0  0  0  0  0  0  0  0  0999 V3000
M  V30 BEGIN CTAB
M  V30 COUNTS 63 67 0 0 0
M  V30 BEGIN ATOM
M  V30 1 C 2.786386 -0.242245 1.184554 0
M  V30 2 C 4.125516 0.182726 1.750881 0 CFG=2
M  V30 3 O 4.544417 -0.818351 2.625861 0
M  V30 4 C 4.032985 1.475146 2.509633 0
M  V30 5 N 3.570072 2.561082 1.679790 0
M  V30 6 C 4.276996 3.437636 0.921778 0
M  V30 7 C 5.639888 3.542385 0.726911 0
M  V30 8 N 6.108046 4.517032 -0.089875 0
M  V30 9 C 5.214074 5.354132 -0.685686 0
M  V30 10 C 3.857612 5.297316 -0.529652 0
M  V30 11 C 3.390293 4.298122 0.306707 0
M  V30 12 C 2.108837 3.936948 0.699831 0
M  V30 13 C 0.843275 4.446624 0.395753 0
M  V30 14 N -0.231816 3.859861 0.952064 0
M  V30 15 C -0.112668 2.798932 1.789930 0
M  V30 16 N -1.211846 2.137903 2.407072 0
M  V30 17 C -1.825285 1.040337 1.742881 0
M  V30 18 C -2.891591 0.376284 2.309139 0
M  V30 19 C -3.462349 -0.682601 1.639557 0
M  V30 20 C -3.044879 -1.150228 0.411838 0
M  V30 21 N -3.608165 -2.231733 -0.289826 0
M  V30 22 C -3.209024 -2.647271 -1.612834 0
M  V30 23 C -2.577904 -4.024955 -1.472679 0
M  V30 24 C -3.730452 -4.950021 -1.121475 0
M  V30 25 N -3.346311 -6.329198 -1.128000 0
M  V30 26 C -2.860267 -6.742686 -2.422274 0
M  V30 27 C -2.300179 -6.633192 -0.173327 0
M  V30 28 C -4.346535 -4.546589 0.174549 0
M  V30 29 C -4.649811 -3.071598 0.212122 0
M  V30 30 C -1.976597 -0.430889 -0.080688 0
M  V30 31 N -1.390989 0.610496 0.543919 0
M  V30 32 N 1.115915 2.333356 2.061843 0
M  V30 33 C 2.251999 2.846552 1.559312 0
M  V30 34 H 2.879543 -1.295584 0.825175 0
M  V30 35 H 2.068013 -0.299176 2.035050 0
M  V30 36 H 2.447234 0.363020 0.337543 0
M  V30 37 H 4.867875 0.265050 0.932608 0
M  V30 38 H 3.983019 -0.820358 3.451771 0
M  V30 39 H 5.046247 1.689037 2.916882 0
M  V30 40 H 3.389788 1.337495 3.406840 0
M  V30 41 H 6.325115 2.847425 1.226320 0
M  V30 42 H 5.687070 6.106174 -1.324881 0
M  V30 43 H 3.195668 5.979856 -1.021036 0
M  V30 44 H 0.728968 5.285851 -0.265346 0
M  V30 45 H -1.577833 2.437046 3.331075 0
M  V30 46 H -3.242756 0.708367 3.257652 0
M  V30 47 H -4.282975 -1.144819 2.139808 0
M  V30 48 H -2.531555 -1.941403 -2.130993 0
M  V30 49 H -4.150079 -2.768431 -2.221895 0
M  V30 50 H -2.067019 -4.343390 -2.384450 0
M  V30 51 H -1.829516 -3.985749 -0.639267 0
M  V30 52 H -4.491956 -4.822258 -1.918102 0
M  V30 53 H -3.568134 -6.471051 -3.247947 0
M  V30 54 H -2.770135 -7.849493 -2.461224 0
M  V30 55 H -1.822941 -6.358473 -2.610013 0
M  V30 56 H -2.631765 -6.513612 0.879202 0
M  V30 57 H -1.370561 -6.042044 -0.386735 0
M  V30 58 H -2.026984 -7.695684 -0.327257 0
M  V30 59 H -3.718191 -4.770017 1.057567 0
M  V30 60 H -5.304886 -5.084973 0.312784 0
M  V30 61 H -4.905823 -2.824061 1.256668 0
M  V30 62 H -5.570705 -2.838125 -0.384292 0
M  V30 63 H -1.499829 -0.634504 -1.022826 0
M  V30 END ATOM
M  V30 BEGIN BOND
M  V30 1 1 1 2
M  V30 2 1 2 3
M  V30 3 1 2 4
M  V30 4 1 4 5
M  V30 5 1 5 6
M  V30 6 2 6 7
M  V30 7 1 7 8
M  V30 8 2 8 9
M  V30 9 1 9 10
M  V30 10 2 10 11
M  V30 11 1 11 12
M  V30 12 2 12 13
M  V30 13 1 13 14
M  V30 14 2 14 15
M  V30 15 1 15 16
M  V30 16 1 16 17
M  V30 17 2 17 18
M  V30 18 1 18 19
M  V30 19 2 19 20
M  V30 20 1 20 21
M  V30 21 1 21 22
M  V30 22 1 22 23
M  V30 23 1 23 24
M  V30 24 1 24 25
M  V30 25 1 25 26
M  V30 26 1 25 27
M  V30 27 1 24 28
M  V30 28 1 28 29
M  V30 29 1 20 30
M  V30 30 2 30 31
M  V30 31 1 15 32
M  V30 32 2 32 33
M  V30 33 1 33 5
M  V30 34 1 11 6
M  V30 35 1 33 12
M  V30 36 1 31 17
M  V30 37 1 29 21
M  V30 38 1 1 34
M  V30 39 1 1 35
M  V30 40 1 1 36
M  V30 41 1 2 37 CFG=3
M  V30 42 1 3 38
M  V30 43 1 4 39
M  V30 44 1 4 40
M  V30 45 1 7 41
M  V30 46 1 9 42
M  V30 47 1 10 43
M  V30 48 1 13 44
M  V30 49 1 16 45
M  V30 50 1 18 46
M  V30 51 1 19 47
M  V30 52 1 22 48
M  V30 53 1 22 49
M  V30 54 1 23 50
M  V30 55 1 23 51
M  V30 56 1 24 52
M  V30 57 1 26 53
M  V30 58 1 26 54
M  V30 59 1 26 55
M  V30 60 1 27 56
M  V30 61 1 27 57
M  V30 62 1 27 58
M  V30 63 1 28 59
M  V30 64 1 28 60
M  V30 65 1 29 61
M  V30 66 1 29 62
M  V30 67 1 30 63
M  V30 END BOND
M  V30 END CTAB
M  END
>  <Dataset>  (185) 
ChEMBL_Kinases

>  <Ligand_Instance>  (185) 
nan

>  <PDB_ID>  (185) 
nan

>  <Standardized_SMILES>  (185) 
C[C@H](O)Cn1c2cnccc2c2cnc(Nc3ccc(N4CCC(N(C)C)CC4)cn3)nc21

>  <Name>  (185) 
nan

>  <Pocket>  (185) 
nan

>  <ATP_Site>  (185) 
nan

>  <Peripheral>  (185) 
nan

>  <Num_H_Atoms_ProtBoundConf>  (185) 
nan

>  <Num_Resolved_Atoms>  (185) 
nan

>  <Num_Not_Resolved_Atoms>  (185) 
nan

$$$$
CHEMBL3641979
     RDKit          3D

  0  0  0  0  0  0  0  0  0  0999 V3000
M  V30 BEGIN CTAB
M  V30 COUNTS 54 58 0 0 0
M  V30 BEGIN ATOM
M  V30 1 C 3.578155 -1.261236 2.741864 0
M  V30 2 C 2.424331 -1.507460 1.799333 0 CFG=2
M  V30 3 O 2.365301 -2.911815 1.642177 0
M  V30 4 C 2.742479 -0.944282 0.453439 0
M  V30 5 N 2.989180 0.481243 0.464506 0
M  V30 6 C 4.125508 1.179692 0.623274 0
M  V30 7 C 5.409004 0.772443 0.821190 0
M  V30 8 N 6.395358 1.674462 0.953120 0
M  V30 9 C 6.223990 2.999945 0.905532 0
M  V30 10 C 4.920974 3.430472 0.704249 0
M  V30 11 C 3.868336 2.552040 0.562042 0
M  V30 12 C 2.515845 2.641868 0.357787 0
M  V30 13 C 1.747632 3.785619 0.223422 0
M  V30 14 N 0.427129 3.591315 0.028393 0
M  V30 15 C -0.101012 2.341757 -0.030080 0
M  V30 16 N -1.505054 2.179386 -0.239173 0
M  V30 17 C -2.120431 0.911109 -0.304330 0
M  V30 18 C -3.475575 0.735031 -0.507892 0
M  V30 19 C -4.042128 -0.524121 -0.564319 0
M  V30 20 C -3.179400 -1.586691 -0.406266 0
M  V30 21 N -3.751820 -2.885457 -0.462159 0
M  V30 22 C -5.167301 -3.098831 -0.670723 0
M  V30 23 C -5.614101 -4.464239 -0.217492 0
M  V30 24 N -4.957758 -4.910839 0.974065 0
M  V30 25 C -3.539921 -4.751218 0.999225 0
M  V30 26 C -3.070737 -4.156805 -0.329484 0
M  V30 27 C -1.826412 -1.425443 -0.202719 0
M  V30 28 N -1.335697 -0.173565 -0.157782 0
M  V30 29 N 0.642623 1.227557 0.100095 0
M  V30 30 C 1.967500 1.355381 0.296828 0
M  V30 31 H 4.507794 -1.741473 2.389556 0
M  V30 32 H 3.658409 -0.173315 2.924633 0
M  V30 33 H 3.367366 -1.706608 3.751448 0
M  V30 34 H 1.465368 -1.177679 2.196674 0
M  V30 35 H 1.753330 -3.273072 2.330126 0
M  V30 36 H 1.975374 -1.209966 -0.315432 0
M  V30 37 H 3.662296 -1.496733 0.099900 0
M  V30 38 H 5.642831 -0.279192 0.872667 0
M  V30 39 H 7.070144 3.664880 1.020427 0
M  V30 40 H 4.737616 4.487331 0.659353 0
M  V30 41 H 2.155649 4.778416 0.268148 0
M  V30 42 H -2.118189 3.018188 -0.350597 0
M  V30 43 H -4.045362 1.628258 -0.616929 0
M  V30 44 H -5.093145 -0.545975 -0.725159 0
M  V30 45 H -5.359054 -3.048857 -1.765848 0
M  V30 46 H -5.759688 -2.361440 -0.091597 0
M  V30 47 H -6.702361 -4.402769 -0.012915 0
M  V30 48 H -5.520887 -5.195312 -1.052679 0
M  V30 49 H -5.406425 -4.593980 1.856781 0
M  V30 50 H -3.098636 -5.773586 1.118961 0
M  V30 51 H -3.153202 -4.163405 1.842615 0
M  V30 52 H -1.981256 -4.098159 -0.336760 0
M  V30 53 H -3.374858 -4.858712 -1.134287 0
M  V30 54 H -1.148151 -2.257611 -0.078509 0
M  V30 END ATOM
M  V30 BEGIN BOND
M  V30 1 1 1 2
M  V30 2 1 2 3
M  V30 3 1 2 4
M  V30 4 1 4 5
M  V30 5 1 5 6
M  V30 6 2 6 7
M  V30 7 1 7 8
M  V30 8 2 8 9
M  V30 9 1 9 10
M  V30 10 2 10 11
M  V30 11 1 11 12
M  V30 12 2 12 13
M  V30 13 1 13 14
M  V30 14 2 14 15
M  V30 15 1 15 16
M  V30 16 1 16 17
M  V30 17 2 17 18
M  V30 18 1 18 19
M  V30 19 2 19 20
M  V30 20 1 20 21
M  V30 21 1 21 22
M  V30 22 1 22 23
M  V30 23 1 23 24
M  V30 24 1 24 25
M  V30 25 1 25 26
M  V30 26 1 20 27
M  V30 27 2 27 28
M  V30 28 1 15 29
M  V30 29 2 29 30
M  V30 30 1 30 5
M  V30 31 1 11 6
M  V30 32 1 30 12
M  V30 33 1 28 17
M  V30 34 1 26 21
M  V30 35 1 1 31
M  V30 36 1 1 32
M  V30 37 1 1 33
M  V30 38 1 2 34 CFG=1
M  V30 39 1 3 35
M  V30 40 1 4 36
M  V30 41 1 4 37
M  V30 42 1 7 38
M  V30 43 1 9 39
M  V30 44 1 10 40
M  V30 45 1 13 41
M  V30 46 1 16 42
M  V30 47 1 18 43
M  V30 48 1 19 44
M  V30 49 1 22 45
M  V30 50 1 22 46
M  V30 51 1 23 47
M  V30 52 1 23 48
M  V30 53 1 24 49
M  V30 54 1 25 50
M  V30 55 1 25 51
M  V30 56 1 26 52
M  V30 57 1 26 53
M  V30 58 1 27 54
M  V30 END BOND
M  V30 END CTAB
M  END
>  <Dataset>  (186) 
ChEMBL_Kinases

>  <Ligand_Instance>  (186) 
nan

>  <PDB_ID>  (186) 
nan

>  <Standardized_SMILES>  (186) 
C[C@H](O)Cn1c2cnccc2c2cnc(Nc3ccc(N4CCNCC4)cn3)nc21

>  <Name>  (186) 
nan

>  <Pocket>  (186) 
nan

>  <ATP_Site>  (186) 
nan

>  <Peripheral>  (186) 
nan

>  <Num_H_Atoms_ProtBoundConf>  (186) 
nan

>  <Num_Resolved_Atoms>  (186) 
nan

>  <Num_Not_Resolved_Atoms>  (186) 
nan

$$$$
CHEMBL3641978
     RDKit          3D

  0  0  0  0  0  0  0  0  0  0999 V3000
M  V30 BEGIN CTAB
M  V30 COUNTS 50 54 0 0 0
M  V30 BEGIN ATOM
M  V30 1 O 2.749985 -3.278244 4.674538 0
M  V30 2 C 3.067179 -2.542925 3.516282 0
M  V30 3 C 3.525267 -1.137246 3.845451 0
M  V30 4 N 3.850985 -0.380785 2.663887 0
M  V30 5 C 5.077174 -0.353037 2.120187 0
M  V30 6 C 6.293095 -0.935167 2.424680 0
M  V30 7 N 7.426201 -0.762682 1.719175 0
M  V30 8 C 7.356553 0.037650 0.640468 0
M  V30 9 C 6.206528 0.680747 0.224390 0
M  V30 10 C 5.056418 0.470480 0.989167 0
M  V30 11 C 3.767096 0.946935 0.861194 0
M  V30 12 C 3.148348 1.788117 -0.047607 0
M  V30 13 N 1.841831 2.078799 0.088599 0
M  V30 14 C 1.140192 1.538387 1.125385 0
M  V30 15 N -0.228122 1.924951 1.154650 0
M  V30 16 C -1.324721 1.266462 0.513938 0
M  V30 17 C -2.642765 1.672017 0.564792 0
M  V30 18 C -3.597249 0.935348 -0.106182 0
M  V30 19 C -3.245441 -0.189957 -0.818423 0
M  V30 20 N -4.181558 -0.986891 -1.528758 0
M  V30 21 C -5.601541 -0.719966 -1.602006 0
M  V30 22 C -6.298580 -1.779687 -0.766026 0
M  V30 23 N -5.529299 -3.013511 -0.745434 0
M  V30 24 C -4.824758 -3.222088 -2.013238 0
M  V30 25 C -3.768064 -2.152780 -2.247987 0
M  V30 26 N -1.948334 -0.540913 -0.835324 0
M  V30 27 N -1.009386 0.147169 -0.200409 0
M  V30 28 N 1.732997 0.718073 2.016089 0
M  V30 29 C 3.052760 0.400212 1.912091 0
M  V30 30 H 2.038087 -2.856997 5.193798 0
M  V30 31 H 2.149835 -2.497105 2.889085 0
M  V30 32 H 3.884137 -3.111390 3.011823 0
M  V30 33 H 2.705591 -0.655215 4.434313 0
M  V30 34 H 4.423936 -1.207360 4.499605 0
M  V30 35 H 6.350390 -1.578129 3.290639 0
M  V30 36 H 8.231671 0.201818 0.052851 0
M  V30 37 H 6.187065 1.322237 -0.655882 0
M  V30 38 H 3.747151 2.200541 -0.865356 0
M  V30 39 H -0.461808 2.795523 1.711830 0
M  V30 40 H -2.849455 2.554683 1.135657 0
M  V30 41 H -4.612914 1.255992 -0.061364 0
M  V30 42 H -5.931039 -0.866825 -2.666389 0
M  V30 43 H -5.891248 0.293582 -1.316021 0
M  V30 44 H -6.338317 -1.399013 0.259840 0
M  V30 45 H -7.314116 -1.981610 -1.184857 0
M  V30 46 H -6.190455 -3.792015 -0.650856 0
M  V30 47 H -4.257285 -4.183186 -1.849343 0
M  V30 48 H -5.530997 -3.331198 -2.843983 0
M  V30 49 H -2.743715 -2.497217 -2.007675 0
M  V30 50 H -3.787782 -1.918019 -3.352017 0
M  V30 END ATOM
M  V30 BEGIN BOND
M  V30 1 1 1 2
M  V30 2 1 2 3
M  V30 3 1 3 4
M  V30 4 1 4 5
M  V30 5 2 5 6
M  V30 6 1 6 7
M  V30 7 2 7 8
M  V30 8 1 8 9
M  V30 9 2 9 10
M  V30 10 1 10 11
M  V30 11 2 11 12
M  V30 12 1 12 13
M  V30 13 2 13 14
M  V30 14 1 14 15
M  V30 15 1 15 16
M  V30 16 2 16 17
M  V30 17 1 17 18
M  V30 18 2 18 19
M  V30 19 1 19 20
M  V30 20 1 20 21
M  V30 21 1 21 22
M  V30 22 1 22 23
M  V30 23 1 23 24
M  V30 24 1 24 25
M  V30 25 1 19 26
M  V30 26 2 26 27
M  V30 27 1 14 28
M  V30 28 2 28 29
M  V30 29 1 29 4
M  V30 30 1 10 5
M  V30 31 1 29 11
M  V30 32 1 27 16
M  V30 33 1 25 20
M  V30 34 1 1 30
M  V30 35 1 2 31
M  V30 36 1 2 32
M  V30 37 1 3 33
M  V30 38 1 3 34
M  V30 39 1 6 35
M  V30 40 1 8 36
M  V30 41 1 9 37
M  V30 42 1 12 38
M  V30 43 1 15 39
M  V30 44 1 17 40
M  V30 45 1 18 41
M  V30 46 1 21 42
M  V30 47 1 21 43
M  V30 48 1 22 44
M  V30 49 1 22 45
M  V30 50 1 23 46
M  V30 51 1 24 47
M  V30 52 1 24 48
M  V30 53 1 25 49
M  V30 54 1 25 50
M  V30 END BOND
M  V30 END CTAB
M  END
>  <Dataset>  (187) 
ChEMBL_Kinases

>  <Ligand_Instance>  (187) 
nan

>  <PDB_ID>  (187) 
nan

>  <Standardized_SMILES>  (187) 
OCCn1c2cnccc2c2cnc(Nc3ccc(N4CCNCC4)nn3)nc21

>  <Name>  (187) 
nan

>  <Pocket>  (187) 
nan

>  <ATP_Site>  (187) 
nan

>  <Peripheral>  (187) 
nan

>  <Num_H_Atoms_ProtBoundConf>  (187) 
nan

>  <Num_Resolved_Atoms>  (187) 
nan

>  <Num_Not_Resolved_Atoms>  (187) 
nan

$$$$
CHEMBL3641977
     RDKit          3D

  0  0  0  0  0  0  0  0  0  0999 V3000
M  V30 BEGIN CTAB
M  V30 COUNTS 52 56 0 0 0
M  V30 BEGIN ATOM
M  V30 1 C 1.420630 0.095365 3.999097 0
M  V30 2 C 2.214251 -1.122208 3.595993 0 CFG=1
M  V30 3 O 1.730337 -2.211363 4.311026 0
M  V30 4 C 2.094713 -1.346525 2.086090 0
M  V30 5 N 2.604988 -0.168130 1.388563 0
M  V30 6 C 3.886526 0.030027 1.057115 0
M  V30 7 C 5.036557 -0.739976 1.227258 0
M  V30 8 N 6.197640 -0.250830 0.763586 0
M  V30 9 C 6.314980 0.942538 0.143122 0
M  V30 10 C 5.209597 1.754524 -0.056095 0
M  V30 11 C 3.995578 1.267789 0.415899 0
M  V30 12 C 2.738692 1.830101 0.360670 0
M  V30 13 C 2.204046 2.998560 -0.137947 0
M  V30 14 N 0.864828 3.243567 -0.033135 0
M  V30 15 C 0.058500 2.345020 0.557306 0
M  V30 16 N -1.366454 2.399873 0.744232 0
M  V30 17 C -2.115596 1.177814 0.518210 0
M  V30 18 C -3.464068 1.035066 0.623475 0
M  V30 19 C -4.077538 -0.173512 0.350739 0
M  V30 20 C -3.330122 -1.252249 -0.030870 0
M  V30 21 N -3.786918 -2.549617 -0.379862 0
M  V30 22 C -5.032696 -3.201162 -0.740201 0
M  V30 23 C -4.650374 -3.658366 -2.155517 0
M  V30 24 C -3.203527 -4.114856 -1.913566 0 CFG=1
M  V30 25 O -2.313606 -3.332053 -2.662474 0
M  V30 26 C -2.938028 -3.755205 -0.458131 0
M  V30 27 N -2.009623 -1.026280 -0.108674 0
M  V30 28 N -1.412248 0.089346 0.139455 0
M  V30 29 N 0.608583 1.203437 1.043215 0
M  V30 30 C 1.915922 0.908851 0.970339 0
M  V30 31 H 0.395442 0.036131 3.568790 0
M  V30 32 H 1.936385 1.041482 3.713664 0
M  V30 33 H 1.276523 0.142921 5.107796 0
M  V30 34 H 3.296961 -1.002678 3.845713 0
M  V30 35 H 1.241770 -2.804564 3.686761 0
M  V30 36 H 1.039792 -1.450964 1.786672 0
M  V30 37 H 2.741742 -2.195735 1.817074 0
M  V30 38 H 4.929545 -1.693813 1.724766 0
M  V30 39 H 7.327526 1.209335 -0.181166 0
M  V30 40 H 5.314792 2.695253 -0.544955 0
M  V30 41 H 2.825050 3.736579 -0.617341 0
M  V30 42 H -1.790950 3.290607 1.028583 0
M  V30 43 H -4.013313 1.897937 0.925413 0
M  V30 44 H -5.134764 -0.313991 0.425751 0
M  V30 45 H -5.908711 -2.550112 -0.754406 0
M  V30 46 H -5.167030 -4.124245 -0.154282 0
M  V30 47 H -4.627129 -2.744404 -2.795020 0
M  V30 48 H -5.287718 -4.464261 -2.520385 0
M  V30 49 H -3.116874 -5.190627 -2.113441 0
M  V30 50 H -2.070696 -3.777234 -3.515428 0
M  V30 51 H -1.877348 -3.509473 -0.256744 0
M  V30 52 H -3.362228 -4.544233 0.186958 0
M  V30 END ATOM
M  V30 BEGIN BOND
M  V30 1 1 1 2
M  V30 2 1 2 3
M  V30 3 1 2 4
M  V30 4 1 4 5
M  V30 5 1 5 6
M  V30 6 2 6 7
M  V30 7 1 7 8
M  V30 8 2 8 9
M  V30 9 1 9 10
M  V30 10 2 10 11
M  V30 11 1 11 12
M  V30 12 2 12 13
M  V30 13 1 13 14
M  V30 14 2 14 15
M  V30 15 1 15 16
M  V30 16 1 16 17
M  V30 17 2 17 18
M  V30 18 1 18 19
M  V30 19 2 19 20
M  V30 20 1 20 21
M  V30 21 1 21 22
M  V30 22 1 22 23
M  V30 23 1 23 24
M  V30 24 1 24 25
M  V30 25 1 24 26
M  V30 26 1 20 27
M  V30 27 2 27 28
M  V30 28 1 15 29
M  V30 29 2 29 30
M  V30 30 1 30 5
M  V30 31 1 11 6
M  V30 32 1 30 12
M  V30 33 1 28 17
M  V30 34 1 26 21
M  V30 35 1 1 31
M  V30 36 1 1 32
M  V30 37 1 1 33
M  V30 38 1 2 34 CFG=3
M  V30 39 1 3 35
M  V30 40 1 4 36
M  V30 41 1 4 37
M  V30 42 1 7 38
M  V30 43 1 9 39
M  V30 44 1 10 40
M  V30 45 1 13 41
M  V30 46 1 16 42
M  V30 47 1 18 43
M  V30 48 1 19 44
M  V30 49 1 22 45
M  V30 50 1 22 46
M  V30 51 1 23 47
M  V30 52 1 23 48
M  V30 53 1 24 49 CFG=1
M  V30 54 1 25 50
M  V30 55 1 26 51
M  V30 56 1 26 52
M  V30 END BOND
M  V30 END CTAB
M  END
>  <Dataset>  (188) 
ChEMBL_Kinases

>  <Ligand_Instance>  (188) 
nan

>  <PDB_ID>  (188) 
nan

>  <Standardized_SMILES>  (188) 
C[C@@H](O)Cn1c2cnccc2c2cnc(Nc3ccc(N4CC[C@@H](O)C4)nn3)nc21

>  <Name>  (188) 
nan

>  <Pocket>  (188) 
nan

>  <ATP_Site>  (188) 
nan

>  <Peripheral>  (188) 
nan

>  <Num_H_Atoms_ProtBoundConf>  (188) 
nan

>  <Num_Resolved_Atoms>  (188) 
nan

>  <Num_Not_Resolved_Atoms>  (188) 
nan

$$$$
CHEMBL3641976
     RDKit          3D

  0  0  0  0  0  0  0  0  0  0999 V3000
M  V30 BEGIN CTAB
M  V30 COUNTS 59 63 0 0 0
M  V30 BEGIN ATOM
M  V30 1 C 1.280750 0.347637 3.286377 0
M  V30 2 C 2.762116 0.056849 3.081771 0 CFG=1
M  V30 3 O 2.895737 -1.336248 3.215703 0
M  V30 4 C 3.219277 0.398951 1.703237 0
M  V30 5 N 3.069358 1.758914 1.307238 0
M  V30 6 C 3.994534 2.738812 1.480837 0
M  V30 7 C 5.255082 2.733178 2.042806 0
M  V30 8 N 6.035592 3.836911 2.122016 0
M  V30 9 C 5.585224 5.006566 1.637823 0
M  V30 10 C 4.324337 5.040420 1.068857 0
M  V30 11 C 3.511139 3.928580 0.977068 0
M  V30 12 C 2.252546 3.653630 0.484046 0
M  V30 13 C 1.344606 4.479482 -0.120497 0
M  V30 14 N 0.160975 3.972550 -0.524212 0
M  V30 15 C -0.115340 2.657267 -0.327918 0
M  V30 16 N -1.356200 2.092032 -0.742783 0
M  V30 17 C -1.684253 0.725129 -0.558989 0
M  V30 18 C -2.904467 0.220923 -0.979090 0
M  V30 19 C -3.207994 -1.113343 -0.792586 0
M  V30 20 C -2.282821 -1.944606 -0.181919 0
M  V30 21 N -2.408291 -3.336446 0.097518 0
M  V30 22 C -1.395698 -4.165183 0.743649 0
M  V30 23 C -0.886507 -5.073224 -0.366740 0
M  V30 24 N -1.959887 -5.956032 -0.707367 0
M  V30 25 C -3.185325 -5.338849 -1.087821 0
M  V30 26 C -3.154380 -4.801091 -2.511382 0
M  V30 27 C -4.303644 -6.351427 -0.943616 0
M  V30 28 C -3.567425 -4.151094 -0.217874 0
M  V30 29 N -1.103096 -1.407929 0.212413 0
M  V30 30 N -0.822814 -0.126816 0.028374 0
M  V30 31 N 0.809741 1.870689 0.274744 0
M  V30 32 C 2.003303 2.314193 0.698301 0
M  V30 33 H 0.648524 -0.358898 2.741738 0
M  V30 34 H 1.089741 1.429052 3.022238 0
M  V30 35 H 1.004911 0.290002 4.359157 0
M  V30 36 H 3.375300 0.480070 3.894856 0
M  V30 37 H 2.314383 -1.580141 3.982020 0
M  V30 38 H 4.305409 0.144287 1.659456 0
M  V30 39 H 2.739540 -0.325869 1.014634 0
M  V30 40 H 5.705104 1.835499 2.460716 0
M  V30 41 H 6.108527 5.965984 1.637651 0
M  V30 42 H 3.913418 5.951789 0.664928 0
M  V30 43 H 1.558856 5.533228 -0.280898 0
M  V30 44 H -2.050116 2.720426 -1.202273 0
M  V30 45 H -3.648672 0.842425 -1.458822 0
M  V30 46 H -4.123805 -1.604004 -1.080842 0
M  V30 47 H -1.831534 -4.782530 1.550024 0
M  V30 48 H -0.570231 -3.527379 1.073583 0
M  V30 49 H -0.509765 -4.474939 -1.197058 0
M  V30 50 H -0.079408 -5.678057 0.076147 0
M  V30 51 H -2.122988 -6.594644 0.087188 0
M  V30 52 H -3.290458 -5.587968 -3.271268 0
M  V30 53 H -3.947723 -4.044686 -2.671444 0
M  V30 54 H -2.153609 -4.312561 -2.648273 0
M  V30 55 H -4.085211 -7.027502 -0.082539 0
M  V30 56 H -4.266959 -6.985154 -1.868913 0
M  V30 57 H -5.295583 -5.871416 -0.859900 0
M  V30 58 H -4.369168 -3.600650 -0.742663 0
M  V30 59 H -3.915784 -4.581725 0.750120 0
M  V30 END ATOM
M  V30 BEGIN BOND
M  V30 1 1 1 2
M  V30 2 1 2 3
M  V30 3 1 2 4
M  V30 4 1 4 5
M  V30 5 1 5 6
M  V30 6 2 6 7
M  V30 7 1 7 8
M  V30 8 2 8 9
M  V30 9 1 9 10
M  V30 10 2 10 11
M  V30 11 1 11 12
M  V30 12 2 12 13
M  V30 13 1 13 14
M  V30 14 2 14 15
M  V30 15 1 15 16
M  V30 16 1 16 17
M  V30 17 2 17 18
M  V30 18 1 18 19
M  V30 19 2 19 20
M  V30 20 1 20 21
M  V30 21 1 21 22
M  V30 22 1 22 23
M  V30 23 1 23 24
M  V30 24 1 24 25
M  V30 25 1 25 26
M  V30 26 1 25 27
M  V30 27 1 25 28
M  V30 28 1 20 29
M  V30 29 2 29 30
M  V30 30 1 15 31
M  V30 31 2 31 32
M  V30 32 1 32 5
M  V30 33 1 11 6
M  V30 34 1 32 12
M  V30 35 1 30 17
M  V30 36 1 28 21
M  V30 37 1 1 33
M  V30 38 1 1 34
M  V30 39 1 1 35
M  V30 40 1 2 36 CFG=1
M  V30 41 1 3 37
M  V30 42 1 4 38
M  V30 43 1 4 39
M  V30 44 1 7 40
M  V30 45 1 9 41
M  V30 46 1 10 42
M  V30 47 1 13 43
M  V30 48 1 16 44
M  V30 49 1 18 45
M  V30 50 1 19 46
M  V30 51 1 22 47
M  V30 52 1 22 48
M  V30 53 1 23 49
M  V30 54 1 23 50
M  V30 55 1 24 51
M  V30 56 1 26 52
M  V30 57 1 26 53
M  V30 58 1 26 54
M  V30 59 1 27 55
M  V30 60 1 27 56
M  V30 61 1 27 57
M  V30 62 1 28 58
M  V30 63 1 28 59
M  V30 END BOND
M  V30 END CTAB
M  END
>  <Dataset>  (189) 
ChEMBL_Kinases

>  <Ligand_Instance>  (189) 
nan

>  <PDB_ID>  (189) 
nan

>  <Standardized_SMILES>  (189) 
C[C@@H](O)Cn1c2cnccc2c2cnc(Nc3ccc(N4CCNC(C)(C)C4)nn3)nc21

>  <Name>  (189) 
nan

>  <Pocket>  (189) 
nan

>  <ATP_Site>  (189) 
nan

>  <Peripheral>  (189) 
nan

>  <Num_H_Atoms_ProtBoundConf>  (189) 
nan

>  <Num_Resolved_Atoms>  (189) 
nan

>  <Num_Not_Resolved_Atoms>  (189) 
nan

$$$$
CHEMBL3641975
     RDKit          3D

  0  0  0  0  0  0  0  0  0  0999 V3000
M  V30 BEGIN CTAB
M  V30 COUNTS 59 63 0 0 0
M  V30 BEGIN ATOM
M  V30 1 C 3.129315 -0.698289 4.919450 0
M  V30 2 N 3.076542 -1.808412 4.071085 0
M  V30 3 C 4.154500 -2.669505 3.903399 0
M  V30 4 C 5.428765 -2.104267 3.363882 0
M  V30 5 C 5.344021 -1.860615 1.847324 0
M  V30 6 N 3.968108 -1.895821 1.412318 0
M  V30 7 C 3.247950 -0.834828 0.849907 0
M  V30 8 C 3.827590 0.333489 0.444367 0
M  V30 9 C 2.980809 1.285673 -0.084340 0
M  V30 10 C 1.608783 1.099137 -0.211562 0
M  V30 11 N 0.700684 2.034836 -0.769162 0
M  V30 12 C -0.699032 1.798179 -0.829291 0
M  V30 13 N -1.306977 2.709950 -0.018215 0
M  V30 14 C -2.668120 2.702473 0.117301 0
M  V30 15 C -3.375765 1.757100 -0.583229 0
M  V30 16 C -4.728276 1.499648 -0.650042 0
M  V30 17 C -5.854134 2.078125 -0.059461 0
M  V30 18 C -7.122566 1.577750 -0.335174 0
M  V30 19 N -7.280702 0.531628 -1.173032 0
M  V30 20 C -6.198046 -0.049076 -1.760629 0
M  V30 21 C -4.929838 0.424541 -1.507173 0
M  V30 22 N -3.683719 0.072571 -1.926799 0
M  V30 23 C -3.521296 -1.046825 -2.846111 0
M  V30 24 C -3.344960 -2.349707 -2.052628 0 CFG=1
M  V30 25 C -3.177615 -3.546752 -2.964195 0
M  V30 26 O -2.194064 -2.276813 -1.261304 0
M  V30 27 C -2.728991 0.849266 -1.394370 0
M  V30 28 N -1.392847 0.859414 -1.526312 0
M  V30 29 N 1.097022 -0.096926 0.215946 0
M  V30 30 N 1.920703 -0.996785 0.719075 0
M  V30 31 C 3.400229 -3.215461 1.623954 0
M  V30 32 C 3.735709 -3.802895 2.961779 0
M  V30 33 H 4.098427 -0.239618 5.095938 0
M  V30 34 H 2.719870 -1.005632 5.927344 0
M  V30 35 H 2.474334 0.114652 4.518713 0
M  V30 36 H 2.130440 -2.214601 3.998768 0
M  V30 37 H 4.386529 -3.177884 4.879782 0
M  V30 38 H 6.185340 -2.911274 3.480358 0
M  V30 39 H 5.846111 -1.249155 3.904530 0
M  V30 40 H 5.873966 -2.650490 1.273729 0
M  V30 41 H 5.872393 -0.911920 1.603516 0
M  V30 42 H 4.872507 0.497215 0.532767 0
M  V30 43 H 3.369996 2.218480 -0.418452 0
M  V30 44 H 1.126262 2.916316 -1.135482 0
M  V30 45 H -3.221247 3.396475 0.743271 0
M  V30 46 H -5.700763 2.923836 0.615351 0
M  V30 47 H -7.996259 2.023589 0.120236 0
M  V30 48 H -6.338926 -0.878236 -2.422678 0
M  V30 49 H -2.562818 -0.879592 -3.381032 0
M  V30 50 H -4.310571 -1.138183 -3.589928 0
M  V30 51 H -4.217533 -2.491953 -1.368241 0
M  V30 52 H -2.147470 -3.958006 -2.962842 0
M  V30 53 H -3.826317 -4.401273 -2.610203 0
M  V30 54 H -3.427717 -3.294151 -4.020572 0
M  V30 55 H -1.382871 -2.201038 -1.783670 0
M  V30 56 H 3.779025 -3.917660 0.819648 0
M  V30 57 H 2.286455 -3.085331 1.476784 0
M  V30 58 H 4.536938 -4.538964 2.837500 0
M  V30 59 H 2.828987 -4.321341 3.377653 0
M  V30 END ATOM
M  V30 BEGIN BOND
M  V30 1 1 1 2
M  V30 2 1 2 3
M  V30 3 1 3 4
M  V30 4 1 4 5
M  V30 5 1 5 6
M  V30 6 1 6 7
M  V30 7 2 7 8
M  V30 8 1 8 9
M  V30 9 2 9 10
M  V30 10 1 10 11
M  V30 11 1 11 12
M  V30 12 2 12 13
M  V30 13 1 13 14
M  V30 14 2 14 15
M  V30 15 1 15 16
M  V30 16 2 16 17
M  V30 17 1 17 18
M  V30 18 2 18 19
M  V30 19 1 19 20
M  V30 20 2 20 21
M  V30 21 1 21 22
M  V30 22 1 22 23
M  V30 23 1 23 24
M  V30 24 1 24 25
M  V30 25 1 24 26
M  V30 26 1 22 27
M  V30 27 2 27 28
M  V30 28 1 10 29
M  V30 29 2 29 30
M  V30 30 1 6 31
M  V30 31 1 31 32
M  V30 32 1 32 3
M  V30 33 1 30 7
M  V30 34 1 28 12
M  V30 35 1 27 15
M  V30 36 1 21 16
M  V30 37 1 1 33
M  V30 38 1 1 34
M  V30 39 1 1 35
M  V30 40 1 2 36
M  V30 41 1 3 37
M  V30 42 1 4 38
M  V30 43 1 4 39
M  V30 44 1 5 40
M  V30 45 1 5 41
M  V30 46 1 8 42
M  V30 47 1 9 43
M  V30 48 1 11 44
M  V30 49 1 14 45
M  V30 50 1 17 46
M  V30 51 1 18 47
M  V30 52 1 20 48
M  V30 53 1 23 49
M  V30 54 1 23 50
M  V30 55 1 24 51 CFG=1
M  V30 56 1 25 52
M  V30 57 1 25 53
M  V30 58 1 25 54
M  V30 59 1 26 55
M  V30 60 1 31 56
M  V30 61 1 31 57
M  V30 62 1 32 58
M  V30 63 1 32 59
M  V30 END BOND
M  V30 END CTAB
M  END
>  <Dataset>  (190) 
ChEMBL_Kinases

>  <Ligand_Instance>  (190) 
nan

>  <PDB_ID>  (190) 
nan

>  <Standardized_SMILES>  (190) 
CNC1CCN(c2ccc(Nc3ncc4c5ccncc5n(C[C@@H](C)O)c4n3)nn2)CC1

>  <Name>  (190) 
nan

>  <Pocket>  (190) 
nan

>  <ATP_Site>  (190) 
nan

>  <Peripheral>  (190) 
nan

>  <Num_H_Atoms_ProtBoundConf>  (190) 
nan

>  <Num_Resolved_Atoms>  (190) 
nan

>  <Num_Not_Resolved_Atoms>  (190) 
nan

$$$$
CHEMBL3641974
     RDKit          3D

  0  0  0  0  0  0  0  0  0  0999 V3000
M  V30 BEGIN CTAB
M  V30 COUNTS 62 66 0 0 0
M  V30 BEGIN ATOM
M  V30 1 C 4.024531 0.250604 -0.422181 0
M  V30 2 C 2.544940 0.102985 -0.588219 0 CFG=1
M  V30 3 O 1.891575 -0.239383 0.597583 0
M  V30 4 C 1.847215 1.291930 -1.159900 0
M  V30 5 N 1.980823 2.501240 -0.378047 0
M  V30 6 C 2.942889 3.459063 -0.482183 0
M  V30 7 C 4.036689 3.558734 -1.333843 0
M  V30 8 N 4.842445 4.648746 -1.207646 0
M  V30 9 C 4.596843 5.604867 -0.291034 0
M  V30 10 C 3.514320 5.542547 0.578616 0
M  V30 11 C 2.674746 4.429091 0.463743 0
M  V30 12 C 1.531691 4.060529 1.157882 0
M  V30 13 C 0.837373 4.677332 2.204912 0
M  V30 14 N -0.271121 4.039010 2.672056 0
M  V30 15 C -0.680667 2.871721 2.153505 0
M  V30 16 N -1.856188 2.213293 2.664869 0
M  V30 17 C -2.272283 0.973401 2.104833 0
M  V30 18 C -3.388527 0.292928 2.554992 0
M  V30 19 C -3.762546 -0.910308 1.988493 0
M  V30 20 C -2.995787 -1.429641 0.953450 0
M  V30 21 N -3.185954 -2.639828 0.233158 0
M  V30 22 C -2.364946 -3.094957 -0.875678 0
M  V30 23 C -1.458143 -4.158761 -0.305328 0
M  V30 24 C -2.210695 -4.974881 0.676767 0
M  V30 25 N -1.699331 -6.317722 0.873458 0
M  V30 26 C -1.717194 -7.092467 -0.351614 0
M  V30 27 C -0.286487 -6.271678 1.277527 0
M  V30 28 C -3.703751 -5.011998 0.417724 0
M  V30 29 C -4.268247 -3.596567 0.545516 0
M  V30 30 N -1.919441 -0.720084 0.558128 0
M  V30 31 N -1.555647 0.429796 1.094139 0
M  V30 32 N 0.031319 2.333616 1.149787 0
M  V30 33 C 1.130193 2.865367 0.611724 0
M  V30 34 H 4.246609 1.122832 0.220963 0
M  V30 35 H 4.380892 -0.678486 0.106127 0
M  V30 36 H 4.492740 0.325508 -1.410166 0
M  V30 37 H 2.361750 -0.741654 -1.305476 0
M  V30 38 H 1.086154 -0.794169 0.358213 0
M  V30 39 H 2.202615 1.456672 -2.220090 0
M  V30 40 H 0.778942 1.001049 -1.290319 0
M  V30 41 H 4.193653 2.773361 -2.049203 0
M  V30 42 H 5.202812 6.477588 -0.156779 0
M  V30 43 H 3.306088 6.312643 1.325896 0
M  V30 44 H 1.181958 5.607383 2.602918 0
M  V30 45 H -2.375122 2.662207 3.435239 0
M  V30 46 H -3.983313 0.674830 3.343656 0
M  V30 47 H -4.598401 -1.506344 2.260875 0
M  V30 48 H -1.743182 -2.256552 -1.267060 0
M  V30 49 H -3.043836 -3.480128 -1.654196 0
M  V30 50 H -0.624210 -3.625979 0.240432 0
M  V30 51 H -0.936083 -4.737057 -1.089087 0
M  V30 52 H -2.118516 -4.485981 1.691127 0
M  V30 53 H -2.681257 -7.086499 -0.856732 0
M  V30 54 H -1.546225 -8.163823 -0.038859 0
M  V30 55 H -0.853152 -6.769920 -0.965449 0
M  V30 56 H 0.391648 -6.184744 0.396738 0
M  V30 57 H -0.146948 -5.297776 1.825532 0
M  V30 58 H 0.011603 -7.106436 1.908118 0
M  V30 59 H -3.957087 -5.470179 -0.541454 0
M  V30 60 H -4.181305 -5.612678 1.217192 0
M  V30 61 H -5.122205 -3.501513 -0.122846 0
M  V30 62 H -4.558440 -3.424917 1.581206 0
M  V30 END ATOM
M  V30 BEGIN BOND
M  V30 1 1 1 2
M  V30 2 1 2 3
M  V30 3 1 2 4
M  V30 4 1 4 5
M  V30 5 1 5 6
M  V30 6 2 6 7
M  V30 7 1 7 8
M  V30 8 2 8 9
M  V30 9 1 9 10
M  V30 10 2 10 11
M  V30 11 1 11 12
M  V30 12 2 12 13
M  V30 13 1 13 14
M  V30 14 2 14 15
M  V30 15 1 15 16
M  V30 16 1 16 17
M  V30 17 2 17 18
M  V30 18 1 18 19
M  V30 19 2 19 20
M  V30 20 1 20 21
M  V30 21 1 21 22
M  V30 22 1 22 23
M  V30 23 1 23 24
M  V30 24 1 24 25
M  V30 25 1 25 26
M  V30 26 1 25 27
M  V30 27 1 24 28
M  V30 28 1 28 29
M  V30 29 1 20 30
M  V30 30 2 30 31
M  V30 31 1 15 32
M  V30 32 2 32 33
M  V30 33 1 33 5
M  V30 34 1 11 6
M  V30 35 1 33 12
M  V30 36 1 31 17
M  V30 37 1 29 21
M  V30 38 1 1 34
M  V30 39 1 1 35
M  V30 40 1 1 36
M  V30 41 1 2 37 CFG=3
M  V30 42 1 3 38
M  V30 43 1 4 39
M  V30 44 1 4 40
M  V30 45 1 7 41
M  V30 46 1 9 42
M  V30 47 1 10 43
M  V30 48 1 13 44
M  V30 49 1 16 45
M  V30 50 1 18 46
M  V30 51 1 19 47
M  V30 52 1 22 48
M  V30 53 1 22 49
M  V30 54 1 23 50
M  V30 55 1 23 51
M  V30 56 1 24 52
M  V30 57 1 26 53
M  V30 58 1 26 54
M  V30 59 1 26 55
M  V30 60 1 27 56
M  V30 61 1 27 57
M  V30 62 1 27 58
M  V30 63 1 28 59
M  V30 64 1 28 60
M  V30 65 1 29 61
M  V30 66 1 29 62
M  V30 END BOND
M  V30 END CTAB
M  END
>  <Dataset>  (191) 
ChEMBL_Kinases

>  <Ligand_Instance>  (191) 
nan

>  <PDB_ID>  (191) 
nan

>  <Standardized_SMILES>  (191) 
C[C@@H](O)Cn1c2cnccc2c2cnc(Nc3ccc(N4CCC(N(C)C)CC4)nn3)nc21

>  <Name>  (191) 
nan

>  <Pocket>  (191) 
nan

>  <ATP_Site>  (191) 
nan

>  <Peripheral>  (191) 
nan

>  <Num_H_Atoms_ProtBoundConf>  (191) 
nan

>  <Num_Resolved_Atoms>  (191) 
nan

>  <Num_Not_Resolved_Atoms>  (191) 
nan

$$$$
CHEMBL3641973
     RDKit          3D

  0  0  0  0  0  0  0  0  0  0999 V3000
M  V30 BEGIN CTAB
M  V30 COUNTS 53 57 0 0 0
M  V30 BEGIN ATOM
M  V30 1 C 1.830482 -1.707790 1.546320 0
M  V30 2 C 2.714593 -2.097014 0.356604 0 CFG=1
M  V30 3 O 2.279699 -3.352237 -0.047155 0
M  V30 4 C 2.527283 -1.070951 -0.766168 0
M  V30 5 N 2.899953 0.250696 -0.311638 0
M  V30 6 C 4.158865 0.712288 -0.436817 0
M  V30 7 C 5.352309 0.236675 -0.934510 0
M  V30 8 N 6.498493 0.941573 -0.930315 0
M  V30 9 C 6.555088 2.200901 -0.421849 0
M  V30 10 C 5.394416 2.745303 0.096145 0
M  V30 11 C 4.229327 2.006450 0.082611 0
M  V30 12 C 2.953112 2.289121 0.521042 0
M  V30 13 C 2.368483 3.390225 1.125268 0
M  V30 14 N 1.063710 3.403427 1.459099 0
M  V30 15 C 0.296419 2.323243 1.203764 0
M  V30 16 N -1.094090 2.324550 1.554232 0
M  V30 17 C -1.939581 1.224025 1.308587 0
M  V30 18 C -3.273128 1.143432 1.610687 0
M  V30 19 C -4.000033 -0.002869 1.315779 0
M  V30 20 C -3.367410 -1.050303 0.719864 0
M  V30 21 N -4.041640 -2.238420 0.394448 0
M  V30 22 C -5.432564 -2.545291 0.618852 0
M  V30 23 C -5.652595 -3.945004 1.121949 0
M  V30 24 N -4.473639 -4.614258 1.580327 0
M  V30 25 C -3.316515 -4.473459 0.768315 0
M  V30 26 C -3.373866 -3.357255 -0.242264 0
M  V30 27 N -2.074652 -0.950537 0.436031 0
M  V30 28 N -1.402464 0.138813 0.720969 0
M  V30 29 N 0.840103 1.224137 0.610697 0
M  V30 30 C 2.141968 1.197541 0.272052 0
M  V30 31 H 0.818334 -1.526631 1.125395 0
M  V30 32 H 2.252009 -0.876175 2.116612 0
M  V30 33 H 1.705941 -2.566423 2.236513 0
M  V30 34 H 3.785826 -2.116891 0.616816 0
M  V30 35 H 1.328139 -3.241523 -0.352585 0
M  V30 36 H 1.450509 -1.103596 -1.073749 0
M  V30 37 H 3.118816 -1.376878 -1.629147 0
M  V30 38 H 5.357882 -0.761376 -1.350142 0
M  V30 39 H 7.468373 2.778559 -0.411897 0
M  V30 40 H 5.369102 3.750480 0.519725 0
M  V30 41 H 2.994943 4.262002 1.329490 0
M  V30 42 H -1.500340 3.151573 2.001030 0
M  V30 43 H -3.729908 2.000226 2.082898 0
M  V30 44 H -5.041333 -0.012891 1.573672 0
M  V30 45 H -5.907806 -2.486300 -0.404133 0
M  V30 46 H -5.978156 -1.785879 1.210434 0
M  V30 47 H -6.328758 -3.867708 2.017775 0
M  V30 48 H -6.151374 -4.580960 0.388977 0
M  V30 49 H -4.302619 -4.555970 2.604762 0
M  V30 50 H -3.051597 -5.422037 0.286820 0
M  V30 51 H -2.459012 -4.238767 1.464728 0
M  V30 52 H -3.944792 -3.687805 -1.113475 0
M  V30 53 H -2.330239 -3.096027 -0.505844 0
M  V30 END ATOM
M  V30 BEGIN BOND
M  V30 1 1 1 2
M  V30 2 1 2 3
M  V30 3 1 2 4
M  V30 4 1 4 5
M  V30 5 1 5 6
M  V30 6 2 6 7
M  V30 7 1 7 8
M  V30 8 2 8 9
M  V30 9 1 9 10
M  V30 10 2 10 11
M  V30 11 1 11 12
M  V30 12 2 12 13
M  V30 13 1 13 14
M  V30 14 2 14 15
M  V30 15 1 15 16
M  V30 16 1 16 17
M  V30 17 2 17 18
M  V30 18 1 18 19
M  V30 19 2 19 20
M  V30 20 1 20 21
M  V30 21 1 21 22
M  V30 22 1 22 23
M  V30 23 1 23 24
M  V30 24 1 24 25
M  V30 25 1 25 26
M  V30 26 1 20 27
M  V30 27 2 27 28
M  V30 28 1 15 29
M  V30 29 2 29 30
M  V30 30 1 30 5
M  V30 31 1 11 6
M  V30 32 1 30 12
M  V30 33 1 28 17
M  V30 34 1 26 21
M  V30 35 1 1 31
M  V30 36 1 1 32
M  V30 37 1 1 33
M  V30 38 1 2 34 CFG=1
M  V30 39 1 3 35
M  V30 40 1 4 36
M  V30 41 1 4 37
M  V30 42 1 7 38
M  V30 43 1 9 39
M  V30 44 1 10 40
M  V30 45 1 13 41
M  V30 46 1 16 42
M  V30 47 1 18 43
M  V30 48 1 19 44
M  V30 49 1 22 45
M  V30 50 1 22 46
M  V30 51 1 23 47
M  V30 52 1 23 48
M  V30 53 1 24 49
M  V30 54 1 25 50
M  V30 55 1 25 51
M  V30 56 1 26 52
M  V30 57 1 26 53
M  V30 END BOND
M  V30 END CTAB
M  END
>  <Dataset>  (192) 
ChEMBL_Kinases

>  <Ligand_Instance>  (192) 
nan

>  <PDB_ID>  (192) 
nan

>  <Standardized_SMILES>  (192) 
C[C@@H](O)Cn1c2cnccc2c2cnc(Nc3ccc(N4CCNCC4)nn3)nc21

>  <Name>  (192) 
nan

>  <Pocket>  (192) 
nan

>  <ATP_Site>  (192) 
nan

>  <Peripheral>  (192) 
nan

>  <Num_H_Atoms_ProtBoundConf>  (192) 
nan

>  <Num_Resolved_Atoms>  (192) 
nan

>  <Num_Not_Resolved_Atoms>  (192) 
nan

$$$$
CHEMBL3640440
     RDKit          3D

  0  0  0  0  0  0  0  0  0  0999 V3000
M  V30 BEGIN CTAB
M  V30 COUNTS 68 72 0 0 0
M  V30 BEGIN ATOM
M  V30 1 C -0.999243 0.043403 -2.072860 0
M  V30 2 N -0.721733 -0.995193 -3.078258 0
M  V30 3 C -1.950581 -1.735953 -3.184965 0
M  V30 4 C -1.949008 -2.901642 -4.114245 0
M  V30 5 C -1.693521 -2.608841 -5.516861 0
M  V30 6 C -0.582699 -2.605398 -6.319324 0
M  V30 7 C -0.589645 -2.282751 -7.644771 0
M  V30 8 C -1.752552 -1.931327 -8.268240 0
M  V30 9 C -2.913585 -1.911310 -7.526987 0
M  V30 10 C -2.878897 -2.244947 -6.175914 0
M  V30 11 C 0.641002 -0.873122 -3.538053 0
M  V30 12 N 1.053634 -0.393918 -4.713977 0
M  V30 13 C 2.322065 -0.276959 -5.068666 0
M  V30 14 N 3.224561 -0.670936 -4.173683 0
M  V30 15 C 2.928878 -1.162923 -2.973982 0
M  V30 16 C 4.000400 -1.518735 -2.186782 0
M  V30 17 C 3.718959 -2.037751 -0.930612 0
M  V30 18 C 2.403330 -2.171568 -0.534211 0
M  V30 19 C 2.133001 -2.711199 0.767649 0
M  V30 20 C 1.918187 -3.163844 1.864796 0
M  V30 21 C 1.677689 -3.721459 3.196012 0
M  V30 22 N 1.155164 -2.744310 4.131052 0
M  V30 23 C -0.081455 -2.191016 3.709412 0
M  V30 24 O -0.388306 -2.729894 2.590800 0
M  V30 25 C -0.891018 -1.191102 4.389636 0
M  V30 26 C -2.063431 -0.861517 3.693681 0
M  V30 27 N -2.914340 0.047088 4.193569 0
M  V30 28 C -2.707989 0.679490 5.352461 0
M  V30 29 N -1.589223 0.374123 6.030315 0
M  V30 30 C -1.304091 1.008732 7.275016 0
M  V30 31 C -0.530045 2.246872 7.205960 0
M  V30 32 C -1.200422 3.468852 7.079412 0
M  V30 33 C -0.499739 4.661990 7.011773 0
M  V30 34 C 0.878974 4.682484 7.067009 0
M  V30 35 F 1.564936 5.857626 7.000309 0
M  V30 36 C 1.586246 3.490358 7.192657 0
M  V30 37 F 2.954035 3.450830 7.252429 0
M  V30 38 C 0.847170 2.329276 7.256112 0
M  V30 39 C -0.721812 -0.514100 5.577783 0
M  V30 40 O 0.338722 -0.841098 6.163814 0
M  V30 41 C 1.378674 -1.796445 -1.370160 0
M  V30 42 C 1.594974 -1.275818 -2.625579 0
M  V30 43 H -0.129611 0.683488 -1.896130 0
M  V30 44 H -1.447927 -0.369225 -1.166653 0
M  V30 45 H -1.790833 0.708287 -2.520267 0
M  V30 46 H -2.763341 -1.015412 -3.487269 0
M  V30 47 H -2.283274 -2.109153 -2.168234 0
M  V30 48 H -1.166095 -3.628066 -3.712625 0
M  V30 49 H -2.906872 -3.464280 -3.961998 0
M  V30 50 H 0.294862 -2.900959 -5.724534 0
M  V30 51 H 0.410215 -2.347048 -8.090131 0
M  V30 52 H -1.690988 -1.687580 -9.317853 0
M  V30 53 H -3.814479 -1.629463 -8.049937 0
M  V30 54 H -3.879980 -2.181962 -5.724260 0
M  V30 55 H 2.477295 0.129185 -6.054028 0
M  V30 56 H 5.017688 -1.402376 -2.524215 0
M  V30 57 H 4.528070 -2.335422 -0.266558 0
M  V30 58 H 2.686711 -4.046474 3.577068 0
M  V30 59 H 1.060288 -4.639289 3.132221 0
M  V30 60 H 1.554104 -2.409643 5.035337 0
M  V30 61 H -2.350213 -1.300467 2.743443 0
M  V30 62 H -3.416378 1.405648 5.723331 0
M  V30 63 H -0.735733 0.311348 7.953706 0
M  V30 64 H -2.286232 1.150383 7.809946 0
M  V30 65 H -2.276968 3.527757 7.030171 0
M  V30 66 H -1.046975 5.596197 6.913719 0
M  V30 67 H 1.388192 1.404229 7.353208 0
M  V30 68 H 0.353984 -1.906618 -1.056219 0
M  V30 END ATOM
M  V30 BEGIN BOND
M  V30 1 1 1 2
M  V30 2 1 2 3
M  V30 3 1 3 4
M  V30 4 1 4 5
M  V30 5 2 5 6
M  V30 6 1 6 7
M  V30 7 2 7 8
M  V30 8 1 8 9
M  V30 9 2 9 10
M  V30 10 1 2 11
M  V30 11 2 11 12
M  V30 12 1 12 13
M  V30 13 2 13 14
M  V30 14 1 14 15
M  V30 15 2 15 16
M  V30 16 1 16 17
M  V30 17 2 17 18
M  V30 18 1 18 19
M  V30 19 3 19 20
M  V30 20 1 20 21
M  V30 21 1 21 22
M  V30 22 1 22 23
M  V30 23 2 23 24
M  V30 24 1 23 25
M  V30 25 2 25 26
M  V30 26 1 26 27
M  V30 27 2 27 28
M  V30 28 1 28 29
M  V30 29 1 29 30
M  V30 30 1 30 31
M  V30 31 2 31 32
M  V30 32 1 32 33
M  V30 33 2 33 34
M  V30 34 1 34 35
M  V30 35 1 34 36
M  V30 36 1 36 37
M  V30 37 2 36 38
M  V30 38 1 29 39
M  V30 39 2 39 40
M  V30 40 1 18 41
M  V30 41 2 41 42
M  V30 42 1 10 5
M  V30 43 1 42 11
M  V30 44 1 42 15
M  V30 45 1 39 25
M  V30 46 1 38 31
M  V30 47 1 1 43
M  V30 48 1 1 44
M  V30 49 1 1 45
M  V30 50 1 3 46
M  V30 51 1 3 47
M  V30 52 1 4 48
M  V30 53 1 4 49
M  V30 54 1 6 50
M  V30 55 1 7 51
M  V30 56 1 8 52
M  V30 57 1 9 53
M  V30 58 1 10 54
M  V30 59 1 13 55
M  V30 60 1 16 56
M  V30 61 1 17 57
M  V30 62 1 21 58
M  V30 63 1 21 59
M  V30 64 1 22 60
M  V30 65 1 26 61
M  V30 66 1 28 62
M  V30 67 1 30 63
M  V30 68 1 30 64
M  V30 69 1 32 65
M  V30 70 1 33 66
M  V30 71 1 38 67
M  V30 72 1 41 68
M  V30 END BOND
M  V30 END CTAB
M  END
>  <Dataset>  (193) 
ChEMBL_Kinases

>  <Ligand_Instance>  (193) 
nan

>  <PDB_ID>  (193) 
nan

>  <Standardized_SMILES>  (193) 
CN(CCc1ccccc1)c1ncnc2ccc(C#CCNC(=O)c3cncn(Cc4ccc(F)c(F)c4)c3=O)cc12

>  <Name>  (193) 
nan

>  <Pocket>  (193) 
nan

>  <ATP_Site>  (193) 
nan

>  <Peripheral>  (193) 
nan

>  <Num_H_Atoms_ProtBoundConf>  (193) 
nan

>  <Num_Resolved_Atoms>  (193) 
nan

>  <Num_Not_Resolved_Atoms>  (193) 
nan

$$$$
CHEMBL3641971
     RDKit          3D

  0  0  0  0  0  0  0  0  0  0999 V3000
M  V30 BEGIN CTAB
M  V30 COUNTS 59 63 0 0 0
M  V30 BEGIN ATOM
M  V30 1 C 2.550751 -0.499166 1.710839 0
M  V30 2 C 3.857984 0.038178 2.248084 0 CFG=2
M  V30 3 O 4.045482 -0.550907 3.512411 0
M  V30 4 C 3.798256 1.541840 2.419482 0
M  V30 5 N 3.536013 2.177656 1.165884 0
M  V30 6 C 4.446838 2.602320 0.267039 0
M  V30 7 C 5.815241 2.531706 0.329229 0
M  V30 8 N 6.457151 3.051263 -0.743608 0
M  V30 9 C 5.838719 3.593079 -1.788420 0
M  V30 10 C 4.460682 3.670303 -1.863186 0
M  V30 11 C 3.744666 3.151065 -0.786744 0
M  V30 12 C 2.396596 3.055871 -0.519735 0
M  V30 13 C 1.288201 3.441989 -1.225703 0
M  V30 14 N 0.085693 3.209422 -0.693080 0
M  V30 15 C -0.071335 2.609058 0.512587 0
M  V30 16 N -1.286495 2.307502 1.185296 0
M  V30 17 C -1.859750 1.039416 0.891143 0
M  V30 18 C -1.291492 0.158625 0.017375 0
M  V30 19 C -1.818476 -1.077795 -0.291679 0
M  V30 20 C -2.996212 -1.445251 0.323679 0
M  V30 21 N -3.711777 -2.670251 0.149335 0
M  V30 22 C -4.942749 -2.991970 0.848712 0
M  V30 23 C -4.648402 -4.163477 1.742385 0
M  V30 24 N -4.284633 -5.303565 0.981395 0
M  V30 25 C -3.321841 -5.103672 -0.058506 0
M  V30 26 C -3.585131 -6.185230 -1.114615 0
M  V30 27 C -1.880828 -5.316874 0.393424 0
M  V30 28 C -3.379458 -3.765435 -0.702405 0
M  V30 29 N -3.546286 -0.569001 1.182285 0
M  V30 30 N -3.002818 0.605693 1.446296 0
M  V30 31 N 1.043285 2.245732 1.172843 0
M  V30 32 C 2.285975 2.440471 0.713392 0
M  V30 33 H 2.360265 -0.186247 0.663909 0
M  V30 34 H 2.613509 -1.623999 1.765267 0
M  V30 35 H 1.735531 -0.171449 2.403292 0
M  V30 36 H 4.667200 -0.273312 1.561190 0
M  V30 37 H 3.814586 -1.518762 3.497276 0
M  V30 38 H 4.744086 1.933748 2.818957 0
M  V30 39 H 2.970917 1.730098 3.162263 0
M  V30 40 H 6.304654 2.087488 1.186940 0
M  V30 41 H 6.441795 3.981093 -2.596703 0
M  V30 42 H 3.925633 4.102672 -2.694593 0
M  V30 43 H 1.339628 3.923772 -2.188864 0
M  V30 44 H -1.761106 2.939298 1.855304 0
M  V30 45 H -0.352902 0.434530 -0.482196 0
M  V30 46 H -1.400682 -1.801168 -0.975320 0
M  V30 47 H -5.269959 -2.139499 1.490884 0
M  V30 48 H -5.727189 -3.182732 0.104271 0
M  V30 49 H -3.904353 -3.838588 2.492283 0
M  V30 50 H -5.571400 -4.416471 2.312910 0
M  V30 51 H -4.147292 -6.171853 1.500369 0
M  V30 52 H -3.027249 -7.089477 -0.792481 0
M  V30 53 H -4.668751 -6.416413 -1.098551 0
M  V30 54 H -3.235400 -5.808600 -2.095731 0
M  V30 55 H -1.711892 -4.725672 1.313551 0
M  V30 56 H -1.240892 -4.859779 -0.390124 0
M  V30 57 H -1.631502 -6.385943 0.506522 0
M  V30 58 H -2.437648 -3.533565 -1.243730 0
M  V30 59 H -4.184568 -3.832705 -1.492784 0
M  V30 END ATOM
M  V30 BEGIN BOND
M  V30 1 1 1 2
M  V30 2 1 2 3
M  V30 3 1 2 4
M  V30 4 1 4 5
M  V30 5 1 5 6
M  V30 6 2 6 7
M  V30 7 1 7 8
M  V30 8 2 8 9
M  V30 9 1 9 10
M  V30 10 2 10 11
M  V30 11 1 11 12
M  V30 12 2 12 13
M  V30 13 1 13 14
M  V30 14 2 14 15
M  V30 15 1 15 16
M  V30 16 1 16 17
M  V30 17 2 17 18
M  V30 18 1 18 19
M  V30 19 2 19 20
M  V30 20 1 20 21
M  V30 21 1 21 22
M  V30 22 1 22 23
M  V30 23 1 23 24
M  V30 24 1 24 25
M  V30 25 1 25 26
M  V30 26 1 25 27
M  V30 27 1 25 28
M  V30 28 1 20 29
M  V30 29 2 29 30
M  V30 30 1 15 31
M  V30 31 2 31 32
M  V30 32 1 32 5
M  V30 33 1 11 6
M  V30 34 1 32 12
M  V30 35 1 30 17
M  V30 36 1 28 21
M  V30 37 1 1 33
M  V30 38 1 1 34
M  V30 39 1 1 35
M  V30 40 1 2 36 CFG=3
M  V30 41 1 3 37
M  V30 42 1 4 38
M  V30 43 1 4 39
M  V30 44 1 7 40
M  V30 45 1 9 41
M  V30 46 1 10 42
M  V30 47 1 13 43
M  V30 48 1 16 44
M  V30 49 1 18 45
M  V30 50 1 19 46
M  V30 51 1 22 47
M  V30 52 1 22 48
M  V30 53 1 23 49
M  V30 54 1 23 50
M  V30 55 1 24 51
M  V30 56 1 26 52
M  V30 57 1 26 53
M  V30 58 1 26 54
M  V30 59 1 27 55
M  V30 60 1 27 56
M  V30 61 1 27 57
M  V30 62 1 28 58
M  V30 63 1 28 59
M  V30 END BOND
M  V30 END CTAB
M  END
>  <Dataset>  (194) 
ChEMBL_Kinases

>  <Ligand_Instance>  (194) 
nan

>  <PDB_ID>  (194) 
nan

>  <Standardized_SMILES>  (194) 
C[C@H](O)Cn1c2cnccc2c2cnc(Nc3ccc(N4CCNC(C)(C)C4)nn3)nc21

>  <Name>  (194) 
nan

>  <Pocket>  (194) 
nan

>  <ATP_Site>  (194) 
nan

>  <Peripheral>  (194) 
nan

>  <Num_H_Atoms_ProtBoundConf>  (194) 
nan

>  <Num_Resolved_Atoms>  (194) 
nan

>  <Num_Not_Resolved_Atoms>  (194) 
nan

$$$$
CHEMBL3641970
     RDKit          3D

  0  0  0  0  0  0  0  0  0  0999 V3000
M  V30 BEGIN CTAB
M  V30 COUNTS 56 60 0 0 0
M  V30 BEGIN ATOM
M  V30 1 C 4.346915 -1.109105 3.590936 0
M  V30 2 C 2.915891 -1.284895 3.134004 0 CFG=2
M  V30 3 O 2.405335 -2.457734 3.693172 0
M  V30 4 C 2.812553 -1.368087 1.637727 0
M  V30 5 N 3.315021 -0.161978 1.015854 0
M  V30 6 C 4.540806 0.176813 0.569537 0
M  V30 7 C 5.724853 -0.499701 0.539848 0
M  V30 8 N 6.823647 0.055610 0.028324 0
M  V30 9 C 6.793732 1.318217 -0.480653 0
M  V30 10 C 5.613414 2.057644 -0.478275 0
M  V30 11 C 4.490872 1.467201 0.054183 0
M  V30 12 C 3.201498 1.901256 0.201561 0
M  V30 13 C 2.512757 3.070714 -0.101906 0
M  V30 14 N 1.204732 3.194217 0.174949 0
M  V30 15 C 0.469280 2.200166 0.763261 0
M  V30 16 N -0.914221 2.272118 1.081619 0
M  V30 17 C -1.859316 1.205907 0.837482 0
M  V30 18 C -1.471868 0.004013 0.242630 0
M  V30 19 C -2.417843 -0.971056 0.015111 0
M  V30 20 C -3.736430 -0.781459 0.364115 0
M  V30 21 N -4.696522 -1.802703 0.126659 0
M  V30 22 C -6.151608 -1.730406 0.045497 0
M  V30 23 C -6.533967 -2.087314 -1.372180 0
M  V30 24 N -5.418965 -2.549732 -2.155061 0
M  V30 25 C -4.671636 -3.597135 -1.485177 0 CFG=1
M  V30 26 C -3.395842 -3.842963 -2.255205 0
M  V30 27 C -4.304187 -3.204510 -0.077498 0
M  V30 28 N -4.071846 0.405925 0.943711 0
M  V30 29 N -3.143442 1.345094 1.158878 0
M  V30 30 N 1.176332 1.104268 1.033568 0
M  V30 31 C 2.470047 0.887515 0.799175 0
M  V30 32 H 4.371138 -1.128542 4.705515 0
M  V30 33 H 4.793437 -0.167433 3.228583 0
M  V30 34 H 4.976944 -1.947531 3.249205 0
M  V30 35 H 2.329518 -0.423558 3.526597 0
M  V30 36 H 1.591507 -2.255310 4.200256 0
M  V30 37 H 3.395214 -2.259270 1.265416 0
M  V30 38 H 1.765077 -1.574062 1.337225 0
M  V30 39 H 5.719785 -1.498964 0.951449 0
M  V30 40 H 7.696384 1.778841 -0.897693 0
M  V30 41 H 5.589119 3.046155 -0.878287 0
M  V30 42 H 3.035199 3.873708 -0.561784 0
M  V30 43 H -1.287545 3.148483 1.527399 0
M  V30 44 H -0.464822 -0.162945 -0.039887 0
M  V30 45 H -2.046261 -1.895142 -0.460297 0
M  V30 46 H -6.563717 -0.748967 0.324533 0
M  V30 47 H -6.583486 -2.528638 0.711461 0
M  V30 48 H -6.925771 -1.167635 -1.862859 0
M  V30 49 H -7.394791 -2.804846 -1.376045 0
M  V30 50 H -4.812683 -1.747659 -2.422237 0
M  V30 51 H -5.244059 -4.553211 -1.481186 0
M  V30 52 H -3.471443 -4.774691 -2.866837 0
M  V30 53 H -3.130254 -3.029945 -2.957594 0
M  V30 54 H -2.550573 -3.982780 -1.537352 0
M  V30 55 H -4.926526 -3.840899 0.609546 0
M  V30 56 H -3.267881 -3.378923 0.181874 0
M  V30 END ATOM
M  V30 BEGIN BOND
M  V30 1 1 1 2
M  V30 2 1 2 3
M  V30 3 1 2 4
M  V30 4 1 4 5
M  V30 5 1 5 6
M  V30 6 2 6 7
M  V30 7 1 7 8
M  V30 8 2 8 9
M  V30 9 1 9 10
M  V30 10 2 10 11
M  V30 11 1 11 12
M  V30 12 2 12 13
M  V30 13 1 13 14
M  V30 14 2 14 15
M  V30 15 1 15 16
M  V30 16 1 16 17
M  V30 17 2 17 18
M  V30 18 1 18 19
M  V30 19 2 19 20
M  V30 20 1 20 21
M  V30 21 1 21 22
M  V30 22 1 22 23
M  V30 23 1 23 24
M  V30 24 1 24 25
M  V30 25 1 25 26
M  V30 26 1 25 27
M  V30 27 1 20 28
M  V30 28 2 28 29
M  V30 29 1 15 30
M  V30 30 2 30 31
M  V30 31 1 31 5
M  V30 32 1 11 6
M  V30 33 1 31 12
M  V30 34 1 29 17
M  V30 35 1 27 21
M  V30 36 1 1 32
M  V30 37 1 1 33
M  V30 38 1 1 34
M  V30 39 1 2 35 CFG=1
M  V30 40 1 3 36
M  V30 41 1 4 37
M  V30 42 1 4 38
M  V30 43 1 7 39
M  V30 44 1 9 40
M  V30 45 1 10 41
M  V30 46 1 13 42
M  V30 47 1 16 43
M  V30 48 1 18 44
M  V30 49 1 19 45
M  V30 50 1 22 46
M  V30 51 1 22 47
M  V30 52 1 23 48
M  V30 53 1 23 49
M  V30 54 1 24 50
M  V30 55 1 25 51 CFG=1
M  V30 56 1 26 52
M  V30 57 1 26 53
M  V30 58 1 26 54
M  V30 59 1 27 55
M  V30 60 1 27 56
M  V30 END BOND
M  V30 END CTAB
M  END
>  <Dataset>  (195) 
ChEMBL_Kinases

>  <Ligand_Instance>  (195) 
nan

>  <PDB_ID>  (195) 
nan

>  <Standardized_SMILES>  (195) 
C[C@H](O)Cn1c2cnccc2c2cnc(Nc3ccc(N4CCN[C@@H](C)C4)nn3)nc21

>  <Name>  (195) 
nan

>  <Pocket>  (195) 
nan

>  <ATP_Site>  (195) 
nan

>  <Peripheral>  (195) 
nan

>  <Num_H_Atoms_ProtBoundConf>  (195) 
nan

>  <Num_Resolved_Atoms>  (195) 
nan

>  <Num_Not_Resolved_Atoms>  (195) 
nan

$$$$
CHEMBL3641969
     RDKit          3D

  0  0  0  0  0  0  0  0  0  0999 V3000
M  V30 BEGIN CTAB
M  V30 COUNTS 59 63 0 0 0
M  V30 BEGIN ATOM
M  V30 1 C 3.160821 -0.676395 4.845809 0
M  V30 2 N 2.960939 -1.780748 3.954439 0
M  V30 3 C 4.050737 -2.703139 3.911874 0
M  V30 4 C 5.358831 -2.098213 3.451935 0
M  V30 5 C 5.343722 -1.808532 1.949200 0
M  V30 6 N 3.999841 -1.838008 1.483773 0
M  V30 7 C 3.237313 -0.782582 0.947124 0
M  V30 8 C 3.774407 0.440229 0.639430 0
M  V30 9 C 2.948805 1.428175 0.117712 0
M  V30 10 C 1.598573 1.217220 -0.101739 0
M  V30 11 N 0.700538 2.177415 -0.638379 0
M  V30 12 C -0.695248 1.881638 -0.805330 0
M  V30 13 N -1.390160 2.832511 -0.116576 0
M  V30 14 C -2.746132 2.823306 -0.076996 0
M  V30 15 C -3.401877 1.825420 -0.752720 0
M  V30 16 C -4.722537 1.499249 -0.933895 0
M  V30 17 C -5.854006 2.143045 -0.443746 0
M  V30 18 C -7.077119 1.564405 -0.803987 0
M  V30 19 N -7.150839 0.463852 -1.569679 0
M  V30 20 C -6.050375 -0.178149 -2.057527 0
M  V30 21 C -4.823780 0.361939 -1.724493 0
M  V30 22 N -3.537167 0.021895 -2.007214 0
M  V30 23 C -3.255531 -1.139305 -2.823611 0
M  V30 24 C -3.098104 -2.391974 -1.966659 0 CFG=2
M  V30 25 C -2.805814 -3.592478 -2.839469 0
M  V30 26 O -4.216558 -2.635862 -1.201617 0
M  V30 27 C -2.674576 0.880909 -1.437962 0
M  V30 28 N -1.333397 0.887632 -1.479021 0
M  V30 29 N 1.146619 -0.008652 0.225544 0
M  V30 30 N 1.928568 -0.957595 0.724065 0
M  V30 31 C 3.431172 -3.167367 1.609199 0
M  V30 32 C 3.682224 -3.802891 2.946578 0
M  V30 33 H 2.354112 -0.563423 5.611415 0
M  V30 34 H 3.153039 0.254886 4.250034 0
M  V30 35 H 4.148451 -0.712733 5.360726 0
M  V30 36 H 2.114207 -2.287680 4.273825 0
M  V30 37 H 4.204823 -3.159624 4.912849 0
M  V30 38 H 6.146462 -2.876660 3.638762 0
M  V30 39 H 5.665189 -1.209441 4.032177 0
M  V30 40 H 5.917736 -2.604486 1.407577 0
M  V30 41 H 5.897042 -0.864989 1.788972 0
M  V30 42 H 4.819729 0.651370 0.793692 0
M  V30 43 H 3.347426 2.400626 -0.132081 0
M  V30 44 H 1.098216 3.114015 -0.911706 0
M  V30 45 H -3.360818 3.533092 0.440937 0
M  V30 46 H -5.875251 3.027255 0.175305 0
M  V30 47 H -8.026543 1.988746 -0.473854 0
M  V30 48 H -6.103734 -1.060736 -2.672375 0
M  V30 49 H -4.054375 -1.333027 -3.565594 0
M  V30 50 H -2.265865 -0.980823 -3.297853 0
M  V30 51 H -2.234828 -2.256776 -1.252136 0
M  V30 52 H -2.944519 -3.387050 -3.918108 0
M  V30 53 H -3.452467 -4.467350 -2.532598 0
M  V30 54 H -1.765491 -3.973230 -2.695859 0
M  V30 55 H -4.052472 -3.380547 -0.573207 0
M  V30 56 H 3.894053 -3.772313 0.793606 0
M  V30 57 H 2.334905 -3.107053 1.393387 0
M  V30 58 H 4.485077 -4.563428 2.841748 0
M  V30 59 H 2.734875 -4.310508 3.293847 0
M  V30 END ATOM
M  V30 BEGIN BOND
M  V30 1 1 1 2
M  V30 2 1 2 3
M  V30 3 1 3 4
M  V30 4 1 4 5
M  V30 5 1 5 6
M  V30 6 1 6 7
M  V30 7 2 7 8
M  V30 8 1 8 9
M  V30 9 2 9 10
M  V30 10 1 10 11
M  V30 11 1 11 12
M  V30 12 2 12 13
M  V30 13 1 13 14
M  V30 14 2 14 15
M  V30 15 1 15 16
M  V30 16 2 16 17
M  V30 17 1 17 18
M  V30 18 2 18 19
M  V30 19 1 19 20
M  V30 20 2 20 21
M  V30 21 1 21 22
M  V30 22 1 22 23
M  V30 23 1 23 24
M  V30 24 1 24 25
M  V30 25 1 24 26
M  V30 26 1 22 27
M  V30 27 2 27 28
M  V30 28 1 10 29
M  V30 29 2 29 30
M  V30 30 1 6 31
M  V30 31 1 31 32
M  V30 32 1 32 3
M  V30 33 1 30 7
M  V30 34 1 28 12
M  V30 35 1 27 15
M  V30 36 1 21 16
M  V30 37 1 1 33
M  V30 38 1 1 34
M  V30 39 1 1 35
M  V30 40 1 2 36
M  V30 41 1 3 37
M  V30 42 1 4 38
M  V30 43 1 4 39
M  V30 44 1 5 40
M  V30 45 1 5 41
M  V30 46 1 8 42
M  V30 47 1 9 43
M  V30 48 1 11 44
M  V30 49 1 14 45
M  V30 50 1 17 46
M  V30 51 1 18 47
M  V30 52 1 20 48
M  V30 53 1 23 49
M  V30 54 1 23 50
M  V30 55 1 24 51 CFG=1
M  V30 56 1 25 52
M  V30 57 1 25 53
M  V30 58 1 25 54
M  V30 59 1 26 55
M  V30 60 1 31 56
M  V30 61 1 31 57
M  V30 62 1 32 58
M  V30 63 1 32 59
M  V30 END BOND
M  V30 END CTAB
M  END
>  <Dataset>  (196) 
ChEMBL_Kinases

>  <Ligand_Instance>  (196) 
nan

>  <PDB_ID>  (196) 
nan

>  <Standardized_SMILES>  (196) 
CNC1CCN(c2ccc(Nc3ncc4c5ccncc5n(C[C@H](C)O)c4n3)nn2)CC1

>  <Name>  (196) 
nan

>  <Pocket>  (196) 
nan

>  <ATP_Site>  (196) 
nan

>  <Peripheral>  (196) 
nan

>  <Num_H_Atoms_ProtBoundConf>  (196) 
nan

>  <Num_Resolved_Atoms>  (196) 
nan

>  <Num_Not_Resolved_Atoms>  (196) 
nan

$$$$
CHEMBL3641968
     RDKit          3D

  0  0  0  0  0  0  0  0  0  0999 V3000
M  V30 BEGIN CTAB
M  V30 COUNTS 62 66 0 0 0
M  V30 BEGIN ATOM
M  V30 1 C 4.768173 -0.365826 -0.156200 0
M  V30 2 C 3.998346 -0.193179 1.127551 0 CFG=2
M  V30 3 O 2.632516 -0.378757 0.838981 0
M  V30 4 C 4.178908 1.168584 1.728991 0
M  V30 5 N 3.733551 2.224339 0.845397 0
M  V30 6 C 4.372354 2.935398 -0.098371 0
M  V30 7 C 5.684550 2.865247 -0.512149 0
M  V30 8 N 6.084381 3.697079 -1.488505 0
M  V30 9 C 5.223103 4.574604 -2.045601 0
M  V30 10 C 3.922510 4.657436 -1.648742 0
M  V30 11 C 3.486911 3.820644 -0.654154 0
M  V30 12 C 2.272740 3.663078 -0.049573 0
M  V30 13 C 1.021856 4.266489 -0.189282 0
M  V30 14 N -0.006881 3.870676 0.584792 0
M  V30 15 C 0.163952 2.880253 1.509149 0
M  V30 16 N -0.824301 2.363099 2.389260 0
M  V30 17 C -1.626484 1.254374 1.997708 0
M  V30 18 C -2.591755 0.741655 2.846800 0
M  V30 19 C -3.313931 -0.333137 2.371990 0
M  V30 20 C -3.120117 -0.898271 1.128856 0
M  V30 21 N -3.832543 -2.004762 0.591892 0
M  V30 22 C -3.551936 -2.519129 -0.728118 0
M  V30 23 C -2.910080 -3.892003 -0.514038 0
M  V30 24 C -4.049267 -4.776740 -0.055780 0
M  V30 25 N -3.744879 -6.156751 0.034625 0
M  V30 26 C -3.350473 -6.728173 -1.213154 0
M  V30 27 C -2.792182 -6.506884 1.051486 0
M  V30 28 C -4.696584 -4.237509 1.179407 0
M  V30 29 C -4.869777 -2.760408 1.194581 0
M  V30 30 N -2.161381 -0.335931 0.370840 0
M  V30 31 N -1.442599 0.696226 0.782882 0
M  V30 32 N 1.357168 2.305861 1.641061 0
M  V30 33 C 2.441832 2.647835 0.899761 0
M  V30 34 H 4.713617 -1.432531 -0.500714 0
M  V30 35 H 5.860373 -0.175185 0.013624 0
M  V30 36 H 4.436440 0.289445 -0.962862 0
M  V30 37 H 4.266332 -1.002706 1.826805 0
M  V30 38 H 2.111377 -0.507340 1.678456 0
M  V30 39 H 5.275091 1.269996 1.977244 0
M  V30 40 H 3.676303 1.209731 2.717994 0
M  V30 41 H 6.373334 2.163833 -0.065948 0
M  V30 42 H 5.606522 5.229834 -2.840011 0
M  V30 43 H 3.249099 5.363639 -2.104256 0
M  V30 44 H 0.890822 5.036552 -0.908495 0
M  V30 45 H -0.954988 2.805274 3.323751 0
M  V30 46 H -2.774783 1.152706 3.824642 0
M  V30 47 H -4.073698 -0.764355 2.995545 0
M  V30 48 H -2.880132 -1.855486 -1.302800 0
M  V30 49 H -4.475577 -2.682289 -1.317096 0
M  V30 50 H -2.427999 -4.262816 -1.415792 0
M  V30 51 H -2.183288 -3.718333 0.328103 0
M  V30 52 H -4.820255 -4.677308 -0.872402 0
M  V30 53 H -4.220189 -6.668573 -1.923287 0
M  V30 54 H -3.195366 -7.834617 -1.088983 0
M  V30 55 H -2.483590 -6.276500 -1.700940 0
M  V30 56 H -3.262311 -6.780053 2.036891 0
M  V30 57 H -2.009157 -5.733312 1.201524 0
M  V30 58 H -2.267047 -7.425260 0.717201 0
M  V30 59 H -4.149136 -4.527953 2.106231 0
M  V30 60 H -5.704678 -4.700148 1.260736 0
M  V30 61 H -5.007930 -2.400200 2.235521 0
M  V30 62 H -5.828048 -2.463704 0.680682 0
M  V30 END ATOM
M  V30 BEGIN BOND
M  V30 1 1 1 2
M  V30 2 1 2 3
M  V30 3 1 2 4
M  V30 4 1 4 5
M  V30 5 1 5 6
M  V30 6 2 6 7
M  V30 7 1 7 8
M  V30 8 2 8 9
M  V30 9 1 9 10
M  V30 10 2 10 11
M  V30 11 1 11 12
M  V30 12 2 12 13
M  V30 13 1 13 14
M  V30 14 2 14 15
M  V30 15 1 15 16
M  V30 16 1 16 17
M  V30 17 2 17 18
M  V30 18 1 18 19
M  V30 19 2 19 20
M  V30 20 1 20 21
M  V30 21 1 21 22
M  V30 22 1 22 23
M  V30 23 1 23 24
M  V30 24 1 24 25
M  V30 25 1 25 26
M  V30 26 1 25 27
M  V30 27 1 24 28
M  V30 28 1 28 29
M  V30 29 1 20 30
M  V30 30 2 30 31
M  V30 31 1 15 32
M  V30 32 2 32 33
M  V30 33 1 33 5
M  V30 34 1 11 6
M  V30 35 1 33 12
M  V30 36 1 31 17
M  V30 37 1 29 21
M  V30 38 1 1 34
M  V30 39 1 1 35
M  V30 40 1 1 36
M  V30 41 1 2 37 CFG=1
M  V30 42 1 3 38
M  V30 43 1 4 39
M  V30 44 1 4 40
M  V30 45 1 7 41
M  V30 46 1 9 42
M  V30 47 1 10 43
M  V30 48 1 13 44
M  V30 49 1 16 45
M  V30 50 1 18 46
M  V30 51 1 19 47
M  V30 52 1 22 48
M  V30 53 1 22 49
M  V30 54 1 23 50
M  V30 55 1 23 51
M  V30 56 1 24 52
M  V30 57 1 26 53
M  V30 58 1 26 54
M  V30 59 1 26 55
M  V30 60 1 27 56
M  V30 61 1 27 57
M  V30 62 1 27 58
M  V30 63 1 28 59
M  V30 64 1 28 60
M  V30 65 1 29 61
M  V30 66 1 29 62
M  V30 END BOND
M  V30 END CTAB
M  END
>  <Dataset>  (197) 
ChEMBL_Kinases

>  <Ligand_Instance>  (197) 
nan

>  <PDB_ID>  (197) 
nan

>  <Standardized_SMILES>  (197) 
C[C@H](O)Cn1c2cnccc2c2cnc(Nc3ccc(N4CCC(N(C)C)CC4)nn3)nc21

>  <Name>  (197) 
nan

>  <Pocket>  (197) 
nan

>  <ATP_Site>  (197) 
nan

>  <Peripheral>  (197) 
nan

>  <Num_H_Atoms_ProtBoundConf>  (197) 
nan

>  <Num_Resolved_Atoms>  (197) 
nan

>  <Num_Not_Resolved_Atoms>  (197) 
nan

$$$$
CHEMBL3641967
     RDKit          3D

  0  0  0  0  0  0  0  0  0  0999 V3000
M  V30 BEGIN CTAB
M  V30 COUNTS 53 57 0 0 0
M  V30 BEGIN ATOM
M  V30 1 C 1.594028 -1.600365 1.769940 0
M  V30 2 C 2.491309 -1.948881 0.620622 0 CFG=2
M  V30 3 O 3.768448 -2.219267 1.079778 0
M  V30 4 C 2.455782 -0.931599 -0.479498 0
M  V30 5 N 2.863364 0.382626 -0.063174 0
M  V30 6 C 4.111495 0.889069 -0.079228 0
M  V30 7 C 5.334471 0.381001 -0.463517 0
M  V30 8 N 6.445485 1.139888 -0.364793 0
M  V30 9 C 6.429506 2.410607 0.104073 0
M  V30 10 C 5.212779 2.966975 0.505073 0
M  V30 11 C 4.070824 2.197323 0.407402 0
M  V30 12 C 2.754918 2.489700 0.727531 0
M  V30 13 C 2.072822 3.563646 1.231853 0
M  V30 14 N 0.741067 3.484140 1.418021 0
M  V30 15 C 0.036595 2.378394 1.126224 0
M  V30 16 N -1.368773 2.300220 1.324715 0
M  V30 17 C -2.074646 1.103795 1.000491 0
M  V30 18 C -3.452679 1.003030 1.185862 0
M  V30 19 C -4.066603 -0.205944 0.842238 0
M  V30 20 C -3.311857 -1.233146 0.344420 0
M  V30 21 N -3.896582 -2.460355 -0.010502 0
M  V30 22 C -5.298270 -2.816513 0.087148 0
M  V30 23 C -5.452320 -4.232013 0.607513 0
M  V30 24 N -4.274328 -4.706191 1.299737 0
M  V30 25 C -3.102623 -4.691625 0.444701 0
M  V30 26 C -3.124926 -3.567115 -0.542277 0
M  V30 27 N -1.997407 -1.089557 0.184973 0
M  V30 28 N -1.406783 0.051533 0.507517 0
M  V30 29 N 0.698777 1.313585 0.628456 0
M  V30 30 C 2.031319 1.335582 0.421078 0
M  V30 31 H 1.860775 -0.642516 2.258698 0
M  V30 32 H 0.526813 -1.702826 1.518502 0
M  V30 33 H 1.781627 -2.377511 2.566843 0
M  V30 34 H 2.107196 -2.901999 0.188221 0
M  V30 35 H 3.658765 -2.598273 2.004287 0
M  V30 36 H 1.384123 -0.886325 -0.819035 0
M  V30 37 H 3.018063 -1.309130 -1.344812 0
M  V30 38 H 5.373873 -0.645122 -0.846441 0
M  V30 39 H 7.353039 2.994676 0.168998 0
M  V30 40 H 5.160723 3.978418 0.884596 0
M  V30 41 H 2.632666 4.475103 1.475777 0
M  V30 42 H -1.887366 3.121694 1.709481 0
M  V30 43 H -3.978748 1.854074 1.582297 0
M  V30 44 H -5.121533 -0.260370 0.992412 0
M  V30 45 H -5.715603 -2.795627 -0.941907 0
M  V30 46 H -5.891124 -2.123338 0.696912 0
M  V30 47 H -6.285237 -4.270644 1.320261 0
M  V30 48 H -5.627252 -4.932688 -0.229302 0
M  V30 49 H -4.128741 -4.287169 2.225276 0
M  V30 50 H -3.089221 -5.670112 -0.097628 0
M  V30 51 H -2.207051 -4.578900 1.089261 0
M  V30 52 H -3.551796 -3.933563 -1.501298 0
M  V30 53 H -2.073116 -3.210379 -0.700173 0
M  V30 END ATOM
M  V30 BEGIN BOND
M  V30 1 1 1 2
M  V30 2 1 2 3
M  V30 3 1 2 4
M  V30 4 1 4 5
M  V30 5 1 5 6
M  V30 6 2 6 7
M  V30 7 1 7 8
M  V30 8 2 8 9
M  V30 9 1 9 10
M  V30 10 2 10 11
M  V30 11 1 11 12
M  V30 12 2 12 13
M  V30 13 1 13 14
M  V30 14 2 14 15
M  V30 15 1 15 16
M  V30 16 1 16 17
M  V30 17 2 17 18
M  V30 18 1 18 19
M  V30 19 2 19 20
M  V30 20 1 20 21
M  V30 21 1 21 22
M  V30 22 1 22 23
M  V30 23 1 23 24
M  V30 24 1 24 25
M  V30 25 1 25 26
M  V30 26 1 20 27
M  V30 27 2 27 28
M  V30 28 1 15 29
M  V30 29 2 29 30
M  V30 30 1 30 5
M  V30 31 1 11 6
M  V30 32 1 30 12
M  V30 33 1 28 17
M  V30 34 1 26 21
M  V30 35 1 1 31
M  V30 36 1 1 32
M  V30 37 1 1 33
M  V30 38 1 2 34 CFG=3
M  V30 39 1 3 35
M  V30 40 1 4 36
M  V30 41 1 4 37
M  V30 42 1 7 38
M  V30 43 1 9 39
M  V30 44 1 10 40
M  V30 45 1 13 41
M  V30 46 1 16 42
M  V30 47 1 18 43
M  V30 48 1 19 44
M  V30 49 1 22 45
M  V30 50 1 22 46
M  V30 51 1 23 47
M  V30 52 1 23 48
M  V30 53 1 24 49
M  V30 54 1 25 50
M  V30 55 1 25 51
M  V30 56 1 26 52
M  V30 57 1 26 53
M  V30 END BOND
M  V30 END CTAB
M  END
>  <Dataset>  (198) 
ChEMBL_Kinases

>  <Ligand_Instance>  (198) 
nan

>  <PDB_ID>  (198) 
nan

>  <Standardized_SMILES>  (198) 
C[C@H](O)Cn1c2cnccc2c2cnc(Nc3ccc(N4CCNCC4)nn3)nc21

>  <Name>  (198) 
nan

>  <Pocket>  (198) 
nan

>  <ATP_Site>  (198) 
nan

>  <Peripheral>  (198) 
nan

>  <Num_H_Atoms_ProtBoundConf>  (198) 
nan

>  <Num_Resolved_Atoms>  (198) 
nan

>  <Num_Not_Resolved_Atoms>  (198) 
nan

$$$$
CHEMBL3641966
     RDKit          3D

  0  0  0  0  0  0  0  0  0  0999 V3000
M  V30 BEGIN CTAB
M  V30 COUNTS 56 61 0 0 0
M  V30 BEGIN ATOM
M  V30 1 O 3.502384 -4.545566 4.669069 0
M  V30 2 C 4.256462 -4.776063 3.504302 0 CFG=2
M  V30 3 C 5.527121 -3.973919 3.474926 0
M  V30 4 C 5.580669 -3.466456 2.053394 0
M  V30 5 N 4.183652 -3.121353 1.794248 0
M  V30 6 C 3.656386 -1.971940 1.174614 0
M  V30 7 C 2.277850 -1.751052 1.290359 0
M  V30 8 C 1.755799 -0.631450 0.662838 0
M  V30 9 C 2.552830 0.249308 -0.057605 0
M  V30 10 N 1.998491 1.396024 -0.693087 0
M  V30 11 C 0.614800 1.674161 -0.543012 0
M  V30 12 N 0.495860 2.740387 0.270053 0
M  V30 13 C -0.733713 3.236585 0.602298 0
M  V30 14 C -1.831816 2.596230 0.068305 0
M  V30 15 C -3.181620 2.800931 0.172439 0
M  V30 16 C -3.869291 3.766142 0.880746 0
M  V30 17 C -5.256443 3.800413 0.848635 0
M  V30 18 N -5.869118 2.861904 0.105792 0
M  V30 19 C -5.174515 1.919995 -0.585101 0
M  V30 20 C -3.809635 1.822446 -0.601946 0
M  V30 21 N -2.909409 1.016612 -1.183260 0
M  V30 22 C -3.306921 -0.044774 -1.996269 0 CFG=1
M  V30 23 C -2.152178 -0.936456 -2.420496 0
M  V30 24 C -1.964047 -1.883994 -1.232573 0
M  V30 25 C -3.271071 -1.789438 -0.447945 0
M  V30 26 C -4.135096 -1.139926 -1.474903 0 CFG=2
M  V30 27 O -4.188781 -2.056400 -2.565202 0
M  V30 28 C -1.728076 1.501910 -0.766253 0
M  V30 29 N -0.469286 1.083152 -1.038312 0
M  V30 30 N 3.861224 -0.038812 -0.116694 0
M  V30 31 N 4.412514 -1.108388 0.473179 0
M  V30 32 C 3.483475 -4.276917 2.318779 0
M  V30 33 H 3.444116 -3.560483 4.811105 0
M  V30 34 H 4.429053 -5.872505 3.411251 0
M  V30 35 H 5.541125 -3.154133 4.232426 0
M  V30 36 H 6.368930 -4.695277 3.603682 0
M  V30 37 H 5.944536 -4.253323 1.382523 0
M  V30 38 H 6.170679 -2.522924 1.996516 0
M  V30 39 H 1.557579 -2.358431 1.817684 0
M  V30 40 H 0.709853 -0.374711 0.692336 0
M  V30 41 H 2.556139 2.032793 -1.258700 0
M  V30 42 H -0.917844 4.085203 1.245847 0
M  V30 43 H -3.307221 4.503990 1.469198 0
M  V30 44 H -5.736224 4.579247 1.423228 0
M  V30 45 H -5.803295 1.265810 -1.114352 0
M  V30 46 H -3.785790 0.240355 -2.969141 0
M  V30 47 H -2.476768 -1.562371 -3.299766 0
M  V30 48 H -1.216385 -0.464271 -2.622449 0
M  V30 49 H -1.821042 -2.928814 -1.583970 0
M  V30 50 H -1.075515 -1.628874 -0.628598 0
M  V30 51 H -3.062645 -1.218638 0.455665 0
M  V30 52 H -3.608102 -2.791709 -0.128556 0
M  V30 53 H -5.175573 -1.019120 -1.275055 0
M  V30 54 H -4.371870 -2.973377 -2.251809 0
M  V30 55 H 2.455416 -3.999707 2.547045 0
M  V30 56 H 3.495850 -5.087891 1.525421 0
M  V30 END ATOM
M  V30 BEGIN BOND
M  V30 1 1 1 2
M  V30 2 1 2 3
M  V30 3 1 3 4
M  V30 4 1 4 5
M  V30 5 1 5 6
M  V30 6 2 6 7
M  V30 7 1 7 8
M  V30 8 2 8 9
M  V30 9 1 9 10
M  V30 10 1 10 11
M  V30 11 2 11 12
M  V30 12 1 12 13
M  V30 13 2 13 14
M  V30 14 1 14 15
M  V30 15 2 15 16
M  V30 16 1 16 17
M  V30 17 2 17 18
M  V30 18 1 18 19
M  V30 19 2 19 20
M  V30 20 1 20 21
M  V30 21 1 21 22
M  V30 22 1 22 23
M  V30 23 1 23 24
M  V30 24 1 24 25
M  V30 25 1 25 26
M  V30 26 1 26 27
M  V30 27 1 21 28
M  V30 28 2 28 29
M  V30 29 1 9 30
M  V30 30 2 30 31
M  V30 31 1 5 32
M  V30 32 1 32 2
M  V30 33 1 31 6
M  V30 34 1 29 11
M  V30 35 1 28 14
M  V30 36 1 20 15
M  V30 37 1 26 22
M  V30 38 1 1 33
M  V30 39 1 2 34 CFG=3
M  V30 40 1 3 35
M  V30 41 1 3 36
M  V30 42 1 4 37
M  V30 43 1 4 38
M  V30 44 1 7 39
M  V30 45 1 8 40
M  V30 46 1 10 41
M  V30 47 1 13 42
M  V30 48 1 16 43
M  V30 49 1 17 44
M  V30 50 1 19 45
M  V30 51 1 22 46 CFG=3
M  V30 52 1 23 47
M  V30 53 1 23 48
M  V30 54 1 24 49
M  V30 55 1 24 50
M  V30 56 1 25 51
M  V30 57 1 25 52
M  V30 58 1 26 53 CFG=1
M  V30 59 1 27 54
M  V30 60 1 32 55
M  V30 61 1 32 56
M  V30 END BOND
M  V30 END CTAB
M  END
>  <Dataset>  (199) 
ChEMBL_Kinases

>  <Ligand_Instance>  (199) 
nan

>  <PDB_ID>  (199) 
nan

>  <Standardized_SMILES>  (199) 
O[C@@H]1CCN(c2ccc(Nc3ncc4c5ccncc5n([C@H]5CCC[C@@H]5O)c4n3)nn2)C1

>  <Name>  (199) 
nan

>  <Pocket>  (199) 
nan

>  <ATP_Site>  (199) 
nan

>  <Peripheral>  (199) 
nan

>  <Num_H_Atoms_ProtBoundConf>  (199) 
nan

>  <Num_Resolved_Atoms>  (199) 
nan

>  <Num_Not_Resolved_Atoms>  (199) 
nan

$$$$
CHEMBL3641965
     RDKit          3D

  0  0  0  0  0  0  0  0  0  0999 V3000
M  V30 BEGIN CTAB
M  V30 COUNTS 60 65 0 0 0
M  V30 BEGIN ATOM
M  V30 1 C 4.522484 -5.141886 4.381719 0
M  V30 2 C 3.170677 -4.532384 4.050211 0 CFG=1
M  V30 3 C 3.391884 -3.252803 3.317329 0
M  V30 4 N 3.362203 -3.355129 1.882010 0
M  V30 5 C 3.023420 -2.298564 0.991428 0
M  V30 6 C 3.431377 -2.276403 -0.326978 0
M  V30 7 C 3.055949 -1.259863 -1.173263 0
M  V30 8 C 2.253065 -0.254320 -0.662435 0
M  V30 9 N 1.843690 0.770779 -1.554448 0
M  V30 10 C 0.982689 1.837409 -1.161592 0
M  V30 11 N 1.037374 3.159776 -0.922330 0
M  V30 12 C -0.071579 3.811408 -0.534814 0
M  V30 13 C -1.264430 3.127541 -0.382568 0
M  V30 14 C -2.483232 3.645548 0.010898 0
M  V30 15 C -3.063804 4.834833 0.385004 0
M  V30 16 C -4.395661 4.950831 0.736949 0
M  V30 17 N -5.109237 3.800690 0.692586 0
M  V30 18 C -4.594973 2.614970 0.336183 0
M  V30 19 C -3.272885 2.520777 -0.011027 0
M  V30 20 N -2.671103 1.384828 -0.374057 0
M  V30 21 C -2.883482 -0.002004 -0.573857 0 CFG=1
M  V30 22 C -4.235723 -0.569469 -0.462735 0
M  V30 23 C -4.951763 -0.250100 -1.713655 0
M  V30 24 C -3.866469 0.023863 -2.720222 0
M  V30 25 C -2.563260 -0.313242 -2.044282 0 CFG=2
M  V30 26 O -2.334395 -1.711121 -2.075444 0
M  V30 27 C -1.365125 1.764652 -0.618724 0
M  V30 28 N -0.191052 1.226965 -0.999565 0
M  V30 29 N 1.858232 -0.286115 0.641510 0
M  V30 30 N 2.242657 -1.292984 1.440000 0
M  V30 31 C 3.694896 -4.713847 1.439340 0
M  V30 32 C 2.634221 -5.651652 1.979187 0
M  V30 33 N 2.382731 -5.515907 3.375130 0
M  V30 34 H 4.512234 -5.406006 5.471007 0
M  V30 35 H 5.354867 -4.403137 4.196650 0
M  V30 36 H 4.693598 -6.057547 3.817365 0
M  V30 37 H 2.636892 -4.257809 5.012805 0
M  V30 38 H 2.621384 -2.487713 3.615580 0
M  V30 39 H 4.379753 -2.851181 3.649215 0
M  V30 40 H 4.061142 -3.060369 -0.723917 0
M  V30 41 H 3.367211 -1.224639 -2.218653 0
M  V30 42 H 2.151640 0.794358 -2.544387 0
M  V30 43 H 0.002296 4.863371 -0.348044 0
M  V30 44 H -2.410844 5.704019 0.392776 0
M  V30 45 H -4.837300 5.889137 1.024146 0
M  V30 46 H -5.294138 1.807358 0.364298 0
M  V30 47 H -2.133725 -0.609982 0.054511 0
M  V30 48 H -4.063126 -1.717766 -0.487746 0
M  V30 49 H -4.783060 -0.409909 0.487244 0
M  V30 50 H -5.582309 0.649256 -1.581644 0
M  V30 51 H -5.596167 -1.115972 -2.047315 0
M  V30 52 H -4.018832 -0.602894 -3.632428 0
M  V30 53 H -3.907123 1.086636 -3.044925 0
M  V30 54 H -1.729993 0.255022 -2.443670 0
M  V30 55 H -1.374780 -1.812798 -1.804808 0
M  V30 56 H 4.724490 -5.009093 1.657801 0
M  V30 57 H 3.550011 -4.704131 0.326232 0
M  V30 58 H 2.994279 -6.697342 1.783637 0
M  V30 59 H 1.701334 -5.425385 1.417587 0
M  V30 60 H 1.367564 -5.337524 3.524062 0
M  V30 END ATOM
M  V30 BEGIN BOND
M  V30 1 1 1 2
M  V30 2 1 2 3
M  V30 3 1 3 4
M  V30 4 1 4 5
M  V30 5 2 5 6
M  V30 6 1 6 7
M  V30 7 2 7 8
M  V30 8 1 8 9
M  V30 9 1 9 10
M  V30 10 2 10 11
M  V30 11 1 11 12
M  V30 12 2 12 13
M  V30 13 1 13 14
M  V30 14 2 14 15
M  V30 15 1 15 16
M  V30 16 2 16 17
M  V30 17 1 17 18
M  V30 18 2 18 19
M  V30 19 1 19 20
M  V30 20 1 20 21
M  V30 21 1 21 22
M  V30 22 1 22 23
M  V30 23 1 23 24
M  V30 24 1 24 25
M  V30 25 1 25 26
M  V30 26 1 20 27
M  V30 27 2 27 28
M  V30 28 1 8 29
M  V30 29 2 29 30
M  V30 30 1 4 31
M  V30 31 1 31 32
M  V30 32 1 32 33
M  V30 33 1 33 2
M  V30 34 1 30 5
M  V30 35 1 28 10
M  V30 36 1 27 13
M  V30 37 1 19 14
M  V30 38 1 25 21
M  V30 39 1 1 34
M  V30 40 1 1 35
M  V30 41 1 1 36
M  V30 42 1 2 37 CFG=1
M  V30 43 1 3 38
M  V30 44 1 3 39
M  V30 45 1 6 40
M  V30 46 1 7 41
M  V30 47 1 9 42
M  V30 48 1 12 43
M  V30 49 1 15 44
M  V30 50 1 16 45
M  V30 51 1 18 46
M  V30 52 1 21 47 CFG=1
M  V30 53 1 22 48
M  V30 54 1 22 49
M  V30 55 1 23 50
M  V30 56 1 23 51
M  V30 57 1 24 52
M  V30 58 1 24 53
M  V30 59 1 25 54 CFG=3
M  V30 60 1 26 55
M  V30 61 1 31 56
M  V30 62 1 31 57
M  V30 63 1 32 58
M  V30 64 1 32 59
M  V30 65 1 33 60
M  V30 END BOND
M  V30 END CTAB
M  END
>  <Dataset>  (200) 
ChEMBL_Kinases

>  <Ligand_Instance>  (200) 
nan

>  <PDB_ID>  (200) 
nan

>  <Standardized_SMILES>  (200) 
C[C@H]1CN(c2ccc(Nc3ncc4c5ccncc5n([C@H]5CCC[C@@H]5O)c4n3)nn2)CCN1

>  <Name>  (200) 
nan

>  <Pocket>  (200) 
nan

>  <ATP_Site>  (200) 
nan

>  <Peripheral>  (200) 
nan

>  <Num_H_Atoms_ProtBoundConf>  (200) 
nan

>  <Num_Resolved_Atoms>  (200) 
nan

>  <Num_Not_Resolved_Atoms>  (200) 
nan

$$$$
CHEMBL3641964
     RDKit          3D

  0  0  0  0  0  0  0  0  0  0999 V3000
M  V30 BEGIN CTAB
M  V30 COUNTS 63 68 0 0 0
M  V30 BEGIN ATOM
M  V30 1 C 5.363158 -1.380439 3.923410 0
M  V30 2 N 4.748027 -0.244424 4.536512 0
M  V30 3 C 3.960001 0.530213 3.601042 0
M  V30 4 C 4.795710 1.114630 2.475472 0
M  V30 5 C 4.135953 2.367719 1.919699 0
M  V30 6 N 2.692830 2.283949 2.031230 0
M  V30 7 C 1.786558 2.282983 0.936363 0
M  V30 8 C 2.052024 2.693272 -0.354163 0
M  V30 9 C 1.085434 2.611811 -1.335202 0
M  V30 10 C -0.193313 2.104771 -1.032371 0
M  V30 11 N -1.205079 2.004774 -2.052092 0
M  V30 12 C -2.445422 1.431815 -1.621956 0
M  V30 13 N -3.666755 1.879675 -1.233059 0
M  V30 14 C -4.604643 0.997702 -0.874663 0
M  V30 15 C -4.409319 -0.364781 -0.873505 0
M  V30 16 C -5.166438 -1.469137 -0.558842 0
M  V30 17 C -6.466008 -1.563496 -0.117411 0
M  V30 18 C -6.974940 -2.821318 0.117672 0
M  V30 19 N -6.191659 -3.884666 -0.090439 0
M  V30 20 C -4.914721 -3.824436 -0.521726 0
M  V30 21 C -4.348193 -2.585755 -0.776056 0
M  V30 22 N -3.139149 -2.188213 -1.205283 0
M  V30 23 C -1.989821 -2.980683 -1.539140 0 CFG=1
M  V30 24 C -1.425381 -3.724747 -0.358626 0
M  V30 25 C -0.838938 -4.971682 -0.958668 0
M  V30 26 C -0.964584 -4.877029 -2.450717 0
M  V30 27 C -2.159800 -3.953510 -2.649624 0 CFG=2
M  V30 28 O -1.991858 -3.340232 -3.902345 0
M  V30 29 C -3.180645 -0.817521 -1.264300 0
M  V30 30 N -2.271151 0.089123 -1.614878 0
M  V30 31 N -0.398568 1.720729 0.239484 0
M  V30 32 N 0.536421 1.804613 1.169648 0
M  V30 33 C 2.186699 2.203411 3.389235 0
M  V30 34 C 3.282334 1.683903 4.284038 0
M  V30 35 H 6.471130 -1.438587 4.088406 0
M  V30 36 H 5.150012 -1.388139 2.838650 0
M  V30 37 H 4.977601 -2.358944 4.311721 0
M  V30 38 H 4.118155 -0.563410 5.301257 0
M  V30 39 H 3.175491 -0.153889 3.162751 0
M  V30 40 H 4.962648 0.330845 1.732170 0
M  V30 41 H 5.753226 1.445242 2.931284 0
M  V30 42 H 4.380333 2.401210 0.841489 0
M  V30 43 H 4.480701 3.264438 2.435151 0
M  V30 44 H 3.030566 3.071697 -0.544728 0
M  V30 45 H 1.234971 2.917499 -2.337882 0
M  V30 46 H -0.976754 2.344800 -2.999294 0
M  V30 47 H -5.549222 1.423957 -0.578134 0
M  V30 48 H -7.025274 -0.659948 0.023348 0
M  V30 49 H -8.000841 -2.947374 0.467854 0
M  V30 50 H -4.303331 -4.699845 -0.678288 0
M  V30 51 H -1.166738 -2.277015 -1.871497 0
M  V30 52 H -0.569742 -3.156281 0.110831 0
M  V30 53 H -2.149607 -3.908671 0.459693 0
M  V30 54 H 0.257837 -5.093663 -0.730826 0
M  V30 55 H -1.435184 -5.853267 -0.624601 0
M  V30 56 H -1.154924 -5.851726 -2.912294 0
M  V30 57 H -0.069433 -4.469223 -2.949448 0
M  V30 58 H -3.098328 -4.493349 -2.705941 0
M  V30 59 H -1.949059 -2.365665 -3.827792 0
M  V30 60 H 1.940364 3.269584 3.680694 0
M  V30 61 H 1.312315 1.535182 3.477503 0
M  V30 62 H 2.838262 1.433284 5.270538 0
M  V30 63 H 4.030596 2.495669 4.408933 0
M  V30 END ATOM
M  V30 BEGIN BOND
M  V30 1 1 1 2
M  V30 2 1 2 3
M  V30 3 1 3 4
M  V30 4 1 4 5
M  V30 5 1 5 6
M  V30 6 1 6 7
M  V30 7 2 7 8
M  V30 8 1 8 9
M  V30 9 2 9 10
M  V30 10 1 10 11
M  V30 11 1 11 12
M  V30 12 2 12 13
M  V30 13 1 13 14
M  V30 14 2 14 15
M  V30 15 1 15 16
M  V30 16 2 16 17
M  V30 17 1 17 18
M  V30 18 2 18 19
M  V30 19 1 19 20
M  V30 20 2 20 21
M  V30 21 1 21 22
M  V30 22 1 22 23
M  V30 23 1 23 24
M  V30 24 1 24 25
M  V30 25 1 25 26
M  V30 26 1 26 27
M  V30 27 1 27 28
M  V30 28 1 22 29
M  V30 29 2 29 30
M  V30 30 1 10 31
M  V30 31 2 31 32
M  V30 32 1 6 33
M  V30 33 1 33 34
M  V30 34 1 34 3
M  V30 35 1 32 7
M  V30 36 1 30 12
M  V30 37 1 29 15
M  V30 38 1 21 16
M  V30 39 1 27 23
M  V30 40 1 1 35
M  V30 41 1 1 36
M  V30 42 1 1 37
M  V30 43 1 2 38
M  V30 44 1 3 39
M  V30 45 1 4 40
M  V30 46 1 4 41
M  V30 47 1 5 42
M  V30 48 1 5 43
M  V30 49 1 8 44
M  V30 50 1 9 45
M  V30 51 1 11 46
M  V30 52 1 14 47
M  V30 53 1 17 48
M  V30 54 1 18 49
M  V30 55 1 20 50
M  V30 56 1 23 51 CFG=3
M  V30 57 1 24 52
M  V30 58 1 24 53
M  V30 59 1 25 54
M  V30 60 1 25 55
M  V30 61 1 26 56
M  V30 62 1 26 57
M  V30 63 1 27 58 CFG=3
M  V30 64 1 28 59
M  V30 65 1 33 60
M  V30 66 1 33 61
M  V30 67 1 34 62
M  V30 68 1 34 63
M  V30 END BOND
M  V30 END CTAB
M  END
>  <Dataset>  (201) 
ChEMBL_Kinases

>  <Ligand_Instance>  (201) 
nan

>  <PDB_ID>  (201) 
nan

>  <Standardized_SMILES>  (201) 
CNC1CCN(c2ccc(Nc3ncc4c5ccncc5n([C@H]5CCC[C@@H]5O)c4n3)nn2)CC1

>  <Name>  (201) 
nan

>  <Pocket>  (201) 
nan

>  <ATP_Site>  (201) 
nan

>  <Peripheral>  (201) 
nan

>  <Num_H_Atoms_ProtBoundConf>  (201) 
nan

>  <Num_Resolved_Atoms>  (201) 
nan

>  <Num_Not_Resolved_Atoms>  (201) 
nan

$$$$
CHEMBL3641963
     RDKit          3D

  0  0  0  0  0  0  0  0  0  0999 V3000
M  V30 BEGIN CTAB
M  V30 COUNTS 66 71 0 0 0
M  V30 BEGIN ATOM
M  V30 1 C 4.586504 3.079383 5.707165 0
M  V30 2 N 5.015123 3.584227 4.421239 0
M  V30 3 C 6.132312 2.820725 3.966931 0
M  V30 4 C 3.915765 3.591502 3.474435 0
M  V30 5 C 2.778932 4.448411 3.984462 0
M  V30 6 C 1.636613 4.422104 3.013413 0
M  V30 7 N 1.971096 3.740905 1.807863 0
M  V30 8 C 1.297898 2.644801 1.209507 0
M  V30 9 C 0.158673 2.071564 1.721991 0
M  V30 10 C -0.384413 1.007699 1.033772 0
M  V30 11 C 0.120324 0.468354 -0.128121 0
M  V30 12 N -0.411405 -0.622739 -0.858086 0
M  V30 13 C -1.565411 -1.390300 -0.559776 0
M  V30 14 N -2.375196 -1.207582 0.491751 0
M  V30 15 C -3.466634 -1.930296 0.779158 0
M  V30 16 C -3.797736 -2.956632 -0.074521 0
M  V30 17 C -4.803669 -3.898322 -0.126918 0
M  V30 18 C -5.880763 -4.127273 0.724963 0
M  V30 19 C -6.756925 -5.166128 0.428064 0
M  V30 20 N -6.537201 -5.925621 -0.681701 0
M  V30 21 C -5.473417 -5.669143 -1.487810 0
M  V30 22 C -4.562801 -4.656507 -1.257239 0
M  V30 23 N -3.458511 -4.217656 -1.891343 0
M  V30 24 C -2.964721 -4.808498 -3.090440 0 CFG=1
M  V30 25 C -2.372664 -3.857176 -4.085041 0
M  V30 26 C -1.370429 -4.660363 -4.894395 0
M  V30 27 C -0.924734 -5.782111 -3.986138 0
M  V30 28 C -1.763021 -5.698141 -2.741476 0 CFG=2
M  V30 29 O -2.183956 -6.982607 -2.406481 0
M  V30 30 C -2.982139 -3.170176 -1.167764 0
M  V30 31 N -1.907562 -2.397106 -1.379048 0
M  V30 32 N 1.231821 1.095207 -0.548014 0
M  V30 33 N 1.785485 2.114971 0.076502 0
M  V30 34 C 3.159245 4.328789 1.216140 0
M  V30 35 C 4.344515 4.210845 2.159836 0
M  V30 36 H 3.999000 3.773115 6.307241 0
M  V30 37 H 4.084029 2.092995 5.519688 0
M  V30 38 H 5.519489 2.835593 6.281855 0
M  V30 39 H 6.354392 2.015262 4.712634 0
M  V30 40 H 6.018914 2.309421 3.008310 0
M  V30 41 H 7.074108 3.428113 3.947816 0
M  V30 42 H 3.583992 2.558484 3.281192 0
M  V30 43 H 2.482250 4.022951 4.970723 0
M  V30 44 H 3.147650 5.485418 4.073324 0
M  V30 45 H 1.320526 5.487870 2.820630 0
M  V30 46 H 0.755724 3.935025 3.532274 0
M  V30 47 H -0.279330 2.448725 2.623760 0
M  V30 48 H -1.276696 0.585028 1.464723 0
M  V30 49 H 0.124297 -0.883575 -1.722322 0
M  V30 50 H -4.071459 -1.720673 1.650968 0
M  V30 51 H -6.028931 -3.496405 1.610906 0
M  V30 52 H -7.597053 -5.344869 1.092047 0
M  V30 53 H -5.314549 -6.298318 -2.382519 0
M  V30 54 H -3.723075 -5.428580 -3.586863 0
M  V30 55 H -3.184482 -3.558072 -4.801260 0
M  V30 56 H -1.829840 -3.008990 -3.673291 0
M  V30 57 H -1.843121 -5.065118 -5.833795 0
M  V30 58 H -0.499466 -4.061943 -5.229968 0
M  V30 59 H 0.146421 -5.686507 -3.681528 0
M  V30 60 H -1.118573 -6.741152 -4.506139 0
M  V30 61 H -1.187966 -5.256303 -1.884787 0
M  V30 62 H -1.520288 -7.421438 -1.823584 0
M  V30 63 H 3.400937 3.725416 0.318571 0
M  V30 64 H 2.966235 5.353794 0.877870 0
M  V30 65 H 4.718913 5.232005 2.365470 0
M  V30 66 H 5.143736 3.603317 1.730409 0
M  V30 END ATOM
M  V30 BEGIN BOND
M  V30 1 1 1 2
M  V30 2 1 2 3
M  V30 3 1 2 4
M  V30 4 1 4 5
M  V30 5 1 5 6
M  V30 6 1 6 7
M  V30 7 1 7 8
M  V30 8 2 8 9
M  V30 9 1 9 10
M  V30 10 2 10 11
M  V30 11 1 11 12
M  V30 12 1 12 13
M  V30 13 2 13 14
M  V30 14 1 14 15
M  V30 15 2 15 16
M  V30 16 1 16 17
M  V30 17 2 17 18
M  V30 18 1 18 19
M  V30 19 2 19 20
M  V30 20 1 20 21
M  V30 21 2 21 22
M  V30 22 1 22 23
M  V30 23 1 23 24
M  V30 24 1 24 25
M  V30 25 1 25 26
M  V30 26 1 26 27
M  V30 27 1 27 28
M  V30 28 1 28 29
M  V30 29 1 23 30
M  V30 30 2 30 31
M  V30 31 1 11 32
M  V30 32 2 32 33
M  V30 33 1 7 34
M  V30 34 1 34 35
M  V30 35 1 35 4
M  V30 36 1 33 8
M  V30 37 1 31 13
M  V30 38 1 30 16
M  V30 39 1 22 17
M  V30 40 1 28 24
M  V30 41 1 1 36
M  V30 42 1 1 37
M  V30 43 1 1 38
M  V30 44 1 3 39
M  V30 45 1 3 40
M  V30 46 1 3 41
M  V30 47 1 4 42
M  V30 48 1 5 43
M  V30 49 1 5 44
M  V30 50 1 6 45
M  V30 51 1 6 46
M  V30 52 1 9 47
M  V30 53 1 10 48
M  V30 54 1 12 49
M  V30 55 1 15 50
M  V30 56 1 18 51
M  V30 57 1 19 52
M  V30 58 1 21 53
M  V30 59 1 24 54 CFG=3
M  V30 60 1 25 55
M  V30 61 1 25 56
M  V30 62 1 26 57
M  V30 63 1 26 58
M  V30 64 1 27 59
M  V30 65 1 27 60
M  V30 66 1 28 61 CFG=1
M  V30 67 1 29 62
M  V30 68 1 34 63
M  V30 69 1 34 64
M  V30 70 1 35 65
M  V30 71 1 35 66
M  V30 END BOND
M  V30 END CTAB
M  END
>  <Dataset>  (202) 
ChEMBL_Kinases

>  <Ligand_Instance>  (202) 
nan

>  <PDB_ID>  (202) 
nan

>  <Standardized_SMILES>  (202) 
CN(C)C1CCN(c2ccc(Nc3ncc4c5ccncc5n([C@H]5CCC[C@@H]5O)c4n3)nn2)CC1

>  <Name>  (202) 
nan

>  <Pocket>  (202) 
nan

>  <ATP_Site>  (202) 
nan

>  <Peripheral>  (202) 
nan

>  <Num_H_Atoms_ProtBoundConf>  (202) 
nan

>  <Num_Resolved_Atoms>  (202) 
nan

>  <Num_Not_Resolved_Atoms>  (202) 
nan

$$$$
CHEMBL3641962
     RDKit          3D

  0  0  0  0  0  0  0  0  0  0999 V3000
M  V30 BEGIN CTAB
M  V30 COUNTS 57 62 0 0 0
M  V30 BEGIN ATOM
M  V30 1 O 3.253653 -0.248884 -0.164123 0
M  V30 2 C 2.308709 -0.175881 0.860427 0 CFG=1
M  V30 3 C 2.303749 -1.374267 1.746683 0
M  V30 4 C 2.181017 -0.844097 3.149681 0
M  V30 5 C 2.603203 0.598232 3.145663 0
M  V30 6 C 2.690085 0.998352 1.711905 0 CFG=2
M  V30 7 N 1.793927 2.092119 1.353879 0
M  V30 8 C 2.021634 3.326470 0.872373 0
M  V30 9 C 3.241260 3.919965 0.588643 0
M  V30 10 N 3.209583 5.171246 0.109777 0
M  V30 11 C 2.064005 5.808737 -0.081948 0
M  V30 12 C 0.815428 5.251381 0.189548 0
M  V30 13 C 0.821149 3.962952 0.683463 0
M  V30 14 C -0.146896 3.063652 1.070247 0
M  V30 15 C -1.509118 3.163914 1.088294 0
M  V30 16 N -2.232874 2.118855 1.515779 0
M  V30 17 C -1.680588 0.967207 1.931354 0
M  V30 18 N -2.292387 -0.228893 2.391675 0
M  V30 19 C -2.218496 -1.371615 1.519103 0
M  V30 20 C -1.561108 -1.283128 0.315875 0
M  V30 21 C -1.458710 -2.357640 -0.543521 0
M  V30 22 C -2.032014 -3.549968 -0.183565 0
M  V30 23 N -1.953600 -4.702987 -1.012036 0
M  V30 24 C -2.639179 -5.973725 -0.795269 0
M  V30 25 C -3.434093 -6.253753 -2.044903 0
M  V30 26 N -3.410622 -5.223764 -3.028496 0
M  V30 27 C -2.102377 -4.745400 -3.387678 0
M  V30 28 C -1.145375 -4.762380 -2.213969 0
M  V30 29 N -2.669713 -3.608510 0.998016 0
M  V30 30 N -2.762617 -2.565230 1.820279 0
M  V30 31 N -0.338189 0.895951 1.903510 0
M  V30 32 C 0.456049 1.902217 1.487481 0
M  V30 33 H 3.055443 -0.978595 -0.803482 0
M  V30 34 H 1.286813 -0.021907 0.429343 0
M  V30 35 H 3.220319 -1.991304 1.608562 0
M  V30 36 H 1.413849 -2.006734 1.474822 0
M  V30 37 H 1.139432 -0.873742 3.488055 0
M  V30 38 H 2.803219 -1.465084 3.841955 0
M  V30 39 H 3.640716 0.610343 3.594672 0
M  V30 40 H 1.998445 1.246755 3.785908 0
M  V30 41 H 3.728828 1.372326 1.473315 0
M  V30 42 H 4.177587 3.370306 0.757016 0
M  V30 43 H 2.141914 6.821498 -0.475058 0
M  V30 44 H -0.103824 5.777854 0.029515 0
M  V30 45 H -2.037181 4.054043 0.770837 0
M  V30 46 H -2.783135 -0.322967 3.308917 0
M  V30 47 H -1.101001 -0.339562 0.020309 0
M  V30 48 H -0.929830 -2.228012 -1.472009 0
M  V30 49 H -3.288108 -5.933601 0.109211 0
M  V30 50 H -1.845332 -6.764082 -0.673135 0
M  V30 51 H -4.495732 -6.376403 -1.732449 0
M  V30 52 H -3.134786 -7.246025 -2.454296 0
M  V30 53 H -4.105362 -4.466886 -2.887390 0
M  V30 54 H -1.722023 -5.291769 -4.256723 0
M  V30 55 H -2.218374 -3.673796 -3.684206 0
M  V30 56 H -0.350420 -4.004589 -2.266969 0
M  V30 57 H -0.604936 -5.752946 -2.293772 0
M  V30 END ATOM
M  V30 BEGIN BOND
M  V30 1 1 1 2
M  V30 2 1 2 3
M  V30 3 1 3 4
M  V30 4 1 4 5
M  V30 5 1 5 6
M  V30 6 1 6 7
M  V30 7 1 7 8
M  V30 8 2 8 9
M  V30 9 1 9 10
M  V30 10 2 10 11
M  V30 11 1 11 12
M  V30 12 2 12 13
M  V30 13 1 13 14
M  V30 14 2 14 15
M  V30 15 1 15 16
M  V30 16 2 16 17
M  V30 17 1 17 18
M  V30 18 1 18 19
M  V30 19 2 19 20
M  V30 20 1 20 21
M  V30 21 2 21 22
M  V30 22 1 22 23
M  V30 23 1 23 24
M  V30 24 1 24 25
M  V30 25 1 25 26
M  V30 26 1 26 27
M  V30 27 1 27 28
M  V30 28 1 22 29
M  V30 29 2 29 30
M  V30 30 1 17 31
M  V30 31 2 31 32
M  V30 32 1 6 2
M  V30 33 1 32 7
M  V30 34 1 13 8
M  V30 35 1 32 14
M  V30 36 1 30 19
M  V30 37 1 28 23
M  V30 38 1 1 33
M  V30 39 1 2 34 CFG=3
M  V30 40 1 3 35
M  V30 41 1 3 36
M  V30 42 1 4 37
M  V30 43 1 4 38
M  V30 44 1 5 39
M  V30 45 1 5 40
M  V30 46 1 6 41 CFG=3
M  V30 47 1 9 42
M  V30 48 1 11 43
M  V30 49 1 12 44
M  V30 50 1 15 45
M  V30 51 1 18 46
M  V30 52 1 20 47
M  V30 53 1 21 48
M  V30 54 1 24 49
M  V30 55 1 24 50
M  V30 56 1 25 51
M  V30 57 1 25 52
M  V30 58 1 26 53
M  V30 59 1 27 54
M  V30 60 1 27 55
M  V30 61 1 28 56
M  V30 62 1 28 57
M  V30 END BOND
M  V30 END CTAB
M  END
>  <Dataset>  (203) 
ChEMBL_Kinases

>  <Ligand_Instance>  (203) 
nan

>  <PDB_ID>  (203) 
nan

>  <Standardized_SMILES>  (203) 
O[C@H]1CCC[C@@H]1n1c2cnccc2c2cnc(Nc3ccc(N4CCNCC4)nn3)nc21

>  <Name>  (203) 
nan

>  <Pocket>  (203) 
nan

>  <ATP_Site>  (203) 
nan

>  <Peripheral>  (203) 
nan

>  <Num_H_Atoms_ProtBoundConf>  (203) 
nan

>  <Num_Resolved_Atoms>  (203) 
nan

>  <Num_Not_Resolved_Atoms>  (203) 
nan

$$$$
CHEMBL3641961
     RDKit          3D

  0  0  0  0  0  0  0  0  0  0999 V3000
M  V30 BEGIN CTAB
M  V30 COUNTS 57 62 0 0 0
M  V30 BEGIN ATOM
M  V30 1 O 3.294606 -6.076611 2.459258 0
M  V30 2 C 4.353871 -5.357994 3.006620 0 CFG=2
M  V30 3 C 3.843584 -4.610737 4.228490 0
M  V30 4 C 4.000307 -3.179562 3.835056 0
M  V30 5 N 4.018543 -3.115048 2.396967 0
M  V30 6 C 3.436168 -2.250126 1.417129 0
M  V30 7 C 3.795141 -2.366333 0.067732 0
M  V30 8 C 3.211024 -1.517564 -0.849816 0
M  V30 9 C 2.292107 -0.571490 -0.457184 0
M  V30 10 N 1.691609 0.321614 -1.386685 0
M  V30 11 C 0.723486 1.290041 -1.014367 0
M  V30 12 N 0.840237 2.522116 -0.488368 0
M  V30 13 C -0.244726 3.284648 -0.220980 0
M  V30 14 C -1.516344 2.812750 -0.484517 0
M  V30 15 C -2.785135 3.321664 -0.336416 0
M  V30 16 C -3.138755 4.561725 0.168262 0
M  V30 17 C -4.504370 4.797555 0.194680 0
M  V30 18 N -5.412093 3.887287 -0.238584 0
M  V30 19 C -4.991974 2.680218 -0.725528 0
M  V30 20 C -3.633733 2.354768 -0.790142 0
M  V30 21 N -2.967131 1.275491 -1.211012 0
M  V30 22 C -3.585271 0.113716 -1.745793 0 CFG=1
M  V30 23 C -2.597834 -0.918945 -2.249465 0
M  V30 24 C -2.335910 -1.775428 -1.067625 0
M  V30 25 C -3.469139 -1.504712 -0.066088 0
M  V30 26 C -4.418724 -0.759087 -0.942641 0 CFG=2
M  V30 27 O -4.825913 -1.774429 -1.862403 0
M  V30 28 C -1.647806 1.540722 -1.028364 0
M  V30 29 N -0.518644 0.878295 -1.250880 0
M  V30 30 N 1.964235 -0.485522 0.866182 0
M  V30 31 C 2.519822 -1.300098 1.774692 0
M  V30 32 C 4.863974 -4.274187 2.070214 0
M  V30 33 H 2.407594 -5.844191 2.877346 0
M  V30 34 H 5.151818 -6.068072 3.267338 0
M  V30 35 H 4.488178 -4.897373 5.086156 0
M  V30 36 H 2.804641 -4.880577 4.501110 0
M  V30 37 H 3.140122 -2.576248 4.225650 0
M  V30 38 H 4.913985 -2.712769 4.283301 0
M  V30 39 H 4.511957 -3.095651 -0.277087 0
M  V30 40 H 3.442861 -1.557343 -1.886658 0
M  V30 41 H 1.979042 0.256585 -2.387169 0
M  V30 42 H -0.078591 4.250184 0.196769 0
M  V30 43 H -2.440766 5.284524 0.509980 0
M  V30 44 H -4.794509 5.777278 0.592987 0
M  V30 45 H -5.752218 1.999728 -1.053427 0
M  V30 46 H -4.208397 0.354575 -2.669659 0
M  V30 47 H -3.099141 -1.555473 -3.041248 0
M  V30 48 H -1.724388 -0.496891 -2.745604 0
M  V30 49 H -2.455972 -2.867650 -1.342031 0
M  V30 50 H -1.345677 -1.697594 -0.605967 0
M  V30 51 H -3.033837 -0.978099 0.769313 0
M  V30 52 H -3.950918 -2.435810 0.283463 0
M  V30 53 H -5.364635 -0.432713 -0.530972 0
M  V30 54 H -5.537366 -2.332081 -1.509684 0
M  V30 55 H 2.195178 -1.157460 2.817381 0
M  V30 56 H 4.633697 -4.613786 1.059119 0
M  V30 57 H 5.924147 -4.041583 2.202261 0
M  V30 END ATOM
M  V30 BEGIN BOND
M  V30 1 1 1 2
M  V30 2 1 2 3
M  V30 3 1 3 4
M  V30 4 1 4 5
M  V30 5 1 5 6
M  V30 6 2 6 7
M  V30 7 1 7 8
M  V30 8 2 8 9
M  V30 9 1 9 10
M  V30 10 1 10 11
M  V30 11 2 11 12
M  V30 12 1 12 13
M  V30 13 2 13 14
M  V30 14 1 14 15
M  V30 15 2 15 16
M  V30 16 1 16 17
M  V30 17 2 17 18
M  V30 18 1 18 19
M  V30 19 2 19 20
M  V30 20 1 20 21
M  V30 21 1 21 22
M  V30 22 1 22 23
M  V30 23 1 23 24
M  V30 24 1 24 25
M  V30 25 1 25 26
M  V30 26 1 26 27
M  V30 27 1 21 28
M  V30 28 2 28 29
M  V30 29 1 9 30
M  V30 30 2 30 31
M  V30 31 1 5 32
M  V30 32 1 32 2
M  V30 33 1 31 6
M  V30 34 1 29 11
M  V30 35 1 28 14
M  V30 36 1 20 15
M  V30 37 1 26 22
M  V30 38 1 1 33
M  V30 39 1 2 34 CFG=1
M  V30 40 1 3 35
M  V30 41 1 3 36
M  V30 42 1 4 37
M  V30 43 1 4 38
M  V30 44 1 7 39
M  V30 45 1 8 40
M  V30 46 1 10 41
M  V30 47 1 13 42
M  V30 48 1 16 43
M  V30 49 1 17 44
M  V30 50 1 19 45
M  V30 51 1 22 46 CFG=3
M  V30 52 1 23 47
M  V30 53 1 23 48
M  V30 54 1 24 49
M  V30 55 1 24 50
M  V30 56 1 25 51
M  V30 57 1 25 52
M  V30 58 1 26 53 CFG=1
M  V30 59 1 27 54
M  V30 60 1 31 55
M  V30 61 1 32 56
M  V30 62 1 32 57
M  V30 END BOND
M  V30 END CTAB
M  END
>  <Dataset>  (204) 
ChEMBL_Kinases

>  <Ligand_Instance>  (204) 
nan

>  <PDB_ID>  (204) 
nan

>  <Standardized_SMILES>  (204) 
O[C@@H]1CCN(c2ccc(Nc3ncc4c5ccncc5n([C@H]5CCC[C@@H]5O)c4n3)nc2)C1

>  <Name>  (204) 
nan

>  <Pocket>  (204) 
nan

>  <ATP_Site>  (204) 
nan

>  <Peripheral>  (204) 
nan

>  <Num_H_Atoms_ProtBoundConf>  (204) 
nan

>  <Num_Resolved_Atoms>  (204) 
nan

>  <Num_Not_Resolved_Atoms>  (204) 
nan

$$$$
CHEMBL3641960
     RDKit          3D

  0  0  0  0  0  0  0  0  0  0999 V3000
M  V30 BEGIN CTAB
M  V30 COUNTS 64 69 0 0 0
M  V30 BEGIN ATOM
M  V30 1 C 6.033607 0.921051 4.249940 0
M  V30 2 C 4.974393 -0.147590 4.486760 0
M  V30 3 C 5.607488 -1.172159 5.394481 0
M  V30 4 C 4.605827 -0.709963 3.132150 0
M  V30 5 N 3.178195 -0.716660 2.890112 0
M  V30 6 C 2.469097 -0.290201 1.730894 0
M  V30 7 C 1.081582 -0.214787 1.560743 0
M  V30 8 C 0.588693 0.214946 0.346008 0
M  V30 9 C 1.376102 0.580494 -0.728270 0
M  V30 10 N 0.810182 1.010075 -1.960712 0
M  V30 11 C -0.608171 1.075528 -2.057051 0
M  V30 12 N -1.139893 2.281943 -2.282409 0
M  V30 13 C -2.494501 2.430217 -2.382940 0
M  V30 14 C -3.274806 1.275706 -2.239712 0
M  V30 15 C -4.650486 1.169628 -2.296593 0
M  V30 16 C -5.700891 2.040146 -2.493706 0
M  V30 17 C -7.003071 1.530120 -2.477300 0
M  V30 18 N -7.208395 0.204164 -2.269688 0
M  V30 19 C -6.160822 -0.601356 -2.083258 0
M  V30 20 C -4.848126 -0.179279 -2.085099 0
M  V30 21 N -3.743042 -0.885222 -1.910146 0
M  V30 22 C -3.440778 -2.249156 -1.664882 0 CFG=1
M  V30 23 C -4.486277 -3.248439 -2.075778 0
M  V30 24 C -3.609489 -4.510427 -2.276528 0
M  V30 25 C -2.540130 -3.932854 -3.175419 0
M  V30 26 C -2.205814 -2.623935 -2.494471 0 CFG=2
M  V30 27 O -1.112099 -2.821109 -1.668952 0
M  V30 28 C -2.735700 0.031333 -2.006921 0
M  V30 29 N -1.383814 -0.005468 -1.925014 0
M  V30 30 N 2.697845 0.489699 -0.510416 0
M  V30 31 C 3.242098 0.078893 0.649051 0
M  V30 32 C 2.577512 -1.270319 4.090130 0
M  V30 33 C 2.711030 -0.340243 5.268543 0
M  V30 34 N 3.892534 0.487968 5.177919 0
M  V30 35 H 5.581002 1.941731 4.342532 0
M  V30 36 H 6.503986 0.855156 3.263335 0
M  V30 37 H 6.819541 0.884797 5.031474 0
M  V30 38 H 5.627446 -0.718957 6.403639 0
M  V30 39 H 6.649458 -1.404607 5.091725 0
M  V30 40 H 5.068821 -2.123377 5.462398 0
M  V30 41 H 4.897058 -1.802306 3.174632 0
M  V30 42 H 5.202645 -0.286925 2.322233 0
M  V30 43 H 0.506563 -0.506283 2.418334 0
M  V30 44 H -0.489744 0.243518 0.291974 0
M  V30 45 H 1.449474 1.257962 -2.734517 0
M  V30 46 H -2.975305 3.385569 -2.566648 0
M  V30 47 H -5.438340 3.081330 -2.651039 0
M  V30 48 H -7.731737 2.310973 -2.643934 0
M  V30 49 H -6.404897 -1.626766 -1.923025 0
M  V30 50 H -3.187196 -2.357626 -0.577202 0
M  V30 51 H -5.185052 -3.547052 -1.278207 0
M  V30 52 H -4.913248 -3.056356 -3.058220 0
M  V30 53 H -4.179952 -5.333954 -2.720674 0
M  V30 54 H -3.167353 -4.747274 -1.289116 0
M  V30 55 H -3.038334 -3.761548 -4.160926 0
M  V30 56 H -1.659002 -4.597224 -3.291341 0
M  V30 57 H -1.975119 -1.841009 -3.249185 0
M  V30 58 H -1.353038 -2.955291 -0.729926 0
M  V30 59 H 4.317341 0.100076 0.554295 0
M  V30 60 H 1.492539 -1.422427 3.926449 0
M  V30 61 H 2.972443 -2.293481 4.308278 0
M  V30 62 H 2.765878 -0.966837 6.181420 0
M  V30 63 H 1.842810 0.330442 5.417190 0
M  V30 64 H 3.711901 1.469629 4.906298 0
M  V30 END ATOM
M  V30 BEGIN BOND
M  V30 1 1 1 2
M  V30 2 1 2 3
M  V30 3 1 2 4
M  V30 4 1 4 5
M  V30 5 1 5 6
M  V30 6 2 6 7
M  V30 7 1 7 8
M  V30 8 2 8 9
M  V30 9 1 9 10
M  V30 10 1 10 11
M  V30 11 2 11 12
M  V30 12 1 12 13
M  V30 13 2 13 14
M  V30 14 1 14 15
M  V30 15 2 15 16
M  V30 16 1 16 17
M  V30 17 2 17 18
M  V30 18 1 18 19
M  V30 19 2 19 20
M  V30 20 1 20 21
M  V30 21 1 21 22
M  V30 22 1 22 23
M  V30 23 1 23 24
M  V30 24 1 24 25
M  V30 25 1 25 26
M  V30 26 1 26 27
M  V30 27 1 21 28
M  V30 28 2 28 29
M  V30 29 1 9 30
M  V30 30 2 30 31
M  V30 31 1 5 32
M  V30 32 1 32 33
M  V30 33 1 33 34
M  V30 34 1 34 2
M  V30 35 1 31 6
M  V30 36 1 29 11
M  V30 37 1 28 14
M  V30 38 1 20 15
M  V30 39 1 26 22
M  V30 40 1 1 35
M  V30 41 1 1 36
M  V30 42 1 1 37
M  V30 43 1 3 38
M  V30 44 1 3 39
M  V30 45 1 3 40
M  V30 46 1 4 41
M  V30 47 1 4 42
M  V30 48 1 7 43
M  V30 49 1 8 44
M  V30 50 1 10 45
M  V30 51 1 13 46
M  V30 52 1 16 47
M  V30 53 1 17 48
M  V30 54 1 19 49
M  V30 55 1 22 50 CFG=1
M  V30 56 1 23 51
M  V30 57 1 23 52
M  V30 58 1 24 53
M  V30 59 1 24 54
M  V30 60 1 25 55
M  V30 61 1 25 56
M  V30 62 1 26 57 CFG=3
M  V30 63 1 27 58
M  V30 64 1 31 59
M  V30 65 1 32 60
M  V30 66 1 32 61
M  V30 67 1 33 62
M  V30 68 1 33 63
M  V30 69 1 34 64
M  V30 END BOND
M  V30 END CTAB
M  END
>  <Dataset>  (205) 
ChEMBL_Kinases

>  <Ligand_Instance>  (205) 
nan

>  <PDB_ID>  (205) 
nan

>  <Standardized_SMILES>  (205) 
CC1(C)CN(c2ccc(Nc3ncc4c5ccncc5n([C@H]5CCC[C@@H]5O)c4n3)nc2)CCN1

>  <Name>  (205) 
nan

>  <Pocket>  (205) 
nan

>  <ATP_Site>  (205) 
nan

>  <Peripheral>  (205) 
nan

>  <Num_H_Atoms_ProtBoundConf>  (205) 
nan

>  <Num_Resolved_Atoms>  (205) 
nan

>  <Num_Not_Resolved_Atoms>  (205) 
nan

$$$$
CHEMBL3641959
     RDKit          3D

  0  0  0  0  0  0  0  0  0  0999 V3000
M  V30 BEGIN CTAB
M  V30 COUNTS 61 66 0 0 0
M  V30 BEGIN ATOM
M  V30 1 C 2.966727 -4.344180 4.286659 0
M  V30 2 C 3.617489 -3.540176 5.393258 0 CFG=1
M  V30 3 C 4.228813 -2.320794 4.748769 0
M  V30 4 N 3.161092 -1.455830 4.314531 0
M  V30 5 C 2.893433 -1.096508 2.974479 0
M  V30 6 C 3.674201 -1.506370 1.921249 0
M  V30 7 C 3.404210 -1.152720 0.616876 0
M  V30 8 C 2.322038 -0.359134 0.301365 0
M  V30 9 N 2.036838 0.010162 -1.042321 0
M  V30 10 C 0.900369 0.832269 -1.285534 0
M  V30 11 N 0.861428 2.177112 -1.312862 0
M  V30 12 C -0.311128 2.801510 -1.560373 0
M  V30 13 C -1.427009 1.998230 -1.775736 0
M  V30 14 C -2.695051 2.478479 -2.034798 0
M  V30 15 C -3.293815 3.700200 -2.166020 0
M  V30 16 C -4.645147 3.783184 -2.430065 0
M  V30 17 N -5.317165 2.624049 -2.546789 0
M  V30 18 C -4.768529 1.409176 -2.425354 0
M  V30 19 C -3.427350 1.320999 -2.163740 0
M  V30 20 N -2.715290 0.198751 -2.007073 0
M  V30 21 C -2.858812 -1.207856 -2.014931 0 CFG=1
M  V30 22 C -4.128464 -1.817001 -2.447646 0
M  V30 23 C -4.197991 -1.665102 -3.920137 0
M  V30 24 C -2.773549 -1.351797 -4.342391 0
M  V30 25 C -1.931537 -1.753702 -3.120823 0 CFG=2
M  V30 26 O -1.788994 -3.115177 -3.024110 0
M  V30 27 C -1.433015 0.618463 -1.757303 0
M  V30 28 N -0.207819 0.129775 -1.500923 0
M  V30 29 N 1.558053 0.041864 1.332253 0
M  V30 30 C 1.831439 -0.309638 2.600831 0
M  V30 31 C 2.444782 -1.042257 5.482803 0
M  V30 32 C 1.741556 -2.237979 6.096641 0
M  V30 33 N 2.715545 -3.251291 6.463962 0
M  V30 34 H 3.016493 -5.424216 4.540405 0
M  V30 35 H 1.916094 -4.031017 4.145091 0
M  V30 36 H 3.497656 -4.198011 3.317211 0
M  V30 37 H 4.466778 -4.138761 5.815808 0
M  V30 38 H 4.852882 -1.752242 5.481504 0
M  V30 39 H 4.864064 -2.704844 3.911496 0
M  V30 40 H 4.532807 -2.117652 2.031467 0
M  V30 41 H 4.013951 -1.471191 -0.218597 0
M  V30 42 H 2.649434 -0.320305 -1.797851 0
M  V30 43 H -0.361057 3.875760 -1.586368 0
M  V30 44 H -2.705700 4.589787 -2.062181 0
M  V30 45 H -5.145810 4.739476 -2.539193 0
M  V30 46 H -5.408999 0.559589 -2.531781 0
M  V30 47 H -2.499054 -1.653183 -1.023012 0
M  V30 48 H -3.991257 -2.941354 -2.261737 0
M  V30 49 H -5.038393 -1.578428 -1.873480 0
M  V30 50 H -4.910330 -0.905472 -4.255031 0
M  V30 51 H -4.533448 -2.622401 -4.388308 0
M  V30 52 H -2.694520 -0.251518 -4.418048 0
M  V30 53 H -2.452987 -1.898608 -5.238838 0
M  V30 54 H -0.983546 -1.246220 -3.194543 0
M  V30 55 H -0.846091 -3.329747 -2.907818 0
M  V30 56 H 1.130786 0.086958 3.310847 0
M  V30 57 H 1.681550 -0.299490 5.192246 0
M  V30 58 H 3.103933 -0.579815 6.248279 0
M  V30 59 H 0.963677 -2.624902 5.408063 0
M  V30 60 H 1.236257 -1.896735 7.009552 0
M  V30 61 H 2.179666 -4.122785 6.665503 0
M  V30 END ATOM
M  V30 BEGIN BOND
M  V30 1 1 1 2
M  V30 2 1 2 3
M  V30 3 1 3 4
M  V30 4 1 4 5
M  V30 5 2 5 6
M  V30 6 1 6 7
M  V30 7 2 7 8
M  V30 8 1 8 9
M  V30 9 1 9 10
M  V30 10 2 10 11
M  V30 11 1 11 12
M  V30 12 2 12 13
M  V30 13 1 13 14
M  V30 14 2 14 15
M  V30 15 1 15 16
M  V30 16 2 16 17
M  V30 17 1 17 18
M  V30 18 2 18 19
M  V30 19 1 19 20
M  V30 20 1 20 21
M  V30 21 1 21 22
M  V30 22 1 22 23
M  V30 23 1 23 24
M  V30 24 1 24 25
M  V30 25 1 25 26
M  V30 26 1 20 27
M  V30 27 2 27 28
M  V30 28 1 8 29
M  V30 29 2 29 30
M  V30 30 1 4 31
M  V30 31 1 31 32
M  V30 32 1 32 33
M  V30 33 1 33 2
M  V30 34 1 30 5
M  V30 35 1 28 10
M  V30 36 1 27 13
M  V30 37 1 19 14
M  V30 38 1 25 21
M  V30 39 1 1 34
M  V30 40 1 1 35
M  V30 41 1 1 36
M  V30 42 1 2 37 CFG=1
M  V30 43 1 3 38
M  V30 44 1 3 39
M  V30 45 1 6 40
M  V30 46 1 7 41
M  V30 47 1 9 42
M  V30 48 1 12 43
M  V30 49 1 15 44
M  V30 50 1 16 45
M  V30 51 1 18 46
M  V30 52 1 21 47 CFG=1
M  V30 53 1 22 48
M  V30 54 1 22 49
M  V30 55 1 23 50
M  V30 56 1 23 51
M  V30 57 1 24 52
M  V30 58 1 24 53
M  V30 59 1 25 54 CFG=3
M  V30 60 1 26 55
M  V30 61 1 30 56
M  V30 62 1 31 57
M  V30 63 1 31 58
M  V30 64 1 32 59
M  V30 65 1 32 60
M  V30 66 1 33 61
M  V30 END BOND
M  V30 END CTAB
M  END
>  <Dataset>  (206) 
ChEMBL_Kinases

>  <Ligand_Instance>  (206) 
nan

>  <PDB_ID>  (206) 
nan

>  <Standardized_SMILES>  (206) 
C[C@H]1CN(c2ccc(Nc3ncc4c5ccncc5n([C@H]5CCC[C@@H]5O)c4n3)nc2)CCN1

>  <Name>  (206) 
nan

>  <Pocket>  (206) 
nan

>  <ATP_Site>  (206) 
nan

>  <Peripheral>  (206) 
nan

>  <Num_H_Atoms_ProtBoundConf>  (206) 
nan

>  <Num_Resolved_Atoms>  (206) 
nan

>  <Num_Not_Resolved_Atoms>  (206) 
nan

$$$$
CHEMBL3641958
     RDKit          3D

  0  0  0  0  0  0  0  0  0  0999 V3000
M  V30 BEGIN CTAB
M  V30 COUNTS 64 69 0 0 0
M  V30 BEGIN ATOM
M  V30 1 C 5.079109 0.099622 3.865039 0
M  V30 2 N 3.713029 0.479001 3.695730 0
M  V30 3 C 3.389715 1.041369 2.406384 0
M  V30 4 C 3.648673 0.072936 1.295236 0
M  V30 5 C 3.439489 0.788492 -0.032703 0
M  V30 6 N 2.792312 2.061066 0.098996 0
M  V30 7 C 1.538993 2.180384 -0.559843 0
M  V30 8 C 1.083197 2.942797 -1.608558 0
M  V30 9 C -0.229115 2.855186 -2.004131 0
M  V30 10 C -1.144032 2.029045 -1.399461 0
M  V30 11 N -2.535714 1.915312 -1.781485 0
M  V30 12 C -3.312054 0.975589 -0.997920 0
M  V30 13 N -4.535966 1.190145 -0.489858 0
M  V30 14 C -5.126826 0.221465 0.240756 0
M  V30 15 C -4.424484 -0.962730 0.428400 0
M  V30 16 C -4.794908 -2.067949 1.128933 0
M  V30 17 C -5.903714 -2.430747 1.866328 0
M  V30 18 C -6.027391 -3.644954 2.511339 0
M  V30 19 N -4.972430 -4.471413 2.371246 0
M  V30 20 C -3.884401 -4.139630 1.658320 0
M  V30 21 C -3.732829 -2.936333 1.003714 0
M  V30 22 N -2.711616 -2.446231 0.262781 0
M  V30 23 C -1.453304 -3.043278 -0.121308 0 CFG=1
M  V30 24 C -1.469070 -4.533827 -0.223828 0
M  V30 25 C -0.495869 -4.900365 -1.341583 0
M  V30 26 C -0.268880 -3.693396 -2.168215 0
M  V30 27 C -1.214509 -2.669932 -1.590009 0 CFG=2
M  V30 28 O -0.572640 -1.456607 -1.736825 0
M  V30 29 C -3.170744 -1.220882 -0.077231 0
M  V30 30 N -2.676591 -0.190914 -0.786245 0
M  V30 31 N -0.663253 1.287116 -0.364328 0
M  V30 32 C 0.609847 1.334915 0.060415 0
M  V30 33 C 3.575441 2.978010 0.927221 0
M  V30 34 C 4.208131 2.300133 2.114333 0
M  V30 35 H 5.733054 0.990748 3.715968 0
M  V30 36 H 5.353626 -0.737318 3.222413 0
M  V30 37 H 5.166542 -0.266729 4.927096 0
M  V30 38 H 3.045442 -0.274718 3.926765 0
M  V30 39 H 2.340411 1.384604 2.470604 0
M  V30 40 H 2.961812 -0.797091 1.395989 0
M  V30 41 H 4.703737 -0.258814 1.360348 0
M  V30 42 H 4.426368 0.987326 -0.530826 0
M  V30 43 H 2.928690 0.066961 -0.699228 0
M  V30 44 H 1.853769 3.552108 -2.020628 0
M  V30 45 H -0.553221 3.464591 -2.828346 0
M  V30 46 H -2.789931 2.517636 -2.567522 0
M  V30 47 H -6.097129 0.375923 0.651898 0
M  V30 48 H -6.692321 -1.695636 1.914812 0
M  V30 49 H -6.922128 -3.857965 3.068745 0
M  V30 50 H -3.136543 -4.883513 1.651824 0
M  V30 51 H -0.633598 -2.658734 0.509429 0
M  V30 52 H -1.001569 -4.969990 0.682294 0
M  V30 53 H -2.427211 -4.951623 -0.533087 0
M  V30 54 H 0.472437 -5.266551 -0.978258 0
M  V30 55 H -0.894191 -5.722320 -1.987567 0
M  V30 56 H -0.615241 -3.857823 -3.231000 0
M  V30 57 H 0.780029 -3.324052 -2.152920 0
M  V30 58 H -2.220135 -2.701222 -2.083537 0
M  V30 59 H 0.400694 -1.535481 -1.852012 0
M  V30 60 H 0.720547 0.649551 0.886490 0
M  V30 61 H 2.789980 3.660144 1.377770 0
M  V30 62 H 4.246140 3.626455 0.354323 0
M  V30 63 H 5.232963 2.007597 1.819273 0
M  V30 64 H 4.279850 2.947160 3.010969 0
M  V30 END ATOM
M  V30 BEGIN BOND
M  V30 1 1 1 2
M  V30 2 1 2 3
M  V30 3 1 3 4
M  V30 4 1 4 5
M  V30 5 1 5 6
M  V30 6 1 6 7
M  V30 7 2 7 8
M  V30 8 1 8 9
M  V30 9 2 9 10
M  V30 10 1 10 11
M  V30 11 1 11 12
M  V30 12 2 12 13
M  V30 13 1 13 14
M  V30 14 2 14 15
M  V30 15 1 15 16
M  V30 16 2 16 17
M  V30 17 1 17 18
M  V30 18 2 18 19
M  V30 19 1 19 20
M  V30 20 2 20 21
M  V30 21 1 21 22
M  V30 22 1 22 23
M  V30 23 1 23 24
M  V30 24 1 24 25
M  V30 25 1 25 26
M  V30 26 1 26 27
M  V30 27 1 27 28
M  V30 28 1 22 29
M  V30 29 2 29 30
M  V30 30 1 10 31
M  V30 31 2 31 32
M  V30 32 1 6 33
M  V30 33 1 33 34
M  V30 34 1 34 3
M  V30 35 1 32 7
M  V30 36 1 30 12
M  V30 37 1 29 15
M  V30 38 1 21 16
M  V30 39 1 27 23
M  V30 40 1 1 35
M  V30 41 1 1 36
M  V30 42 1 1 37
M  V30 43 1 2 38
M  V30 44 1 3 39
M  V30 45 1 4 40
M  V30 46 1 4 41
M  V30 47 1 5 42
M  V30 48 1 5 43
M  V30 49 1 8 44
M  V30 50 1 9 45
M  V30 51 1 11 46
M  V30 52 1 14 47
M  V30 53 1 17 48
M  V30 54 1 18 49
M  V30 55 1 20 50
M  V30 56 1 23 51 CFG=1
M  V30 57 1 24 52
M  V30 58 1 24 53
M  V30 59 1 25 54
M  V30 60 1 25 55
M  V30 61 1 26 56
M  V30 62 1 26 57
M  V30 63 1 27 58 CFG=3
M  V30 64 1 28 59
M  V30 65 1 32 60
M  V30 66 1 33 61
M  V30 67 1 33 62
M  V30 68 1 34 63
M  V30 69 1 34 64
M  V30 END BOND
M  V30 END CTAB
M  END
>  <Dataset>  (207) 
ChEMBL_Kinases

>  <Ligand_Instance>  (207) 
nan

>  <PDB_ID>  (207) 
nan

>  <Standardized_SMILES>  (207) 
CNC1CCN(c2ccc(Nc3ncc4c5ccncc5n([C@H]5CCC[C@@H]5O)c4n3)nc2)CC1

>  <Name>  (207) 
nan

>  <Pocket>  (207) 
nan

>  <ATP_Site>  (207) 
nan

>  <Peripheral>  (207) 
nan

>  <Num_H_Atoms_ProtBoundConf>  (207) 
nan

>  <Num_Resolved_Atoms>  (207) 
nan

>  <Num_Not_Resolved_Atoms>  (207) 
nan

$$$$
CHEMBL3641957
     RDKit          3D

  0  0  0  0  0  0  0  0  0  0999 V3000
M  V30 BEGIN CTAB
M  V30 COUNTS 67 72 0 0 0
M  V30 BEGIN ATOM
M  V30 1 C 4.434967 2.573678 6.397246 0
M  V30 2 N 5.082369 2.832658 5.133858 0
M  V30 3 C 6.100138 1.794050 4.928608 0
M  V30 4 C 4.149700 2.751915 4.020312 0
M  V30 5 C 3.059395 3.777015 4.231359 0
M  V30 6 C 2.240133 3.994568 2.986517 0
M  V30 7 N 2.648862 3.111548 1.909365 0
M  V30 8 C 1.870149 2.117934 1.263156 0
M  V30 9 C 0.559141 1.852682 1.581696 0
M  V30 10 C -0.090284 0.858568 0.877778 0
M  V30 11 C 0.454123 0.093119 -0.129049 0
M  V30 12 N -0.191823 -0.931104 -0.863084 0
M  V30 13 C -1.524911 -1.389123 -0.722004 0
M  V30 14 N -2.432180 -0.928577 0.148888 0
M  V30 15 C -3.680260 -1.337585 0.302301 0
M  V30 16 C -4.124770 -2.352142 -0.513742 0
M  V30 17 C -5.286814 -3.055286 -0.693188 0
M  V30 18 C -6.504283 -2.937682 -0.025241 0
M  V30 19 C -7.525834 -3.788557 -0.415640 0
M  V30 20 N -7.337898 -4.688795 -1.402200 0
M  V30 21 C -6.136574 -4.786116 -2.042618 0
M  V30 22 C -5.065386 -3.979822 -1.719195 0
M  V30 23 N -3.797693 -3.822115 -2.133691 0
M  V30 24 C -3.204401 -4.601398 -3.182637 0 CFG=1
M  V30 25 C -2.727337 -3.702367 -4.322634 0
M  V30 26 C -1.900641 -4.666243 -5.130929 0
M  V30 27 C -1.258496 -5.564307 -4.114229 0
M  V30 28 C -1.916322 -5.282000 -2.776537 0 CFG=2
M  V30 29 O -2.136564 -6.451235 -2.043118 0
M  V30 30 C -3.215258 -2.848696 -1.421732 0
M  V30 31 N -1.966058 -2.371050 -1.506897 0
M  V30 32 N 1.735614 0.410442 -0.382485 0
M  V30 33 C 2.428334 1.362003 0.259701 0
M  V30 34 C 4.015624 3.446268 1.623599 0
M  V30 35 C 4.916565 2.967950 2.741022 0
M  V30 36 H 3.433526 2.094287 6.248519 0
M  V30 37 H 5.036856 1.860000 6.995379 0
M  V30 38 H 4.346002 3.484528 7.025818 0
M  V30 39 H 6.295574 1.240715 5.887190 0
M  V30 40 H 5.780196 1.031949 4.199709 0
M  V30 41 H 7.058331 2.276657 4.666671 0
M  V30 42 H 3.742689 1.701049 4.056034 0
M  V30 43 H 2.393960 3.356570 5.011310 0
M  V30 44 H 3.530562 4.719965 4.551270 0
M  V30 45 H 2.325690 5.062669 2.693692 0
M  V30 46 H 1.170149 3.817803 3.203990 0
M  V30 47 H 0.048729 2.394836 2.350820 0
M  V30 48 H -1.116408 0.684178 1.160011 0
M  V30 49 H 0.398832 -1.400016 -1.597683 0
M  V30 50 H -4.357094 -0.914480 1.031308 0
M  V30 51 H -6.608390 -2.190093 0.770202 0
M  V30 52 H -8.487279 -3.723624 0.084181 0
M  V30 53 H -5.959122 -5.491167 -2.828736 0
M  V30 54 H -3.876371 -5.397474 -3.562099 0
M  V30 55 H -3.586279 -3.290976 -4.891213 0
M  V30 56 H -2.068424 -2.937756 -3.910215 0
M  V30 57 H -2.568483 -5.210936 -5.829228 0
M  V30 58 H -1.153583 -4.053200 -5.675218 0
M  V30 59 H -0.174289 -5.294219 -4.040158 0
M  V30 60 H -1.312078 -6.610843 -4.421810 0
M  V30 61 H -1.318625 -4.551122 -2.196608 0
M  V30 62 H -1.829467 -6.316305 -1.131086 0
M  V30 63 H 3.436808 1.449774 -0.100458 0
M  V30 64 H 4.417799 3.013741 0.684978 0
M  V30 65 H 4.191655 4.550328 1.508161 0
M  V30 66 H 5.741823 3.681819 2.849502 0
M  V30 67 H 5.406149 2.000935 2.445990 0
M  V30 END ATOM
M  V30 BEGIN BOND
M  V30 1 1 1 2
M  V30 2 1 2 3
M  V30 3 1 2 4
M  V30 4 1 4 5
M  V30 5 1 5 6
M  V30 6 1 6 7
M  V30 7 1 7 8
M  V30 8 2 8 9
M  V30 9 1 9 10
M  V30 10 2 10 11
M  V30 11 1 11 12
M  V30 12 1 12 13
M  V30 13 2 13 14
M  V30 14 1 14 15
M  V30 15 2 15 16
M  V30 16 1 16 17
M  V30 17 2 17 18
M  V30 18 1 18 19
M  V30 19 2 19 20
M  V30 20 1 20 21
M  V30 21 2 21 22
M  V30 22 1 22 23
M  V30 23 1 23 24
M  V30 24 1 24 25
M  V30 25 1 25 26
M  V30 26 1 26 27
M  V30 27 1 27 28
M  V30 28 1 28 29
M  V30 29 1 23 30
M  V30 30 2 30 31
M  V30 31 1 11 32
M  V30 32 2 32 33
M  V30 33 1 7 34
M  V30 34 1 34 35
M  V30 35 1 35 4
M  V30 36 1 33 8
M  V30 37 1 31 13
M  V30 38 1 30 16
M  V30 39 1 22 17
M  V30 40 1 28 24
M  V30 41 1 1 36
M  V30 42 1 1 37
M  V30 43 1 1 38
M  V30 44 1 3 39
M  V30 45 1 3 40
M  V30 46 1 3 41
M  V30 47 1 4 42
M  V30 48 1 5 43
M  V30 49 1 5 44
M  V30 50 1 6 45
M  V30 51 1 6 46
M  V30 52 1 9 47
M  V30 53 1 10 48
M  V30 54 1 12 49
M  V30 55 1 15 50
M  V30 56 1 18 51
M  V30 57 1 19 52
M  V30 58 1 21 53
M  V30 59 1 24 54 CFG=3
M  V30 60 1 25 55
M  V30 61 1 25 56
M  V30 62 1 26 57
M  V30 63 1 26 58
M  V30 64 1 27 59
M  V30 65 1 27 60
M  V30 66 1 28 61 CFG=1
M  V30 67 1 29 62
M  V30 68 1 33 63
M  V30 69 1 34 64
M  V30 70 1 34 65
M  V30 71 1 35 66
M  V30 72 1 35 67
M  V30 END BOND
M  V30 END CTAB
M  END
>  <Dataset>  (208) 
ChEMBL_Kinases

>  <Ligand_Instance>  (208) 
nan

>  <PDB_ID>  (208) 
nan

>  <Standardized_SMILES>  (208) 
CN(C)C1CCN(c2ccc(Nc3ncc4c5ccncc5n([C@H]5CCC[C@@H]5O)c4n3)nc2)CC1

>  <Name>  (208) 
nan

>  <Pocket>  (208) 
nan

>  <ATP_Site>  (208) 
nan

>  <Peripheral>  (208) 
nan

>  <Num_H_Atoms_ProtBoundConf>  (208) 
nan

>  <Num_Resolved_Atoms>  (208) 
nan

>  <Num_Not_Resolved_Atoms>  (208) 
nan

$$$$
CHEMBL3641972
     RDKit          3D

  0  0  0  0  0  0  0  0  0  0999 V3000
M  V30 BEGIN CTAB
M  V30 COUNTS 52 56 0 0 0
M  V30 BEGIN ATOM
M  V30 1 C 0.598422 -1.017441 3.131111 0
M  V30 2 C 1.704533 -2.050749 2.975694 0 CFG=2
M  V30 3 O 2.606551 -1.966444 4.012503 0
M  V30 4 C 2.403296 -1.893297 1.641862 0
M  V30 5 N 2.993211 -0.572393 1.535506 0
M  V30 6 C 4.251131 -0.318748 1.943930 0
M  V30 7 C 5.288382 -1.030408 2.508826 0
M  V30 8 N 6.469167 -0.457109 2.809161 0
M  V30 9 C 6.746866 0.844210 2.590807 0
M  V30 10 C 5.740278 1.621598 2.021123 0
M  V30 11 C 4.532265 1.028088 1.715590 0
M  V30 12 C 3.368914 1.542974 1.152196 0
M  V30 13 C 2.979057 2.793230 0.696409 0
M  V30 14 N 1.749089 3.017158 0.180140 0
M  V30 15 C 0.853717 2.030862 0.089047 0
M  V30 16 N -0.441609 2.263663 -0.453899 0
M  V30 17 C -1.413897 1.229677 -0.561953 0
M  V30 18 C -2.678414 1.460125 -1.092641 0
M  V30 19 C -3.640401 0.472870 -1.208362 0
M  V30 20 C -3.250508 -0.770038 -0.754426 0
M  V30 21 N -4.169291 -1.854070 -0.829867 0
M  V30 22 C -5.526763 -1.830600 -1.343680 0
M  V30 23 C -5.515133 -3.099407 -2.207077 0
M  V30 24 C -4.378019 -3.950495 -1.685406 0 CFG=1
M  V30 25 O -3.294124 -3.859316 -2.567376 0
M  V30 26 C -3.943679 -3.225028 -0.406027 0
M  V30 27 N -2.026836 -0.993336 -0.240797 0
M  V30 28 N -1.115896 -0.033334 -0.137454 0
M  V30 29 N 1.183173 0.798690 0.517720 0
M  V30 30 C 2.416762 0.540258 1.043895 0
M  V30 31 H -0.030818 -1.108827 2.220935 0
M  V30 32 H 1.074973 -0.040348 3.249045 0
M  V30 33 H -0.035299 -1.252852 3.989347 0
M  V30 34 H 1.226215 -3.044328 2.996870 0
M  V30 35 H 2.280569 -1.424694 4.773646 0
M  V30 36 H 3.117537 -2.706050 1.490836 0
M  V30 37 H 1.592447 -1.966333 0.873221 0
M  V30 38 H 5.131447 -2.092896 2.713231 0
M  V30 39 H 7.712455 1.255793 2.850535 0
M  V30 40 H 5.907211 2.672514 1.823337 0
M  V30 41 H 3.677180 3.620481 0.753018 0
M  V30 42 H -0.712129 3.212410 -0.790318 0
M  V30 43 H -2.875559 2.475165 -1.417915 0
M  V30 44 H -4.605858 0.697060 -1.625473 0
M  V30 45 H -6.222766 -1.981587 -0.469853 0
M  V30 46 H -5.783873 -0.942242 -1.919470 0
M  V30 47 H -5.359352 -2.765526 -3.251010 0
M  V30 48 H -6.499383 -3.576113 -2.053556 0
M  V30 49 H -4.684229 -4.993889 -1.482543 0
M  V30 50 H -2.451820 -3.731331 -2.059190 0
M  V30 51 H -2.906377 -3.435902 -0.138094 0
M  V30 52 H -4.678477 -3.488237 0.380535 0
M  V30 END ATOM
M  V30 BEGIN BOND
M  V30 1 1 1 2
M  V30 2 1 2 3
M  V30 3 1 2 4
M  V30 4 1 4 5
M  V30 5 1 5 6
M  V30 6 2 6 7
M  V30 7 1 7 8
M  V30 8 2 8 9
M  V30 9 1 9 10
M  V30 10 2 10 11
M  V30 11 1 11 12
M  V30 12 2 12 13
M  V30 13 1 13 14
M  V30 14 2 14 15
M  V30 15 1 15 16
M  V30 16 1 16 17
M  V30 17 2 17 18
M  V30 18 1 18 19
M  V30 19 2 19 20
M  V30 20 1 20 21
M  V30 21 1 21 22
M  V30 22 1 22 23
M  V30 23 1 23 24
M  V30 24 1 24 25
M  V30 25 1 24 26
M  V30 26 1 20 27
M  V30 27 2 27 28
M  V30 28 1 15 29
M  V30 29 2 29 30
M  V30 30 1 30 5
M  V30 31 1 11 6
M  V30 32 1 30 12
M  V30 33 1 28 17
M  V30 34 1 26 21
M  V30 35 1 1 31
M  V30 36 1 1 32
M  V30 37 1 1 33
M  V30 38 1 2 34 CFG=3
M  V30 39 1 3 35
M  V30 40 1 4 36
M  V30 41 1 4 37
M  V30 42 1 7 38
M  V30 43 1 9 39
M  V30 44 1 10 40
M  V30 45 1 13 41
M  V30 46 1 16 42
M  V30 47 1 18 43
M  V30 48 1 19 44
M  V30 49 1 22 45
M  V30 50 1 22 46
M  V30 51 1 23 47
M  V30 52 1 23 48
M  V30 53 1 24 49 CFG=1
M  V30 54 1 25 50
M  V30 55 1 26 51
M  V30 56 1 26 52
M  V30 END BOND
M  V30 END CTAB
M  END
>  <Dataset>  (209) 
ChEMBL_Kinases

>  <Ligand_Instance>  (209) 
nan

>  <PDB_ID>  (209) 
nan

>  <Standardized_SMILES>  (209) 
C[C@H](O)Cn1c2cnccc2c2cnc(Nc3ccc(N4CC[C@@H](O)C4)nn3)nc21

>  <Name>  (209) 
nan

>  <Pocket>  (209) 
nan

>  <ATP_Site>  (209) 
nan

>  <Peripheral>  (209) 
nan

>  <Num_H_Atoms_ProtBoundConf>  (209) 
nan

>  <Num_Resolved_Atoms>  (209) 
nan

>  <Num_Not_Resolved_Atoms>  (209) 
nan

$$$$
CHEMBL3643962
     RDKit          3D

  0  0  0  0  0  0  0  0  0  0999 V3000
M  V30 BEGIN CTAB
M  V30 COUNTS 50 51 0 0 0
M  V30 BEGIN ATOM
M  V30 1 C 1.282531 -5.378812 4.024582 0
M  V30 2 C 2.371656 -4.702669 3.264256 0
M  V30 3 N 2.102659 -3.357706 2.841459 0
M  V30 4 C 2.504172 -2.357932 3.822375 0
M  V30 5 C 1.415204 -2.023925 4.793048 0
M  V30 6 C 1.502834 -3.299826 1.557566 0
M  V30 7 O 1.456652 -4.521524 1.354110 0
M  V30 8 C 1.019966 -2.319093 0.599589 0
M  V30 9 C 1.015971 -0.959652 0.815709 0
M  V30 10 C 0.556601 -0.093980 -0.142880 0
M  V30 11 C 0.095436 -0.607548 -1.331349 0
M  V30 12 N -0.373320 0.367583 -2.282319 0
M  V30 13 C -0.353903 1.770036 -2.002606 0
M  V30 14 N 0.546176 2.742779 -2.343239 0
M  V30 15 C 0.315937 4.022831 -1.919364 0
M  V30 16 C -0.800175 4.305618 -1.167717 0
M  V30 17 C -1.098986 5.673553 -0.676629 0
M  V30 18 F -2.336428 6.095088 -1.175473 0
M  V30 19 F -1.200483 5.707895 0.699869 0
M  V30 20 F -0.199984 6.625892 -1.133073 0
M  V30 21 C -1.717259 3.327712 -0.817355 0
M  V30 22 N -2.902410 3.570745 -0.031164 0
M  V30 23 C -3.770979 2.447277 0.258013 0
M  V30 24 N -1.450675 2.079339 -1.257458 0
M  V30 25 C 0.101989 -1.986392 -1.541659 0
M  V30 26 O -0.386819 -2.359497 -2.766614 0
M  V30 27 C -0.444351 -3.719010 -3.115121 0
M  V30 28 C 0.561609 -2.861811 -0.587400 0
M  V30 29 H 1.262000 -5.123508 5.121942 0
M  V30 30 H 1.561154 -6.477582 4.043351 0
M  V30 31 H 0.282493 -5.337574 3.578814 0
M  V30 32 H 3.283101 -4.725065 3.933009 0
M  V30 33 H 2.662178 -5.391247 2.425768 0
M  V30 34 H 3.398169 -2.749675 4.363011 0
M  V30 35 H 2.807793 -1.431325 3.301086 0
M  V30 36 H 0.420979 -2.087464 4.347950 0
M  V30 37 H 1.509682 -2.583375 5.747204 0
M  V30 38 H 1.563851 -0.946913 5.100315 0
M  V30 39 H 1.365520 -0.534462 1.737021 0
M  V30 40 H 0.563420 0.954294 0.043736 0
M  V30 41 H -0.723750 -0.037217 -3.179130 0
M  V30 42 H 1.030486 4.775174 -2.191790 0
M  V30 43 H -3.113394 4.530089 0.310297 0
M  V30 44 H -4.585621 2.816099 0.910003 0
M  V30 45 H -4.123144 1.938463 -0.660996 0
M  V30 46 H -3.188771 1.748450 0.904918 0
M  V30 47 H -1.237713 -3.816349 -3.888940 0
M  V30 48 H -0.735261 -4.379318 -2.247176 0
M  V30 49 H 0.528388 -4.045199 -3.494208 0
M  V30 50 H 0.556339 -3.924703 -0.776075 0
M  V30 END ATOM
M  V30 BEGIN BOND
M  V30 1 1 1 2
M  V30 2 1 2 3
M  V30 3 1 3 4
M  V30 4 1 4 5
M  V30 5 1 3 6
M  V30 6 2 6 7
M  V30 7 1 6 8
M  V30 8 2 8 9
M  V30 9 1 9 10
M  V30 10 2 10 11
M  V30 11 1 11 12
M  V30 12 1 12 13
M  V30 13 2 13 14
M  V30 14 1 14 15
M  V30 15 2 15 16
M  V30 16 1 16 17
M  V30 17 1 17 18
M  V30 18 1 17 19
M  V30 19 1 17 20
M  V30 20 1 16 21
M  V30 21 1 21 22
M  V30 22 1 22 23
M  V30 23 2 21 24
M  V30 24 1 11 25
M  V30 25 1 25 26
M  V30 26 1 26 27
M  V30 27 2 25 28
M  V30 28 1 28 8
M  V30 29 1 24 13
M  V30 30 1 1 29
M  V30 31 1 1 30
M  V30 32 1 1 31
M  V30 33 1 2 32
M  V30 34 1 2 33
M  V30 35 1 4 34
M  V30 36 1 4 35
M  V30 37 1 5 36
M  V30 38 1 5 37
M  V30 39 1 5 38
M  V30 40 1 9 39
M  V30 41 1 10 40
M  V30 42 1 12 41
M  V30 43 1 15 42
M  V30 44 1 22 43
M  V30 45 1 23 44
M  V30 46 1 23 45
M  V30 47 1 23 46
M  V30 48 1 27 47
M  V30 49 1 27 48
M  V30 50 1 27 49
M  V30 51 1 28 50
M  V30 END BOND
M  V30 END CTAB
M  END
>  <Dataset>  (210) 
ChEMBL_Kinases

>  <Ligand_Instance>  (210) 
nan

>  <PDB_ID>  (210) 
nan

>  <Standardized_SMILES>  (210) 
CCN(CC)C(=O)c1ccc(Nc2ncc(C(F)(F)F)c(NC)n2)c(OC)c1

>  <Name>  (210) 
nan

>  <Pocket>  (210) 
nan

>  <ATP_Site>  (210) 
nan

>  <Peripheral>  (210) 
nan

>  <Num_H_Atoms_ProtBoundConf>  (210) 
nan

>  <Num_Resolved_Atoms>  (210) 
nan

>  <Num_Not_Resolved_Atoms>  (210) 
nan

$$$$
CHEMBL3643961
     RDKit          3D

  0  0  0  0  0  0  0  0  0  0999 V3000
M  V30 BEGIN CTAB
M  V30 COUNTS 48 50 0 0 0
M  V30 BEGIN ATOM
M  V30 1 C -1.263572 -4.542684 2.483637 0
M  V30 2 N -0.845084 -5.184478 1.253903 0
M  V30 3 C -0.965287 -4.486559 0.029280 0
M  V30 4 N -1.454621 -3.246778 -0.040541 0
M  V30 5 C -1.590762 -2.537084 -1.174474 0
M  V30 6 N -2.134687 -1.236181 -0.959912 0
M  V30 7 C -1.195917 -0.191071 -0.622550 0
M  V30 8 C 0.164061 -0.494802 -0.501358 0
M  V30 9 C 1.116301 0.440270 -0.172762 0
M  V30 10 C 0.751450 1.745847 0.055139 0
M  V30 11 C 1.596142 2.883751 0.423474 0
M  V30 12 O 1.840435 4.009363 -0.067770 0
M  V30 13 N 2.313874 2.633263 1.652300 0
M  V30 14 C 3.260505 3.471676 2.411416 0
M  V30 15 C 2.512941 3.542538 3.753609 0
M  V30 16 C 1.856401 2.154806 3.831956 0
M  V30 17 C 2.343652 1.465450 2.550982 0
M  V30 18 C -0.600905 2.066619 -0.062067 0
M  V30 19 C -1.573510 1.135377 -0.392887 0
M  V30 20 O -2.914520 1.425091 -0.515450 0
M  V30 21 C -3.476752 2.713655 -0.319539 0
M  V30 22 N -1.199346 -3.139730 -2.310734 0
M  V30 23 C -0.707550 -4.370019 -2.292914 0
M  V30 24 C -0.553007 -5.129692 -1.140472 0
M  V30 25 C 0.007929 -6.500087 -1.134653 0
M  V30 26 F 1.157587 -6.579225 -0.369389 0
M  V30 27 F 0.320562 -6.820790 -2.441318 0
M  V30 28 F -0.926797 -7.426808 -0.699471 0
M  V30 29 H -1.178942 -5.207978 3.354513 0
M  V30 30 H -0.654706 -3.635338 2.616796 0
M  V30 31 H -2.325221 -4.258006 2.391000 0
M  V30 32 H -0.463771 -6.151148 1.301115 0
M  V30 33 H -3.132866 -0.914594 -1.010867 0
M  V30 34 H 0.497298 -1.496101 -0.668553 0
M  V30 35 H 2.170552 0.258155 -0.067324 0
M  V30 36 H 4.189817 2.891153 2.561650 0
M  V30 37 H 3.399487 4.459286 1.958447 0
M  V30 38 H 1.744828 4.327285 3.641039 0
M  V30 39 H 3.188192 3.696208 4.602831 0
M  V30 40 H 0.762954 2.296348 3.808194 0
M  V30 41 H 2.118685 1.619346 4.741159 0
M  V30 42 H 3.360175 1.075465 2.699287 0
M  V30 43 H 1.628404 0.686532 2.235383 0
M  V30 44 H -0.987558 3.059395 0.094953 0
M  V30 45 H -4.550263 2.554241 -0.071276 0
M  V30 46 H -3.020519 3.217739 0.553229 0
M  V30 47 H -3.428217 3.343352 -1.231125 0
M  V30 48 H -0.413829 -4.790269 -3.243159 0
M  V30 END ATOM
M  V30 BEGIN BOND
M  V30 1 1 1 2
M  V30 2 1 2 3
M  V30 3 2 3 4
M  V30 4 1 4 5
M  V30 5 1 5 6
M  V30 6 1 6 7
M  V30 7 2 7 8
M  V30 8 1 8 9
M  V30 9 2 9 10
M  V30 10 1 10 11
M  V30 11 2 11 12
M  V30 12 1 11 13
M  V30 13 1 13 14
M  V30 14 1 14 15
M  V30 15 1 15 16
M  V30 16 1 16 17
M  V30 17 1 10 18
M  V30 18 2 18 19
M  V30 19 1 19 20
M  V30 20 1 20 21
M  V30 21 2 5 22
M  V30 22 1 22 23
M  V30 23 2 23 24
M  V30 24 1 24 25
M  V30 25 1 25 26
M  V30 26 1 25 27
M  V30 27 1 25 28
M  V30 28 1 24 3
M  V30 29 1 19 7
M  V30 30 1 17 13
M  V30 31 1 1 29
M  V30 32 1 1 30
M  V30 33 1 1 31
M  V30 34 1 2 32
M  V30 35 1 6 33
M  V30 36 1 8 34
M  V30 37 1 9 35
M  V30 38 1 14 36
M  V30 39 1 14 37
M  V30 40 1 15 38
M  V30 41 1 15 39
M  V30 42 1 16 40
M  V30 43 1 16 41
M  V30 44 1 17 42
M  V30 45 1 17 43
M  V30 46 1 18 44
M  V30 47 1 21 45
M  V30 48 1 21 46
M  V30 49 1 21 47
M  V30 50 1 23 48
M  V30 END BOND
M  V30 END CTAB
M  END
>  <Dataset>  (211) 
ChEMBL_Kinases

>  <Ligand_Instance>  (211) 
nan

>  <PDB_ID>  (211) 
nan

>  <Standardized_SMILES>  (211) 
CNc1nc(Nc2ccc(C(=O)N3CCCC3)cc2OC)ncc1C(F)(F)F

>  <Name>  (211) 
nan

>  <Pocket>  (211) 
nan

>  <ATP_Site>  (211) 
nan

>  <Peripheral>  (211) 
nan

>  <Num_H_Atoms_ProtBoundConf>  (211) 
nan

>  <Num_Resolved_Atoms>  (211) 
nan

>  <Num_Not_Resolved_Atoms>  (211) 
nan

$$$$
CHEMBL3643960
     RDKit          3D

  0  0  0  0  0  0  0  0  0  0999 V3000
M  V30 BEGIN CTAB
M  V30 COUNTS 50 53 0 0 0
M  V30 BEGIN ATOM
M  V30 1 C 2.865548 2.804853 -3.044603 0
M  V30 2 N 2.995062 1.947805 -4.203525 0
M  V30 3 C 2.864911 0.534160 -4.031878 0
M  V30 4 N 2.628276 0.012187 -2.818824 0
M  V30 5 C 2.496351 -1.324378 -2.605193 0
M  V30 6 N 2.253777 -1.636924 -1.236997 0
M  V30 7 C 0.945329 -1.675481 -0.676803 0
M  V30 8 C -0.176299 -1.394242 -1.427872 0
M  V30 9 C -1.476199 -1.408857 -0.929787 0
M  V30 10 C -1.565095 -1.739387 0.428118 0
M  V30 11 C -2.929217 -1.761362 0.974970 0
M  V30 12 O -3.410926 -2.653674 1.733977 0
M  V30 13 N -4.007153 -0.846672 0.811244 0
M  V30 14 C -5.192075 -1.258977 1.538868 0
M  V30 15 C -6.007359 0.005230 1.811741 0
M  V30 16 C -5.094792 1.149505 2.147958 0
M  V30 17 C -5.114348 1.266316 0.639815 0
M  V30 18 C -4.026719 0.366030 0.040855 0
M  V30 19 O -6.352765 0.642949 0.623890 0
M  V30 20 C -0.491190 -2.033382 1.244593 0
M  V30 21 C 0.752388 -1.991254 0.653892 0
M  V30 22 O 1.866704 -2.278095 1.416208 0
M  V30 23 C 1.878902 -2.615356 2.778761 0
M  V30 24 N 2.595341 -2.196974 -3.597860 0
M  V30 25 C 2.832927 -1.719057 -4.835290 0
M  V30 26 C 2.971564 -0.369747 -5.084759 0
M  V30 27 C 3.232254 0.159088 -6.443499 0
M  V30 28 F 2.214526 1.001703 -6.807306 0
M  V30 29 F 3.263554 -0.908402 -7.316290 0
M  V30 30 F 4.446776 0.842034 -6.500458 0
M  V30 31 H 3.658242 2.591546 -2.302023 0
M  V30 32 H 2.884121 3.874999 -3.305913 0
M  V30 33 H 1.863080 2.628603 -2.563237 0
M  V30 34 H 3.179885 2.285952 -5.169835 0
M  V30 35 H 3.064213 -1.847835 -0.614254 0
M  V30 36 H -0.071569 -1.139188 -2.483130 0
M  V30 37 H -2.351855 -1.190653 -1.511518 0
M  V30 38 H -5.781494 -1.956116 0.883859 0
M  V30 39 H -4.968672 -1.711702 2.514924 0
M  V30 40 H -6.840419 -0.202635 2.492314 0
M  V30 41 H -4.099979 0.854528 2.576288 0
M  V30 42 H -5.582827 1.990059 2.666031 0
M  V30 43 H -5.080444 2.274732 0.216860 0
M  V30 44 H -3.107102 0.949258 0.041024 0
M  V30 45 H -4.342090 0.192807 -1.009302 0
M  V30 46 H -0.720115 -2.265707 2.256438 0
M  V30 47 H 2.308258 -1.768366 3.386447 0
M  V30 48 H 0.909631 -2.938527 3.194454 0
M  V30 49 H 2.585523 -3.475655 2.976556 0
M  V30 50 H 2.918248 -2.411997 -5.678446 0
M  V30 END ATOM
M  V30 BEGIN BOND
M  V30 1 1 1 2
M  V30 2 1 2 3
M  V30 3 2 3 4
M  V30 4 1 4 5
M  V30 5 1 5 6
M  V30 6 1 6 7
M  V30 7 2 7 8
M  V30 8 1 8 9
M  V30 9 2 9 10
M  V30 10 1 10 11
M  V30 11 2 11 12
M  V30 12 1 11 13
M  V30 13 1 13 14
M  V30 14 1 14 15
M  V30 15 1 15 16
M  V30 16 1 16 17
M  V30 17 1 17 18
M  V30 18 1 17 19
M  V30 19 1 10 20
M  V30 20 2 20 21
M  V30 21 1 21 22
M  V30 22 1 22 23
M  V30 23 2 5 24
M  V30 24 1 24 25
M  V30 25 2 25 26
M  V30 26 1 26 27
M  V30 27 1 27 28
M  V30 28 1 27 29
M  V30 29 1 27 30
M  V30 30 1 26 3
M  V30 31 1 21 7
M  V30 32 1 18 13
M  V30 33 1 19 15
M  V30 34 1 1 31
M  V30 35 1 1 32
M  V30 36 1 1 33
M  V30 37 1 2 34
M  V30 38 1 6 35
M  V30 39 1 8 36
M  V30 40 1 9 37
M  V30 41 1 14 38
M  V30 42 1 14 39
M  V30 43 1 15 40
M  V30 44 1 16 41
M  V30 45 1 16 42
M  V30 46 1 17 43
M  V30 47 1 18 44
M  V30 48 1 18 45
M  V30 49 1 20 46
M  V30 50 1 23 47
M  V30 51 1 23 48
M  V30 52 1 23 49
M  V30 53 1 25 50
M  V30 END BOND
M  V30 END CTAB
M  END
>  <Dataset>  (212) 
ChEMBL_Kinases

>  <Ligand_Instance>  (212) 
nan

>  <PDB_ID>  (212) 
nan

>  <Standardized_SMILES>  (212) 
CNc1nc(Nc2ccc(C(=O)N3CC4CC(C3)O4)cc2OC)ncc1C(F)(F)F

>  <Name>  (212) 
nan

>  <Pocket>  (212) 
nan

>  <ATP_Site>  (212) 
nan

>  <Peripheral>  (212) 
nan

>  <Num_H_Atoms_ProtBoundConf>  (212) 
nan

>  <Num_Resolved_Atoms>  (212) 
nan

>  <Num_Not_Resolved_Atoms>  (212) 
nan

$$$$
CHEMBL3643959
     RDKit          3D

  0  0  0  0  0  0  0  0  0  0999 V3000
M  V30 BEGIN CTAB
M  V30 COUNTS 53 56 0 0 0
M  V30 BEGIN ATOM
M  V30 1 C -5.223579 -0.119158 -3.568944 0
M  V30 2 N -5.319048 1.344888 -3.462256 0
M  V30 3 C -4.747601 1.926458 -2.304875 0
M  V30 4 N -4.143985 1.206013 -1.342026 0
M  V30 5 C -3.589632 1.732754 -0.232946 0
M  V30 6 N -2.958832 0.927466 0.768239 0
M  V30 7 C -1.574285 0.605802 0.630051 0
M  V30 8 C -0.861800 1.055973 -0.461272 0
M  V30 9 C 0.483822 0.758780 -0.631246 0
M  V30 10 C 1.109336 -0.019359 0.344716 0
M  V30 11 C 2.524265 -0.431263 0.327852 0
M  V30 12 O 3.024405 0.535578 0.956157 0
M  V30 13 N 3.138100 -1.583532 -0.234705 0
M  V30 14 C 2.353919 -2.587966 -0.930220 0
M  V30 15 C 3.243514 -3.748363 -1.295187 0
M  V30 16 C 3.969686 -3.517959 -2.597527 0
M  V30 17 C 5.153326 -2.698059 -2.143107 0
M  V30 18 C 5.131184 -2.826235 -0.629264 0
M  V30 19 C 4.573759 -1.558198 0.004816 0
M  V30 20 O 4.291790 -3.910980 -0.393562 0
M  V30 21 C 0.415598 -0.480289 1.444824 0
M  V30 22 C -0.939963 -0.164124 1.588445 0
M  V30 23 O -1.635618 -0.627711 2.694347 0
M  V30 24 C -1.026414 -1.417331 3.698502 0
M  V30 25 N -3.608610 3.084864 -0.011578 0
M  V30 26 C -4.203802 3.897269 -0.940803 0
M  V30 27 C -4.753220 3.297431 -2.054866 0
M  V30 28 C -5.400974 4.199085 -3.056545 0
M  V30 29 F -5.334767 5.525390 -2.682143 0
M  V30 30 F -6.725543 3.827155 -3.237743 0
M  V30 31 F -4.802338 4.125801 -4.299860 0
M  V30 32 H -4.276343 -0.474767 -3.105304 0
M  V30 33 H -6.035981 -0.628830 -3.022501 0
M  V30 34 H -5.186236 -0.433582 -4.624954 0
M  V30 35 H -5.767853 1.963932 -4.166299 0
M  V30 36 H -3.501716 0.583873 1.582038 0
M  V30 37 H -1.331599 1.660103 -1.226812 0
M  V30 38 H 1.108710 1.073203 -1.455862 0
M  V30 39 H 1.533034 -2.985267 -0.322353 0
M  V30 40 H 1.962422 -2.115700 -1.877135 0
M  V30 41 H 2.678352 -4.700411 -1.374990 0
M  V30 42 H 3.359729 -2.980682 -3.344054 0
M  V30 43 H 4.256743 -4.473484 -3.054686 0
M  V30 44 H 4.968353 -1.629528 -2.382739 0
M  V30 45 H 6.089184 -3.098070 -2.573727 0
M  V30 46 H 6.175318 -3.011180 -0.284659 0
M  V30 47 H 4.816498 -1.493345 1.071773 0
M  V30 48 H 4.962240 -0.663434 -0.540611 0
M  V30 49 H 0.845604 -1.078732 2.220796 0
M  V30 50 H -0.066882 -0.968712 4.049424 0
M  V30 51 H -0.871231 -2.463772 3.428678 0
M  V30 52 H -1.704810 -1.408742 4.579504 0
M  V30 53 H -4.233453 4.962404 -0.792390 0
M  V30 END ATOM
M  V30 BEGIN BOND
M  V30 1 1 1 2
M  V30 2 1 2 3
M  V30 3 2 3 4
M  V30 4 1 4 5
M  V30 5 1 5 6
M  V30 6 1 6 7
M  V30 7 2 7 8
M  V30 8 1 8 9
M  V30 9 2 9 10
M  V30 10 1 10 11
M  V30 11 2 11 12
M  V30 12 1 11 13
M  V30 13 1 13 14
M  V30 14 1 14 15
M  V30 15 1 15 16
M  V30 16 1 16 17
M  V30 17 1 17 18
M  V30 18 1 18 19
M  V30 19 1 18 20
M  V30 20 1 10 21
M  V30 21 2 21 22
M  V30 22 1 22 23
M  V30 23 1 23 24
M  V30 24 2 5 25
M  V30 25 1 25 26
M  V30 26 2 26 27
M  V30 27 1 27 28
M  V30 28 1 28 29
M  V30 29 1 28 30
M  V30 30 1 28 31
M  V30 31 1 27 3
M  V30 32 1 22 7
M  V30 33 1 19 13
M  V30 34 1 20 15
M  V30 35 1 1 32
M  V30 36 1 1 33
M  V30 37 1 1 34
M  V30 38 1 2 35
M  V30 39 1 6 36
M  V30 40 1 8 37
M  V30 41 1 9 38
M  V30 42 1 14 39
M  V30 43 1 14 40
M  V30 44 1 15 41
M  V30 45 1 16 42
M  V30 46 1 16 43
M  V30 47 1 17 44
M  V30 48 1 17 45
M  V30 49 1 18 46
M  V30 50 1 19 47
M  V30 51 1 19 48
M  V30 52 1 21 49
M  V30 53 1 24 50
M  V30 54 1 24 51
M  V30 55 1 24 52
M  V30 56 1 26 53
M  V30 END BOND
M  V30 END CTAB
M  END
>  <Dataset>  (213) 
ChEMBL_Kinases

>  <Ligand_Instance>  (213) 
nan

>  <PDB_ID>  (213) 
nan

>  <Standardized_SMILES>  (213) 
CNc1nc(Nc2ccc(C(=O)N3CC4CCC(C3)O4)cc2OC)ncc1C(F)(F)F

>  <Name>  (213) 
nan

>  <Pocket>  (213) 
nan

>  <ATP_Site>  (213) 
nan

>  <Peripheral>  (213) 
nan

>  <Num_H_Atoms_ProtBoundConf>  (213) 
nan

>  <Num_Resolved_Atoms>  (213) 
nan

>  <Num_Not_Resolved_Atoms>  (213) 
nan

$$$$
CHEMBL3643958
     RDKit          3D

  0  0  0  0  0  0  0  0  0  0999 V3000
M  V30 BEGIN CTAB
M  V30 COUNTS 46 48 0 0 0
M  V30 BEGIN ATOM
M  V30 1 C -2.981913 -3.923871 3.150201 0
M  V30 2 N -2.136417 -4.729372 2.295371 0
M  V30 3 C -1.500207 -4.415965 1.046846 0
M  V30 4 N -1.714770 -3.173035 0.585413 0
M  V30 5 C -1.150686 -2.775822 -0.589157 0
M  V30 6 N -1.205216 -1.567206 -1.324076 0
M  V30 7 C -0.442940 -0.444736 -0.832080 0
M  V30 8 C 0.246148 -0.507340 0.356951 0
M  V30 9 C 0.953349 0.576934 0.829023 0
M  V30 10 C 0.997349 1.769449 0.125225 0
M  V30 11 C 1.716070 2.940667 0.616818 0
M  V30 12 O 1.829156 3.960968 -0.082268 0
M  V30 13 N 2.309875 2.971746 1.899425 0
M  V30 14 C 3.043816 4.016548 2.549098 0
M  V30 15 C 2.493757 4.366480 3.947288 0
M  V30 16 O 3.392475 3.536800 4.572700 0
M  V30 17 C 4.174751 3.550410 3.420552 0
M  V30 18 C 0.304009 1.815875 -1.062632 0
M  V30 19 C -0.415220 0.751642 -1.567998 0
M  V30 20 O -1.112362 0.778780 -2.750755 0
M  V30 21 C -1.191857 1.887287 -3.624391 0
M  V30 22 N -0.395817 -3.671182 -1.231849 0
M  V30 23 C -0.151626 -4.912763 -0.817821 0
M  V30 24 C -0.712355 -5.332836 0.365509 0
M  V30 25 C -0.506274 -6.696959 0.914753 0
M  V30 26 F -1.786607 -7.258881 1.005573 0
M  V30 27 F 0.280438 -7.445693 0.056381 0
M  V30 28 F 0.040495 -6.679774 2.168934 0
M  V30 29 H -2.539516 -3.822411 4.180471 0
M  V30 30 H -3.069587 -2.894716 2.756349 0
M  V30 31 H -3.975322 -4.394955 3.204067 0
M  V30 32 H -1.970095 -5.689763 2.656892 0
M  V30 33 H -1.753492 -1.441006 -2.183482 0
M  V30 34 H 0.199560 -1.457405 0.894536 0
M  V30 35 H 1.468786 0.443326 1.768294 0
M  V30 36 H 2.238833 2.136064 2.527813 0
M  V30 37 H 3.221328 4.925094 1.932387 0
M  V30 38 H 2.560641 5.442549 4.170165 0
M  V30 39 H 1.414940 4.034628 3.959192 0
M  V30 40 H 4.467611 2.499485 3.168177 0
M  V30 41 H 5.049548 4.232098 3.493223 0
M  V30 42 H 0.328577 2.737086 -1.620988 0
M  V30 43 H -0.348670 1.815800 -4.369614 0
M  V30 44 H -2.132122 1.807889 -4.217146 0
M  V30 45 H -1.105436 2.863919 -3.146477 0
M  V30 46 H 0.455290 -5.672302 -1.308994 0
M  V30 END ATOM
M  V30 BEGIN BOND
M  V30 1 1 1 2
M  V30 2 1 2 3
M  V30 3 2 3 4
M  V30 4 1 4 5
M  V30 5 1 5 6
M  V30 6 1 6 7
M  V30 7 2 7 8
M  V30 8 1 8 9
M  V30 9 2 9 10
M  V30 10 1 10 11
M  V30 11 2 11 12
M  V30 12 1 11 13
M  V30 13 1 13 14
M  V30 14 1 14 15
M  V30 15 1 15 16
M  V30 16 1 16 17
M  V30 17 1 10 18
M  V30 18 2 18 19
M  V30 19 1 19 20
M  V30 20 1 20 21
M  V30 21 2 5 22
M  V30 22 1 22 23
M  V30 23 2 23 24
M  V30 24 1 24 25
M  V30 25 1 25 26
M  V30 26 1 25 27
M  V30 27 1 25 28
M  V30 28 1 24 3
M  V30 29 1 19 7
M  V30 30 1 17 14
M  V30 31 1 1 29
M  V30 32 1 1 30
M  V30 33 1 1 31
M  V30 34 1 2 32
M  V30 35 1 6 33
M  V30 36 1 8 34
M  V30 37 1 9 35
M  V30 38 1 13 36
M  V30 39 1 14 37
M  V30 40 1 15 38
M  V30 41 1 15 39
M  V30 42 1 17 40
M  V30 43 1 17 41
M  V30 44 1 18 42
M  V30 45 1 21 43
M  V30 46 1 21 44
M  V30 47 1 21 45
M  V30 48 1 23 46
M  V30 END BOND
M  V30 END CTAB
M  END
>  <Dataset>  (214) 
ChEMBL_Kinases

>  <Ligand_Instance>  (214) 
nan

>  <PDB_ID>  (214) 
nan

>  <Standardized_SMILES>  (214) 
CNc1nc(Nc2ccc(C(=O)NC3COC3)cc2OC)ncc1C(F)(F)F

>  <Name>  (214) 
nan

>  <Pocket>  (214) 
nan

>  <ATP_Site>  (214) 
nan

>  <Peripheral>  (214) 
nan

>  <Num_H_Atoms_ProtBoundConf>  (214) 
nan

>  <Num_Resolved_Atoms>  (214) 
nan

>  <Num_Not_Resolved_Atoms>  (214) 
nan

$$$$
CHEMBL3643957
     RDKit          3D

  0  0  0  0  0  0  0  0  0  0999 V3000
M  V30 BEGIN CTAB
M  V30 COUNTS 45 47 0 0 0
M  V30 BEGIN ATOM
M  V30 1 C -3.866306 -5.080063 2.033226 0
M  V30 2 N -2.603593 -5.685157 1.636370 0
M  V30 3 C -1.483124 -4.938224 1.188116 0
M  V30 4 N -1.599319 -3.625451 1.129935 0
M  V30 5 C -0.621411 -2.799069 0.724957 0
M  V30 6 N -0.848760 -1.398168 0.700749 0
M  V30 7 C 0.021240 -0.349011 0.310361 0
M  V30 8 C 1.307546 -0.528340 -0.145000 0
M  V30 9 C 2.182656 0.460791 -0.534542 0
M  V30 10 C 1.732809 1.762103 -0.464265 0
M  V30 11 C 2.535041 2.921362 -0.839217 0
M  V30 12 O 3.060753 3.221851 -1.961919 0
M  V30 13 N 2.809955 3.914810 0.170436 0
M  V30 14 C 3.527240 5.171608 0.251634 0
M  V30 15 C 3.541234 5.100111 1.741142 0
M  V30 16 F 4.683532 4.592400 2.315961 0
M  V30 17 F 3.077323 6.234664 2.399169 0
M  V30 18 C 2.468573 4.076919 1.585565 0
M  V30 19 C 0.452197 2.001384 -0.015333 0
M  V30 20 C -0.391450 0.984160 0.364877 0
M  V30 21 O -1.673373 1.270405 0.811030 0
M  V30 22 C -2.112807 2.602000 0.875613 0
M  V30 23 N 0.519674 -3.401198 0.370332 0
M  V30 24 C 0.744367 -4.717755 0.390758 0
M  V30 25 C -0.292141 -5.516848 0.814343 0
M  V30 26 C -0.186723 -6.988510 0.887799 0
M  V30 27 F -1.153759 -7.514647 0.052876 0
M  V30 28 F 1.046615 -7.422084 0.444015 0
M  V30 29 F -0.391190 -7.414020 2.192524 0
M  V30 30 H -3.760400 -3.972983 2.146098 0
M  V30 31 H -4.664626 -5.247729 1.267054 0
M  V30 32 H -4.168250 -5.533579 2.979623 0
M  V30 33 H -2.574358 -6.727358 1.703962 0
M  V30 34 H -1.808442 -1.076118 1.019436 0
M  V30 35 H 1.726261 -1.516703 -0.227005 0
M  V30 36 H 3.185843 0.267620 -0.885825 0
M  V30 37 H 4.544986 5.184341 -0.193012 0
M  V30 38 H 2.859840 5.980834 -0.117782 0
M  V30 39 H 1.412137 4.420886 1.644623 0
M  V30 40 H 2.612420 3.111482 2.113792 0
M  V30 41 H 0.082808 3.020032 0.045531 0
M  V30 42 H -1.414665 3.289998 1.401339 0
M  V30 43 H -3.070480 2.692668 1.464239 0
M  V30 44 H -2.311479 2.954617 -0.165517 0
M  V30 45 H 1.690437 -5.157037 0.092076 0
M  V30 END ATOM
M  V30 BEGIN BOND
M  V30 1 1 1 2
M  V30 2 1 2 3
M  V30 3 2 3 4
M  V30 4 1 4 5
M  V30 5 1 5 6
M  V30 6 1 6 7
M  V30 7 2 7 8
M  V30 8 1 8 9
M  V30 9 2 9 10
M  V30 10 1 10 11
M  V30 11 2 11 12
M  V30 12 1 11 13
M  V30 13 1 13 14
M  V30 14 1 14 15
M  V30 15 1 15 16
M  V30 16 1 15 17
M  V30 17 1 15 18
M  V30 18 1 10 19
M  V30 19 2 19 20
M  V30 20 1 20 21
M  V30 21 1 21 22
M  V30 22 2 5 23
M  V30 23 1 23 24
M  V30 24 2 24 25
M  V30 25 1 25 26
M  V30 26 1 26 27
M  V30 27 1 26 28
M  V30 28 1 26 29
M  V30 29 1 25 3
M  V30 30 1 20 7
M  V30 31 1 18 13
M  V30 32 1 1 30
M  V30 33 1 1 31
M  V30 34 1 1 32
M  V30 35 1 2 33
M  V30 36 1 6 34
M  V30 37 1 8 35
M  V30 38 1 9 36
M  V30 39 1 14 37
M  V30 40 1 14 38
M  V30 41 1 18 39
M  V30 42 1 18 40
M  V30 43 1 19 41
M  V30 44 1 22 42
M  V30 45 1 22 43
M  V30 46 1 22 44
M  V30 47 1 24 45
M  V30 END BOND
M  V30 END CTAB
M  END
>  <Dataset>  (215) 
ChEMBL_Kinases

>  <Ligand_Instance>  (215) 
nan

>  <PDB_ID>  (215) 
nan

>  <Standardized_SMILES>  (215) 
CNc1nc(Nc2ccc(C(=O)N3CC(F)(F)C3)cc2OC)ncc1C(F)(F)F

>  <Name>  (215) 
nan

>  <Pocket>  (215) 
nan

>  <ATP_Site>  (215) 
nan

>  <Peripheral>  (215) 
nan

>  <Num_H_Atoms_ProtBoundConf>  (215) 
nan

>  <Num_Resolved_Atoms>  (215) 
nan

>  <Num_Not_Resolved_Atoms>  (215) 
nan

$$$$
CHEMBL3643956
     RDKit          3D

  0  0  0  0  0  0  0  0  0  0999 V3000
M  V30 BEGIN CTAB
M  V30 COUNTS 56 59 0 0 0
M  V30 BEGIN ATOM
M  V30 1 C 3.064631 -2.401159 4.068305 0
M  V30 2 N 2.520281 -3.727676 3.835789 0
M  V30 3 C 1.611537 -4.211103 2.858040 0
M  V30 4 N 1.101659 -3.390903 1.939021 0
M  V30 5 C 0.240953 -3.730154 0.974215 0
M  V30 6 N -0.290821 -2.848424 0.000541 0
M  V30 7 C -0.026729 -1.481550 -0.171541 0
M  V30 8 C 0.835070 -0.734382 0.587480 0
M  V30 9 C 1.091439 0.602102 0.405933 0
M  V30 10 C 0.455459 1.286454 -0.605792 0
M  V30 11 C 0.738062 2.704373 -0.786789 0
M  V30 12 O 1.435891 3.300117 -1.647941 0
M  V30 13 N 0.169117 3.640424 0.117353 0
M  V30 14 C 0.394901 5.066271 0.012285 0
M  V30 15 C 0.508608 5.622694 1.409439 0
M  V30 16 O -0.598833 5.420774 2.195826 0
M  V30 17 C -1.421015 4.388576 1.822569 0
M  V30 18 C -0.685476 3.218504 1.215120 0
M  V30 19 C -0.428333 0.542655 -1.392072 0
M  V30 20 C -0.678557 -0.823876 -1.192144 0
M  V30 21 O -1.538360 -1.243741 -2.067880 0
M  V30 22 C -2.325138 -2.104130 -2.685323 0
M  V30 23 C -2.174646 -2.203431 -4.232503 0
M  V30 24 C -3.648501 -2.560978 -4.235051 0
M  V30 25 C -3.754031 -1.605852 -3.042374 0
M  V30 26 N -0.095289 -5.027293 0.993576 0
M  V30 27 C 0.359818 -5.929561 1.871744 0
M  V30 28 C 1.242117 -5.529532 2.843023 0
M  V30 29 C 1.783321 -6.453720 3.837369 0
M  V30 30 F 3.154637 -6.556728 3.805857 0
M  V30 31 F 1.390215 -6.049888 5.085876 0
M  V30 32 F 1.260663 -7.719612 3.584115 0
M  V30 33 H 4.145838 -2.414006 4.258955 0
M  V30 34 H 2.492599 -1.835367 4.828226 0
M  V30 35 H 2.931724 -1.857697 3.104605 0
M  V30 36 H 2.909535 -4.385679 4.550075 0
M  V30 37 H -0.953720 -3.315977 -0.647309 0
M  V30 38 H 1.382070 -1.175817 1.403453 0
M  V30 39 H 1.775800 1.142165 1.028181 0
M  V30 40 H -0.473319 5.572208 -0.484954 0
M  V30 41 H 1.314312 5.327287 -0.525709 0
M  V30 42 H 0.606561 6.738286 1.282181 0
M  V30 43 H 1.451152 5.289440 1.889247 0
M  V30 44 H -2.203605 4.796212 1.143216 0
M  V30 45 H -1.937943 4.016788 2.729692 0
M  V30 46 H -0.067225 2.748053 1.995937 0
M  V30 47 H -1.450625 2.545072 0.788678 0
M  V30 48 H -0.876932 1.184752 -2.164147 0
M  V30 49 H -2.455307 -3.166765 -2.358556 0
M  V30 50 H -1.490426 -3.008440 -4.524056 0
M  V30 51 H -2.038600 -1.210300 -4.708676 0
M  V30 52 H -4.211490 -2.274232 -5.124700 0
M  V30 53 H -3.785575 -3.595085 -3.852813 0
M  V30 54 H -3.663965 -0.578229 -3.414712 0
M  V30 55 H -4.507417 -1.843307 -2.297304 0
M  V30 56 H 0.037414 -6.964478 1.819271 0
M  V30 END ATOM
M  V30 BEGIN BOND
M  V30 1 1 1 2
M  V30 2 1 2 3
M  V30 3 2 3 4
M  V30 4 1 4 5
M  V30 5 1 5 6
M  V30 6 1 6 7
M  V30 7 2 7 8
M  V30 8 1 8 9
M  V30 9 2 9 10
M  V30 10 1 10 11
M  V30 11 2 11 12
M  V30 12 1 11 13
M  V30 13 1 13 14
M  V30 14 1 14 15
M  V30 15 1 15 16
M  V30 16 1 16 17
M  V30 17 1 17 18
M  V30 18 1 10 19
M  V30 19 2 19 20
M  V30 20 1 20 21
M  V30 21 1 21 22
M  V30 22 1 22 23
M  V30 23 1 23 24
M  V30 24 1 24 25
M  V30 25 2 5 26
M  V30 26 1 26 27
M  V30 27 2 27 28
M  V30 28 1 28 29
M  V30 29 1 29 30
M  V30 30 1 29 31
M  V30 31 1 29 32
M  V30 32 1 28 3
M  V30 33 1 20 7
M  V30 34 1 25 22
M  V30 35 1 18 13
M  V30 36 1 1 33
M  V30 37 1 1 34
M  V30 38 1 1 35
M  V30 39 1 2 36
M  V30 40 1 6 37
M  V30 41 1 8 38
M  V30 42 1 9 39
M  V30 43 1 14 40
M  V30 44 1 14 41
M  V30 45 1 15 42
M  V30 46 1 15 43
M  V30 47 1 17 44
M  V30 48 1 17 45
M  V30 49 1 18 46
M  V30 50 1 18 47
M  V30 51 1 19 48
M  V30 52 1 22 49
M  V30 53 1 23 50
M  V30 54 1 23 51
M  V30 55 1 24 52
M  V30 56 1 24 53
M  V30 57 1 25 54
M  V30 58 1 25 55
M  V30 59 1 27 56
M  V30 END BOND
M  V30 END CTAB
M  END
>  <Dataset>  (216) 
ChEMBL_Kinases

>  <Ligand_Instance>  (216) 
nan

>  <PDB_ID>  (216) 
nan

>  <Standardized_SMILES>  (216) 
CNc1nc(Nc2ccc(C(=O)N3CCOCC3)cc2OC2CCC2)ncc1C(F)(F)F

>  <Name>  (216) 
nan

>  <Pocket>  (216) 
nan

>  <ATP_Site>  (216) 
nan

>  <Peripheral>  (216) 
nan

>  <Num_H_Atoms_ProtBoundConf>  (216) 
nan

>  <Num_Resolved_Atoms>  (216) 
nan

>  <Num_Not_Resolved_Atoms>  (216) 
nan

$$$$
CHEMBL3643955
     RDKit          3D

  0  0  0  0  0  0  0  0  0  0999 V3000
M  V30 BEGIN CTAB
M  V30 COUNTS 52 55 0 0 0
M  V30 BEGIN ATOM
M  V30 1 O -2.090685 -3.818323 0.191958 0
M  V30 2 C -2.270604 -3.345545 -0.957800 0
M  V30 3 C -1.075944 -2.533072 -1.146807 0
M  V30 4 C -1.024959 -1.324690 -0.480084 0
M  V30 5 C 0.100856 -0.545236 -0.651497 0
M  V30 6 C 1.072838 -1.062461 -1.482408 0
M  V30 7 N 2.230522 -0.246655 -1.614481 0
M  V30 8 C 2.401651 1.029300 -1.005833 0
M  V30 9 N 2.456383 2.261113 -1.506605 0
M  V30 10 C 2.605164 3.336450 -0.713988 0
M  V30 11 C 2.707653 3.221681 0.647656 0
M  V30 12 C 2.860544 4.461811 1.437052 0
M  V30 13 F 2.851128 5.574471 0.603449 0
M  V30 14 F 4.090419 4.485658 2.092170 0
M  V30 15 F 1.813463 4.611572 2.324392 0
M  V30 16 C 2.652753 1.947861 1.185827 0
M  V30 17 N 2.767230 1.744507 2.611903 0
M  V30 18 C 1.787432 0.773332 3.113997 0
M  V30 19 C 2.020454 0.624736 4.579017 0
M  V30 20 C 3.446470 1.058298 4.745185 0
M  V30 21 C 3.554204 2.177758 3.718904 0
M  V30 22 N 2.504532 0.959115 0.310794 0
M  V30 23 C 1.031382 -2.250619 -2.142692 0
M  V30 24 Br 2.497475 -2.766317 -3.245012 0
M  V30 25 C -0.092179 -3.038249 -1.978679 0
M  V30 26 N -3.404271 -4.079718 -0.852376 0
M  V30 27 C -3.894397 -4.934675 0.207610 0
M  V30 28 C -5.126777 -4.265422 0.794001 0
M  V30 29 O -5.554666 -3.238768 -0.007321 0
M  V30 30 C -5.641564 -3.517864 -1.351650 0
M  V30 31 C -4.338425 -4.008471 -1.966843 0
M  V30 32 H -1.854114 -1.020345 0.150326 0
M  V30 33 H 0.173791 0.397969 -0.146658 0
M  V30 34 H 3.061674 -0.533408 -2.187312 0
M  V30 35 H 2.632143 4.266078 -1.271482 0
M  V30 36 H 0.782046 1.199066 2.896137 0
M  V30 37 H 1.901090 -0.169722 2.582389 0
M  V30 38 H 1.328499 1.252311 5.177598 0
M  V30 39 H 1.929908 -0.438595 4.888628 0
M  V30 40 H 3.671294 1.473147 5.738758 0
M  V30 41 H 4.162325 0.230205 4.534836 0
M  V30 42 H 4.631371 2.297588 3.452019 0
M  V30 43 H 3.168874 3.081877 4.184855 0
M  V30 44 H -0.164707 -3.980579 -2.505192 0
M  V30 45 H -3.124829 -5.174532 0.947138 0
M  V30 46 H -4.255587 -5.878897 -0.283459 0
M  V30 47 H -5.900050 -5.021271 1.054534 0
M  V30 48 H -4.828426 -3.824261 1.785792 0
M  V30 49 H -6.448807 -4.294605 -1.487740 0
M  V30 50 H -5.937127 -2.557672 -1.857705 0
M  V30 51 H -4.509253 -5.059616 -2.311605 0
M  V30 52 H -3.993859 -3.432861 -2.818003 0
M  V30 END ATOM
M  V30 BEGIN BOND
M  V30 1 2 1 2
M  V30 2 1 2 3
M  V30 3 2 3 4
M  V30 4 1 4 5
M  V30 5 2 5 6
M  V30 6 1 6 7
M  V30 7 1 7 8
M  V30 8 2 8 9
M  V30 9 1 9 10
M  V30 10 2 10 11
M  V30 11 1 11 12
M  V30 12 1 12 13
M  V30 13 1 12 14
M  V30 14 1 12 15
M  V30 15 1 11 16
M  V30 16 1 16 17
M  V30 17 1 17 18
M  V30 18 1 18 19
M  V30 19 1 19 20
M  V30 20 1 20 21
M  V30 21 2 16 22
M  V30 22 1 6 23
M  V30 23 1 23 24
M  V30 24 2 23 25
M  V30 25 1 2 26
M  V30 26 1 26 27
M  V30 27 1 27 28
M  V30 28 1 28 29
M  V30 29 1 29 30
M  V30 30 1 30 31
M  V30 31 1 25 3
M  V30 32 1 31 26
M  V30 33 1 22 8
M  V30 34 1 21 17
M  V30 35 1 4 32
M  V30 36 1 5 33
M  V30 37 1 7 34
M  V30 38 1 10 35
M  V30 39 1 18 36
M  V30 40 1 18 37
M  V30 41 1 19 38
M  V30 42 1 19 39
M  V30 43 1 20 40
M  V30 44 1 20 41
M  V30 45 1 21 42
M  V30 46 1 21 43
M  V30 47 1 25 44
M  V30 48 1 27 45
M  V30 49 1 27 46
M  V30 50 1 28 47
M  V30 51 1 28 48
M  V30 52 1 30 49
M  V30 53 1 30 50
M  V30 54 1 31 51
M  V30 55 1 31 52
M  V30 END BOND
M  V30 END CTAB
M  END
>  <Dataset>  (217) 
ChEMBL_Kinases

>  <Ligand_Instance>  (217) 
nan

>  <PDB_ID>  (217) 
nan

>  <Standardized_SMILES>  (217) 
O=C(c1ccc(Nc2ncc(C(F)(F)F)c(N3CCCC3)n2)c(Br)c1)N1CCOCC1

>  <Name>  (217) 
nan

>  <Pocket>  (217) 
nan

>  <ATP_Site>  (217) 
nan

>  <Peripheral>  (217) 
nan

>  <Num_H_Atoms_ProtBoundConf>  (217) 
nan

>  <Num_Resolved_Atoms>  (217) 
nan

>  <Num_Not_Resolved_Atoms>  (217) 
nan

$$$$
CHEMBL3643954
     RDKit          3D

  0  0  0  0  0  0  0  0  0  0999 V3000
M  V30 BEGIN CTAB
M  V30 COUNTS 55 57 0 0 0
M  V30 BEGIN ATOM
M  V30 1 C 2.765756 0.295001 4.353780 0
M  V30 2 N 2.868875 -0.950810 5.091698 0
M  V30 3 C 2.447257 -2.237655 4.649441 0
M  V30 4 N 1.890857 -2.399597 3.445954 0
M  V30 5 C 1.454231 -3.534930 2.908910 0
M  V30 6 N 0.864437 -3.702130 1.628851 0
M  V30 7 C 0.616123 -2.711746 0.646915 0
M  V30 8 C 0.913696 -1.378240 0.766160 0
M  V30 9 C 0.677760 -0.406648 -0.181276 0
M  V30 10 O 0.998358 0.923043 -0.007868 0
M  V30 11 C 1.593826 1.478796 1.119017 0
M  V30 12 C 0.093295 -0.771094 -1.363322 0
M  V30 13 C -0.176952 0.207750 -2.392490 0
M  V30 14 O 0.738977 0.394545 -3.233241 0
M  V30 15 N -1.418232 0.891225 -2.409954 0
M  V30 16 C -2.485935 0.687219 -1.447237 0
M  V30 17 C -3.714954 1.348496 -2.087434 0
M  V30 18 C -4.963503 1.055202 -1.310063 0
M  V30 19 O -3.794974 0.856161 -3.386844 0
M  V30 20 C -2.859163 1.437671 -4.229864 0
M  V30 21 C -2.483230 0.483204 -5.362849 0
M  V30 22 C -1.634143 1.864021 -3.466150 0
M  V30 23 C -0.230591 -2.099264 -1.544951 0
M  V30 24 C 0.027877 -3.025912 -0.564995 0
M  V30 25 Cl -0.418356 -4.704430 -0.878272 0
M  V30 26 N 1.604398 -4.614972 3.687779 0
M  V30 27 C 2.148545 -4.570837 4.910943 0
M  V30 28 C 2.581852 -3.373605 5.415386 0
M  V30 29 C 3.192098 -3.262252 6.762468 0
M  V30 30 F 2.418813 -2.392602 7.540371 0
M  V30 31 F 4.466258 -2.739161 6.735817 0
M  V30 32 F 3.215916 -4.512008 7.375172 0
M  V30 33 H 1.871617 0.175926 3.693691 0
M  V30 34 H 2.581742 1.143380 5.031883 0
M  V30 35 H 3.669740 0.388092 3.735364 0
M  V30 36 H 3.296444 -0.881905 6.038547 0
M  V30 37 H 0.567896 -4.669763 1.354360 0
M  V30 38 H 1.375722 -1.001834 1.663419 0
M  V30 39 H 0.860632 1.516605 1.976557 0
M  V30 40 H 2.553045 1.051038 1.419207 0
M  V30 41 H 1.775561 2.567201 0.895710 0
M  V30 42 H -2.208522 1.232945 -0.520357 0
M  V30 43 H -2.689754 -0.359319 -1.220718 0
M  V30 44 H -3.602812 2.434323 -2.127101 0
M  V30 45 H -5.552596 0.278450 -1.832952 0
M  V30 46 H -4.681700 0.729725 -0.272518 0
M  V30 47 H -5.583738 1.973571 -1.157059 0
M  V30 48 H -3.372158 2.313082 -4.700901 0
M  V30 49 H -1.748209 -0.252706 -4.972834 0
M  V30 50 H -2.133113 1.032363 -6.257083 0
M  V30 51 H -3.385362 -0.117870 -5.652843 0
M  V30 52 H -0.747224 1.985219 -4.111512 0
M  V30 53 H -1.838305 2.885157 -3.044378 0
M  V30 54 H -0.694025 -2.419286 -2.469322 0
M  V30 55 H 2.231031 -5.479770 5.466234 0
M  V30 END ATOM
M  V30 BEGIN BOND
M  V30 1 1 1 2
M  V30 2 1 2 3
M  V30 3 2 3 4
M  V30 4 1 4 5
M  V30 5 1 5 6
M  V30 6 1 6 7
M  V30 7 2 7 8
M  V30 8 1 8 9
M  V30 9 1 9 10
M  V30 10 1 10 11
M  V30 11 2 9 12
M  V30 12 1 12 13
M  V30 13 2 13 14
M  V30 14 1 13 15
M  V30 15 1 15 16
M  V30 16 1 16 17
M  V30 17 1 17 18
M  V30 18 1 17 19
M  V30 19 1 19 20
M  V30 20 1 20 21
M  V30 21 1 20 22
M  V30 22 1 12 23
M  V30 23 2 23 24
M  V30 24 1 24 25
M  V30 25 2 5 26
M  V30 26 1 26 27
M  V30 27 2 27 28
M  V30 28 1 28 29
M  V30 29 1 29 30
M  V30 30 1 29 31
M  V30 31 1 29 32
M  V30 32 1 28 3
M  V30 33 1 24 7
M  V30 34 1 22 15
M  V30 35 1 1 33
M  V30 36 1 1 34
M  V30 37 1 1 35
M  V30 38 1 2 36
M  V30 39 1 6 37
M  V30 40 1 8 38
M  V30 41 1 11 39
M  V30 42 1 11 40
M  V30 43 1 11 41
M  V30 44 1 16 42
M  V30 45 1 16 43
M  V30 46 1 17 44
M  V30 47 1 18 45
M  V30 48 1 18 46
M  V30 49 1 18 47
M  V30 50 1 20 48
M  V30 51 1 21 49
M  V30 52 1 21 50
M  V30 53 1 21 51
M  V30 54 1 22 52
M  V30 55 1 22 53
M  V30 56 1 23 54
M  V30 57 1 27 55
M  V30 END BOND
M  V30 END CTAB
M  END
>  <Dataset>  (218) 
ChEMBL_Kinases

>  <Ligand_Instance>  (218) 
nan

>  <PDB_ID>  (218) 
nan

>  <Standardized_SMILES>  (218) 
CNc1nc(Nc2cc(OC)c(C(=O)N3CC(C)OC(C)C3)cc2Cl)ncc1C(F)(F)F

>  <Name>  (218) 
nan

>  <Pocket>  (218) 
nan

>  <ATP_Site>  (218) 
nan

>  <Peripheral>  (218) 
nan

>  <Num_H_Atoms_ProtBoundConf>  (218) 
nan

>  <Num_Resolved_Atoms>  (218) 
nan

>  <Num_Not_Resolved_Atoms>  (218) 
nan

$$$$
CHEMBL3643953
     RDKit          3D

  0  0  0  0  0  0  0  0  0  0999 V3000
M  V30 BEGIN CTAB
M  V30 COUNTS 41 42 0 0 0
M  V30 BEGIN ATOM
M  V30 1 C 2.182994 -6.440214 2.251735 0
M  V30 2 N 1.689434 -5.161083 1.842407 0
M  V30 3 C 2.446046 -4.292645 1.045753 0
M  V30 4 O 3.564370 -4.841650 0.791286 0
M  V30 5 C 2.154765 -2.982877 0.523507 0
M  V30 6 C 3.122285 -2.369321 -0.235050 0
M  V30 7 C 2.964472 -1.119992 -0.782549 0
M  V30 8 Cl 4.247573 -0.408644 -1.738406 0
M  V30 9 C 1.791739 -0.385548 -0.598301 0
M  V30 10 N 1.643598 0.913341 -1.158575 0
M  V30 11 C 0.429410 1.634979 -0.978423 0
M  V30 12 N -0.484005 2.063141 -1.890533 0
M  V30 13 C -1.565684 2.725968 -1.448321 0
M  V30 14 C -1.848998 3.021196 -0.133468 0
M  V30 15 C -3.066027 3.760011 0.288158 0
M  V30 16 F -3.805753 4.065341 -0.842316 0
M  V30 17 F -3.811451 3.003501 1.188974 0
M  V30 18 F -2.649994 4.900902 0.954925 0
M  V30 19 C -0.906871 2.574008 0.761512 0
M  V30 20 N -1.076992 2.809721 2.168177 0
M  V30 21 C -0.061464 2.317021 3.092378 0
M  V30 22 N 0.170342 1.913615 0.311545 0
M  V30 23 C 0.810803 -0.984698 0.158666 0
M  V30 24 C 1.010389 -2.238923 0.689201 0
M  V30 25 O -0.007309 -2.796895 1.442980 0
M  V30 26 C -1.237640 -2.195606 1.720159 0
M  V30 27 H 1.740654 -7.273657 1.639628 0
M  V30 28 H 3.281677 -6.474641 2.229018 0
M  V30 29 H 1.869309 -6.651380 3.313045 0
M  V30 30 H 0.744116 -4.824700 2.122295 0
M  V30 31 H 4.063235 -2.864051 -0.431026 0
M  V30 32 H 2.468209 1.299174 -1.703506 0
M  V30 33 H -2.270789 3.049856 -2.219930 0
M  V30 34 H -1.908616 3.323577 2.528711 0
M  V30 35 H 0.294256 3.081491 3.799216 0
M  V30 36 H 0.828866 1.960313 2.512327 0
M  V30 37 H -0.404447 1.410285 3.645723 0
M  V30 38 H -0.130723 -0.460248 0.338758 0
M  V30 39 H -1.158450 -1.161188 2.117869 0
M  V30 40 H -1.752371 -2.789033 2.485624 0
M  V30 41 H -1.818121 -2.206500 0.751907 0
M  V30 END ATOM
M  V30 BEGIN BOND
M  V30 1 1 1 2
M  V30 2 1 2 3
M  V30 3 2 3 4
M  V30 4 1 3 5
M  V30 5 2 5 6
M  V30 6 1 6 7
M  V30 7 1 7 8
M  V30 8 2 7 9
M  V30 9 1 9 10
M  V30 10 1 10 11
M  V30 11 2 11 12
M  V30 12 1 12 13
M  V30 13 2 13 14
M  V30 14 1 14 15
M  V30 15 1 15 16
M  V30 16 1 15 17
M  V30 17 1 15 18
M  V30 18 1 14 19
M  V30 19 1 19 20
M  V30 20 1 20 21
M  V30 21 2 19 22
M  V30 22 1 9 23
M  V30 23 2 23 24
M  V30 24 1 24 25
M  V30 25 1 25 26
M  V30 26 1 24 5
M  V30 27 1 22 11
M  V30 28 1 1 27
M  V30 29 1 1 28
M  V30 30 1 1 29
M  V30 31 1 2 30
M  V30 32 1 6 31
M  V30 33 1 10 32
M  V30 34 1 13 33
M  V30 35 1 20 34
M  V30 36 1 21 35
M  V30 37 1 21 36
M  V30 38 1 21 37
M  V30 39 1 23 38
M  V30 40 1 26 39
M  V30 41 1 26 40
M  V30 42 1 26 41
M  V30 END BOND
M  V30 END CTAB
M  END
>  <Dataset>  (219) 
ChEMBL_Kinases

>  <Ligand_Instance>  (219) 
nan

>  <PDB_ID>  (219) 
nan

>  <Standardized_SMILES>  (219) 
CNC(=O)c1cc(Cl)c(Nc2ncc(C(F)(F)F)c(NC)n2)cc1OC

>  <Name>  (219) 
nan

>  <Pocket>  (219) 
nan

>  <ATP_Site>  (219) 
nan

>  <Peripheral>  (219) 
nan

>  <Num_H_Atoms_ProtBoundConf>  (219) 
nan

>  <Num_Resolved_Atoms>  (219) 
nan

>  <Num_Not_Resolved_Atoms>  (219) 
nan

$$$$
CHEMBL3643952
     RDKit          3D

  0  0  0  0  0  0  0  0  0  0999 V3000
M  V30 BEGIN CTAB
M  V30 COUNTS 46 48 0 0 0
M  V30 BEGIN ATOM
M  V30 1 C -1.644092 -3.749115 0.585831 0
M  V30 2 N -0.630175 -4.659550 1.118494 0
M  V30 3 C 0.258815 -4.273351 2.177482 0
M  V30 4 N 0.175547 -3.038923 2.687162 0
M  V30 5 C 0.944304 -2.547687 3.672178 0
M  V30 6 N 0.699334 -1.171467 4.023819 0
M  V30 7 C 0.423017 -0.101764 3.108803 0
M  V30 8 C 0.488098 -0.333097 1.747101 0
M  V30 9 C 0.280961 0.588644 0.733260 0
M  V30 10 O 0.350302 0.343847 -0.594188 0
M  V30 11 C 0.639947 -0.864709 -1.246096 0
M  V30 12 C -0.027156 1.894444 1.142836 0
M  V30 13 C -0.282002 3.041407 0.281244 0
M  V30 14 O -0.548664 4.171195 0.762974 0
M  V30 15 N -0.280409 3.104944 -1.124060 0
M  V30 16 C -0.521453 4.181614 -2.015425 0
M  V30 17 C -1.810568 4.881156 -1.990982 0
M  V30 18 N -2.847145 5.443916 -1.985814 0
M  V30 19 C 0.050484 4.003018 -3.465698 0
M  V30 20 C 0.646491 5.021676 -2.569399 0
M  V30 21 C -0.100772 2.159670 2.513262 0
M  V30 22 C 0.117724 1.190588 3.463118 0
M  V30 23 Cl 0.019625 1.520539 5.183640 0
M  V30 24 N 1.885404 -3.321329 4.223276 0
M  V30 25 C 2.026030 -4.581996 3.755296 0
M  V30 26 C 1.222501 -5.091980 2.725175 0
M  V30 27 C 1.373525 -6.456720 2.201377 0
M  V30 28 F 2.397846 -7.109781 2.891150 0
M  V30 29 F 0.238218 -7.213800 2.392061 0
M  V30 30 F 1.767129 -6.463289 0.870871 0
M  V30 31 H -2.625041 -4.288675 0.447624 0
M  V30 32 H -1.320736 -3.303698 -0.354947 0
M  V30 33 H -1.859349 -2.941159 1.337787 0
M  V30 34 H -0.609658 -5.596280 0.668053 0
M  V30 35 H 0.711173 -0.870015 5.022261 0
M  V30 36 H 0.723285 -1.286325 1.319746 0
M  V30 37 H -0.044140 -1.007996 -2.133874 0
M  V30 38 H 1.709199 -0.865451 -1.610245 0
M  V30 39 H 0.542445 -1.755989 -0.625180 0
M  V30 40 H -0.076310 2.213702 -1.623619 0
M  V30 41 H -0.641894 4.252622 -4.290792 0
M  V30 42 H 0.572100 3.012114 -3.615567 0
M  V30 43 H 0.394378 6.076804 -2.878937 0
M  V30 44 H 1.637733 4.817004 -2.159851 0
M  V30 45 H -0.332271 3.144466 2.914828 0
M  V30 46 H 2.794519 -5.215692 4.201868 0
M  V30 END ATOM
M  V30 BEGIN BOND
M  V30 1 1 1 2
M  V30 2 1 2 3
M  V30 3 2 3 4
M  V30 4 1 4 5
M  V30 5 1 5 6
M  V30 6 1 6 7
M  V30 7 2 7 8
M  V30 8 1 8 9
M  V30 9 1 9 10
M  V30 10 1 10 11
M  V30 11 2 9 12
M  V30 12 1 12 13
M  V30 13 2 13 14
M  V30 14 1 13 15
M  V30 15 1 15 16
M  V30 16 1 16 17
M  V30 17 3 17 18
M  V30 18 1 16 19
M  V30 19 1 19 20
M  V30 20 1 12 21
M  V30 21 2 21 22
M  V30 22 1 22 23
M  V30 23 2 5 24
M  V30 24 1 24 25
M  V30 25 2 25 26
M  V30 26 1 26 27
M  V30 27 1 27 28
M  V30 28 1 27 29
M  V30 29 1 27 30
M  V30 30 1 26 3
M  V30 31 1 22 7
M  V30 32 1 20 16
M  V30 33 1 1 31
M  V30 34 1 1 32
M  V30 35 1 1 33
M  V30 36 1 2 34
M  V30 37 1 6 35
M  V30 38 1 8 36
M  V30 39 1 11 37
M  V30 40 1 11 38
M  V30 41 1 11 39
M  V30 42 1 15 40
M  V30 43 1 19 41
M  V30 44 1 19 42
M  V30 45 1 20 43
M  V30 46 1 20 44
M  V30 47 1 21 45
M  V30 48 1 25 46
M  V30 END BOND
M  V30 END CTAB
M  END
>  <Dataset>  (220) 
ChEMBL_Kinases

>  <Ligand_Instance>  (220) 
nan

>  <PDB_ID>  (220) 
nan

>  <Standardized_SMILES>  (220) 
CNc1nc(Nc2cc(OC)c(C(=O)NC3(C#N)CC3)cc2Cl)ncc1C(F)(F)F

>  <Name>  (220) 
nan

>  <Pocket>  (220) 
nan

>  <ATP_Site>  (220) 
nan

>  <Peripheral>  (220) 
nan

>  <Num_H_Atoms_ProtBoundConf>  (220) 
nan

>  <Num_Resolved_Atoms>  (220) 
nan

>  <Num_Not_Resolved_Atoms>  (220) 
nan

$$$$
CHEMBL3643951
     RDKit          3D

  0  0  0  0  0  0  0  0  0  0999 V3000
M  V30 BEGIN CTAB
M  V30 COUNTS 52 54 0 0 0
M  V30 BEGIN ATOM
M  V30 1 C -0.527036 -1.895273 4.747216 0
M  V30 2 N -0.947125 -3.259547 4.549940 0
M  V30 3 C -1.188103 -3.966583 3.356586 0
M  V30 4 N -1.006667 -3.313912 2.202556 0
M  V30 5 C -1.181408 -3.810027 0.972486 0
M  V30 6 N -0.953970 -3.098838 -0.233945 0
M  V30 7 C -0.408615 -1.812863 -0.484353 0
M  V30 8 C 0.078582 -1.075960 0.587186 0
M  V30 9 C 0.652648 0.177802 0.469532 0
M  V30 10 C 0.750498 0.743343 -0.811266 0
M  V30 11 C 1.356186 2.060974 -0.970148 0
M  V30 12 O 2.244504 2.468967 -1.784058 0
M  V30 13 N 1.029573 3.183999 -0.183888 0
M  V30 14 C 1.747598 4.431668 -0.484962 0
M  V30 15 C 2.623188 4.674994 0.720564 0
M  V30 16 O 2.300432 3.885993 1.804588 0
M  V30 17 C 0.951551 3.819726 2.096268 0
M  V30 18 C 0.092010 3.404331 0.923609 0
M  V30 19 C 0.262372 -0.001643 -1.860766 0
M  V30 20 C -0.312410 -1.251207 -1.766519 0
M  V30 21 O -0.790608 -1.975916 -2.807539 0
M  V30 22 C -0.846884 -1.742658 -4.157476 0
M  V30 23 C 0.424068 -1.574503 -4.903369 0
M  V30 24 F 1.205316 -2.734017 -4.788038 0
M  V30 25 N -1.578144 -5.087061 0.871184 0
M  V30 26 C -1.782746 -5.812308 1.972868 0
M  V30 27 C -1.588903 -5.255668 3.211016 0
M  V30 28 C -1.799224 -6.032295 4.466495 0
M  V30 29 F -0.593446 -6.065240 5.158732 0
M  V30 30 F -2.147525 -7.319670 4.099166 0
M  V30 31 F -2.765104 -5.413403 5.203533 0
M  V30 32 H -0.765531 -1.261743 3.857273 0
M  V30 33 H -1.085653 -1.422092 5.600762 0
M  V30 34 H 0.552479 -1.798018 4.968575 0
M  V30 35 H -1.088539 -3.783869 5.447010 0
M  V30 36 H -1.226509 -3.584151 -1.143100 0
M  V30 37 H 0.080391 -1.373724 1.625541 0
M  V30 38 H 1.043687 0.775654 1.291437 0
M  V30 39 H 1.002876 5.254615 -0.551718 0
M  V30 40 H 2.372551 4.341020 -1.372065 0
M  V30 41 H 2.661223 5.757652 0.911795 0
M  V30 42 H 3.674272 4.398579 0.430020 0
M  V30 43 H 0.543960 4.717406 2.601853 0
M  V30 44 H 0.833564 2.995766 2.855791 0
M  V30 45 H -0.530069 4.274621 0.637572 0
M  V30 46 H -0.555112 2.543427 1.112840 0
M  V30 47 H 0.351985 0.474186 -2.805998 0
M  V30 48 H -1.530340 -0.851644 -4.326552 0
M  V30 49 H -1.414811 -2.593639 -4.629938 0
M  V30 50 H 0.173318 -1.512528 -5.997641 0
M  V30 51 H 1.074278 -0.754669 -4.644347 0
M  V30 52 H -2.104286 -6.846596 1.937380 0
M  V30 END ATOM
M  V30 BEGIN BOND
M  V30 1 1 1 2
M  V30 2 1 2 3
M  V30 3 2 3 4
M  V30 4 1 4 5
M  V30 5 1 5 6
M  V30 6 1 6 7
M  V30 7 2 7 8
M  V30 8 1 8 9
M  V30 9 2 9 10
M  V30 10 1 10 11
M  V30 11 2 11 12
M  V30 12 1 11 13
M  V30 13 1 13 14
M  V30 14 1 14 15
M  V30 15 1 15 16
M  V30 16 1 16 17
M  V30 17 1 17 18
M  V30 18 1 10 19
M  V30 19 2 19 20
M  V30 20 1 20 21
M  V30 21 1 21 22
M  V30 22 1 22 23
M  V30 23 1 23 24
M  V30 24 2 5 25
M  V30 25 1 25 26
M  V30 26 2 26 27
M  V30 27 1 27 28
M  V30 28 1 28 29
M  V30 29 1 28 30
M  V30 30 1 28 31
M  V30 31 1 27 3
M  V30 32 1 20 7
M  V30 33 1 18 13
M  V30 34 1 1 32
M  V30 35 1 1 33
M  V30 36 1 1 34
M  V30 37 1 2 35
M  V30 38 1 6 36
M  V30 39 1 8 37
M  V30 40 1 9 38
M  V30 41 1 14 39
M  V30 42 1 14 40
M  V30 43 1 15 41
M  V30 44 1 15 42
M  V30 45 1 17 43
M  V30 46 1 17 44
M  V30 47 1 18 45
M  V30 48 1 18 46
M  V30 49 1 19 47
M  V30 50 1 22 48
M  V30 51 1 22 49
M  V30 52 1 23 50
M  V30 53 1 23 51
M  V30 54 1 26 52
M  V30 END BOND
M  V30 END CTAB
M  END
>  <Dataset>  (221) 
ChEMBL_Kinases

>  <Ligand_Instance>  (221) 
nan

>  <PDB_ID>  (221) 
nan

>  <Standardized_SMILES>  (221) 
CNc1nc(Nc2ccc(C(=O)N3CCOCC3)cc2OCCF)ncc1C(F)(F)F

>  <Name>  (221) 
nan

>  <Pocket>  (221) 
nan

>  <ATP_Site>  (221) 
nan

>  <Peripheral>  (221) 
nan

>  <Num_H_Atoms_ProtBoundConf>  (221) 
nan

>  <Num_Resolved_Atoms>  (221) 
nan

>  <Num_Not_Resolved_Atoms>  (221) 
nan

$$$$
CHEMBL3643950
     RDKit          3D

  0  0  0  0  0  0  0  0  0  0999 V3000
M  V30 BEGIN CTAB
M  V30 COUNTS 56 59 0 0 0
M  V30 BEGIN ATOM
M  V30 1 C 1.174401 -1.580124 5.852948 0
M  V30 2 O 0.284742 -1.259093 4.802050 0
M  V30 3 C 0.604493 -0.552100 3.676013 0
M  V30 4 C 1.876080 -0.069659 3.459343 0
M  V30 5 C 2.137645 0.638541 2.300649 0
M  V30 6 C 3.451964 1.198703 1.968396 0
M  V30 7 O 4.053806 2.064332 2.653190 0
M  V30 8 N 4.297440 0.900475 0.849172 0
M  V30 9 C 5.474231 1.730538 0.997626 0
M  V30 10 C 6.496647 1.353477 -0.048433 0
M  V30 11 O 6.019455 1.370054 -1.333324 0
M  V30 12 C 4.704962 0.942803 -1.479558 0
M  V30 13 C 4.297270 0.033470 -0.336611 0
M  V30 14 C 1.162567 0.888600 1.332811 0
M  V30 15 C -0.095873 0.369417 1.623552 0
M  V30 16 C -0.421592 -0.354709 2.777083 0
M  V30 17 N -1.764710 -0.830829 2.935482 0
M  V30 18 C -2.737671 -0.550970 1.922687 0
M  V30 19 N -3.443661 0.575022 2.123870 0
M  V30 20 C -4.403666 0.967974 1.236110 0
M  V30 21 C -4.570738 0.145031 0.173400 0
M  V30 22 Cl -5.772387 0.562163 -1.014061 0
M  V30 23 C -3.895623 -1.015183 -0.104596 0
M  V30 24 O -3.892648 -1.958276 -1.062322 0
M  V30 25 C -4.615444 -2.142672 -2.209066 0
M  V30 26 C -5.262837 -3.534792 -2.272468 0
M  V30 27 C -4.177396 -4.552121 -2.256318 0
M  V30 28 O -2.908639 -4.050223 -2.121082 0
M  V30 29 C -2.540671 -3.130366 -3.081000 0
M  V30 30 C -3.627102 -2.144308 -3.391125 0
M  V30 31 N -2.960131 -1.330185 0.828954 0
M  V30 32 H 1.884842 -2.344976 5.477139 0
M  V30 33 H 0.630433 -1.992005 6.730351 0
M  V30 34 H 1.745271 -0.677073 6.171116 0
M  V30 35 H 2.673417 -0.226154 4.162856 0
M  V30 36 H 5.186990 2.790777 0.853087 0
M  V30 37 H 5.954148 1.609639 1.993947 0
M  V30 38 H 7.267324 2.178692 -0.000330 0
M  V30 39 H 7.035108 0.414261 0.220861 0
M  V30 40 H 4.596637 0.393335 -2.429293 0
M  V30 41 H 4.028993 1.841374 -1.508668 0
M  V30 42 H 5.103151 -0.703822 -0.199168 0
M  V30 43 H 3.327558 -0.407707 -0.536770 0
M  V30 44 H 1.312297 1.430600 0.422682 0
M  V30 45 H -0.878404 0.553652 0.877040 0
M  V30 46 H -1.918688 -1.373694 3.834504 0
M  V30 47 H -4.998666 1.846646 1.333587 0
M  V30 48 H -5.385983 -1.405134 -2.449691 0
M  V30 49 H -5.979038 -3.653675 -1.415749 0
M  V30 50 H -5.837310 -3.610011 -3.201005 0
M  V30 51 H -4.297676 -5.232582 -3.147196 0
M  V30 52 H -4.343995 -5.212398 -1.358149 0
M  V30 53 H -1.677273 -2.556006 -2.687146 0
M  V30 54 H -2.239425 -3.604251 -4.053676 0
M  V30 55 H -3.283632 -1.107792 -3.496237 0
M  V30 56 H -4.227487 -2.442548 -4.274619 0
M  V30 END ATOM
M  V30 BEGIN BOND
M  V30 1 1 1 2
M  V30 2 1 2 3
M  V30 3 2 3 4
M  V30 4 1 4 5
M  V30 5 1 5 6
M  V30 6 2 6 7
M  V30 7 1 6 8
M  V30 8 1 8 9
M  V30 9 1 9 10
M  V30 10 1 10 11
M  V30 11 1 11 12
M  V30 12 1 12 13
M  V30 13 2 5 14
M  V30 14 1 14 15
M  V30 15 2 15 16
M  V30 16 1 16 17
M  V30 17 1 17 18
M  V30 18 2 18 19
M  V30 19 1 19 20
M  V30 20 2 20 21
M  V30 21 1 21 22
M  V30 22 1 21 23
M  V30 23 1 23 24
M  V30 24 1 24 25
M  V30 25 1 25 26
M  V30 26 1 26 27
M  V30 27 1 27 28
M  V30 28 1 28 29
M  V30 29 1 29 30
M  V30 30 2 23 31
M  V30 31 1 16 3
M  V30 32 1 31 18
M  V30 33 1 13 8
M  V30 34 1 30 25
M  V30 35 1 1 32
M  V30 36 1 1 33
M  V30 37 1 1 34
M  V30 38 1 4 35
M  V30 39 1 9 36
M  V30 40 1 9 37
M  V30 41 1 10 38
M  V30 42 1 10 39
M  V30 43 1 12 40
M  V30 44 1 12 41
M  V30 45 1 13 42
M  V30 46 1 13 43
M  V30 47 1 14 44
M  V30 48 1 15 45
M  V30 49 1 17 46
M  V30 50 1 20 47
M  V30 51 1 25 48
M  V30 52 1 26 49
M  V30 53 1 26 50
M  V30 54 1 27 51
M  V30 55 1 27 52
M  V30 56 1 29 53
M  V30 57 1 29 54
M  V30 58 1 30 55
M  V30 59 1 30 56
M  V30 END BOND
M  V30 END CTAB
M  END
>  <Dataset>  (222) 
ChEMBL_Kinases

>  <Ligand_Instance>  (222) 
nan

>  <PDB_ID>  (222) 
nan

>  <Standardized_SMILES>  (222) 
COc1cc(C(=O)N2CCOCC2)ccc1Nc1ncc(Cl)c(OC2CCOCC2)n1

>  <Name>  (222) 
nan

>  <Pocket>  (222) 
nan

>  <ATP_Site>  (222) 
nan

>  <Peripheral>  (222) 
nan

>  <Num_H_Atoms_ProtBoundConf>  (222) 
nan

>  <Num_Resolved_Atoms>  (222) 
nan

>  <Num_Not_Resolved_Atoms>  (222) 
nan

$$$$
CHEMBL3643949
     RDKit          3D

  0  0  0  0  0  0  0  0  0  0999 V3000
M  V30 BEGIN CTAB
M  V30 COUNTS 48 50 0 0 0
M  V30 BEGIN ATOM
M  V30 1 C 1.345784 -1.566472 5.350477 0
M  V30 2 O 0.355010 -1.455890 4.379498 0
M  V30 3 C 0.495300 -0.994746 3.093359 0
M  V30 4 C 1.683237 -0.550139 2.562951 0
M  V30 5 C 1.768583 -0.095757 1.262320 0
M  V30 6 C 3.095363 0.346570 0.871083 0
M  V30 7 O 4.071192 0.137304 1.627406 0
M  V30 8 N 3.696074 1.016683 -0.218782 0
M  V30 9 C 5.122547 1.243549 -0.125579 0
M  V30 10 C 5.825361 0.540677 -1.267588 0
M  V30 11 O 5.207405 0.796746 -2.479947 0
M  V30 12 C 4.311861 1.852351 -2.393970 0
M  V30 13 C 3.157967 1.556417 -1.465848 0
M  V30 14 C 0.620059 -0.106052 0.518165 0
M  V30 15 C -0.596839 -0.538893 0.994881 0
M  V30 16 C -0.643126 -0.986752 2.303439 0
M  V30 17 N -1.903426 -1.395393 2.787232 0
M  V30 18 C -3.161230 -1.581534 2.190623 0
M  V30 19 N -4.269145 -1.840681 2.908724 0
M  V30 20 C -5.458449 -2.043479 2.322522 0
M  V30 21 C -5.593366 -1.993022 0.949601 0
M  V30 22 C -6.877033 -2.224864 0.240109 0
M  V30 23 F -6.757885 -3.343063 -0.607024 0
M  V30 24 F -7.235876 -1.145738 -0.563906 0
M  V30 25 F -7.860975 -2.522499 1.140593 0
M  V30 26 C -4.466127 -1.728999 0.201044 0
M  V30 27 O -4.604155 -1.677829 -1.201112 0
M  V30 28 C -3.517228 -1.418791 -2.064999 0
M  V30 29 N -3.322974 -1.540332 0.869485 0
M  V30 30 H 2.375373 -1.396906 5.005470 0
M  V30 31 H 1.168457 -0.786499 6.129727 0
M  V30 32 H 1.284133 -2.575763 5.838293 0
M  V30 33 H 2.524361 -0.578018 3.217764 0
M  V30 34 H 5.343106 2.344801 -0.199952 0
M  V30 35 H 5.565166 0.853622 0.812553 0
M  V30 36 H 6.877199 0.921717 -1.325192 0
M  V30 37 H 5.799585 -0.549647 -1.081182 0
M  V30 38 H 4.794070 2.787007 -2.085801 0
M  V30 39 H 3.882847 2.002045 -3.428513 0
M  V30 40 H 2.481140 0.782337 -1.933373 0
M  V30 41 H 2.634004 2.517187 -1.302630 0
M  V30 42 H 0.725523 0.253697 -0.485277 0
M  V30 43 H -1.375633 -0.468684 0.276391 0
M  V30 44 H -1.908321 -1.610823 3.828902 0
M  V30 45 H -6.301694 -2.244430 2.933783 0
M  V30 46 H -3.474320 -2.227515 -2.840992 0
M  V30 47 H -3.593600 -0.420797 -2.533592 0
M  V30 48 H -2.545284 -1.509914 -1.516411 0
M  V30 END ATOM
M  V30 BEGIN BOND
M  V30 1 1 1 2
M  V30 2 1 2 3
M  V30 3 2 3 4
M  V30 4 1 4 5
M  V30 5 1 5 6
M  V30 6 2 6 7
M  V30 7 1 6 8
M  V30 8 1 8 9
M  V30 9 1 9 10
M  V30 10 1 10 11
M  V30 11 1 11 12
M  V30 12 1 12 13
M  V30 13 2 5 14
M  V30 14 1 14 15
M  V30 15 2 15 16
M  V30 16 1 16 17
M  V30 17 1 17 18
M  V30 18 2 18 19
M  V30 19 1 19 20
M  V30 20 2 20 21
M  V30 21 1 21 22
M  V30 22 1 22 23
M  V30 23 1 22 24
M  V30 24 1 22 25
M  V30 25 1 21 26
M  V30 26 1 26 27
M  V30 27 1 27 28
M  V30 28 2 26 29
M  V30 29 1 16 3
M  V30 30 1 29 18
M  V30 31 1 13 8
M  V30 32 1 1 30
M  V30 33 1 1 31
M  V30 34 1 1 32
M  V30 35 1 4 33
M  V30 36 1 9 34
M  V30 37 1 9 35
M  V30 38 1 10 36
M  V30 39 1 10 37
M  V30 40 1 12 38
M  V30 41 1 12 39
M  V30 42 1 13 40
M  V30 43 1 13 41
M  V30 44 1 14 42
M  V30 45 1 15 43
M  V30 46 1 17 44
M  V30 47 1 20 45
M  V30 48 1 28 46
M  V30 49 1 28 47
M  V30 50 1 28 48
M  V30 END BOND
M  V30 END CTAB
M  END
>  <Dataset>  (223) 
ChEMBL_Kinases

>  <Ligand_Instance>  (223) 
nan

>  <PDB_ID>  (223) 
nan

>  <Standardized_SMILES>  (223) 
COc1cc(C(=O)N2CCOCC2)ccc1Nc1ncc(C(F)(F)F)c(OC)n1

>  <Name>  (223) 
nan

>  <Pocket>  (223) 
nan

>  <ATP_Site>  (223) 
nan

>  <Peripheral>  (223) 
nan

>  <Num_H_Atoms_ProtBoundConf>  (223) 
nan

>  <Num_Resolved_Atoms>  (223) 
nan

>  <Num_Not_Resolved_Atoms>  (223) 
nan

$$$$
CHEMBL3643948
     RDKit          3D

  0  0  0  0  0  0  0  0  0  0999 V3000
M  V30 BEGIN CTAB
M  V30 COUNTS 48 50 0 0 0
M  V30 BEGIN ATOM
M  V30 1 C 0.387029 -2.434579 4.758343 0
M  V30 2 O -0.191339 -1.626634 3.789149 0
M  V30 3 C 0.437554 -0.840771 2.858510 0
M  V30 4 C 1.758728 -0.592475 2.537421 0
M  V30 5 C 2.102838 0.265446 1.517049 0
M  V30 6 C 3.532895 0.419711 1.289730 0
M  V30 7 O 4.454755 1.194653 1.699812 0
M  V30 8 N 4.236662 -0.447480 0.401570 0
M  V30 9 C 5.677615 -0.295918 0.168996 0
M  V30 10 C 5.834723 -0.470794 -1.342259 0
M  V30 11 O 5.480503 -1.794308 -1.596750 0
M  V30 12 C 4.109303 -1.990954 -1.531202 0
M  V30 13 C 3.496033 -1.490314 -0.262709 0
M  V30 14 C 1.129361 0.906525 0.780890 0
M  V30 15 Cl 1.731575 1.961257 -0.477186 0
M  V30 16 C -0.203064 0.692304 1.062021 0
M  V30 17 C -0.524677 -0.170005 2.087426 0
M  V30 18 N -1.948929 -0.269976 2.283193 0
M  V30 19 C -3.012703 0.327390 1.555850 0
M  V30 20 N -3.447552 1.591482 1.556956 0
M  V30 21 C -4.503112 1.894559 0.774446 0
M  V30 22 C -5.122303 0.940440 -0.005200 0
M  V30 23 C -6.268343 1.317424 -0.832251 0
M  V30 24 F -6.035997 1.076029 -2.172132 0
M  V30 25 F -7.430536 0.697248 -0.437095 0
M  V30 26 F -6.519504 2.694475 -0.755419 0
M  V30 27 C -4.677382 -0.358442 -0.007214 0
M  V30 28 O -5.265412 -1.383880 -0.780430 0
M  V30 29 C -4.678522 -2.691366 -0.662121 0
M  V30 30 N -3.622238 -0.596889 0.792187 0
M  V30 31 H -0.142368 -3.431593 4.839261 0
M  V30 32 H 1.424384 -2.694569 4.483471 0
M  V30 33 H 0.299227 -1.976278 5.774580 0
M  V30 34 H 2.400611 -1.166151 3.201483 0
M  V30 35 H 6.057532 0.675572 0.501450 0
M  V30 36 H 6.175782 -1.176737 0.628555 0
M  V30 37 H 6.858631 -0.311785 -1.674730 0
M  V30 38 H 5.119224 0.240832 -1.816277 0
M  V30 39 H 3.934687 -3.085068 -1.556660 0
M  V30 40 H 3.568279 -1.584401 -2.416353 0
M  V30 41 H 3.270679 -2.339711 0.452041 0
M  V30 42 H 2.481006 -1.068709 -0.521133 0
M  V30 43 H -0.896537 1.229866 0.440663 0
M  V30 44 H -2.296334 -0.858052 3.064463 0
M  V30 45 H -4.850792 2.912445 0.775337 0
M  V30 46 H -4.472275 -3.091369 -1.651345 0
M  V30 47 H -3.742038 -2.637616 -0.047374 0
M  V30 48 H -5.363636 -3.328048 -0.034285 0
M  V30 END ATOM
M  V30 BEGIN BOND
M  V30 1 1 1 2
M  V30 2 1 2 3
M  V30 3 2 3 4
M  V30 4 1 4 5
M  V30 5 1 5 6
M  V30 6 2 6 7
M  V30 7 1 6 8
M  V30 8 1 8 9
M  V30 9 1 9 10
M  V30 10 1 10 11
M  V30 11 1 11 12
M  V30 12 1 12 13
M  V30 13 2 5 14
M  V30 14 1 14 15
M  V30 15 1 14 16
M  V30 16 2 16 17
M  V30 17 1 17 18
M  V30 18 1 18 19
M  V30 19 2 19 20
M  V30 20 1 20 21
M  V30 21 2 21 22
M  V30 22 1 22 23
M  V30 23 1 23 24
M  V30 24 1 23 25
M  V30 25 1 23 26
M  V30 26 1 22 27
M  V30 27 1 27 28
M  V30 28 1 28 29
M  V30 29 2 27 30
M  V30 30 1 17 3
M  V30 31 1 30 19
M  V30 32 1 13 8
M  V30 33 1 1 31
M  V30 34 1 1 32
M  V30 35 1 1 33
M  V30 36 1 4 34
M  V30 37 1 9 35
M  V30 38 1 9 36
M  V30 39 1 10 37
M  V30 40 1 10 38
M  V30 41 1 12 39
M  V30 42 1 12 40
M  V30 43 1 13 41
M  V30 44 1 13 42
M  V30 45 1 16 43
M  V30 46 1 18 44
M  V30 47 1 21 45
M  V30 48 1 29 46
M  V30 49 1 29 47
M  V30 50 1 29 48
M  V30 END BOND
M  V30 END CTAB
M  END
>  <Dataset>  (224) 
ChEMBL_Kinases

>  <Ligand_Instance>  (224) 
nan

>  <PDB_ID>  (224) 
nan

>  <Standardized_SMILES>  (224) 
COc1cc(C(=O)N2CCOCC2)c(Cl)cc1Nc1ncc(C(F)(F)F)c(OC)n1

>  <Name>  (224) 
nan

>  <Pocket>  (224) 
nan

>  <ATP_Site>  (224) 
nan

>  <Peripheral>  (224) 
nan

>  <Num_H_Atoms_ProtBoundConf>  (224) 
nan

>  <Num_Resolved_Atoms>  (224) 
nan

>  <Num_Not_Resolved_Atoms>  (224) 
nan

$$$$
CHEMBL3641988
     RDKit          3D

  0  0  0  0  0  0  0  0  0  0999 V3000
M  V30 BEGIN CTAB
M  V30 COUNTS 61 66 0 0 0
M  V30 BEGIN ATOM
M  V30 1 C 3.841613 -0.141668 6.661513 0
M  V30 2 N 4.561911 0.406021 5.531932 0
M  V30 3 C 3.687575 0.505120 4.352444 0
M  V30 4 C 4.518819 1.070826 3.268199 0
M  V30 5 C 4.742461 0.154812 2.085069 0
M  V30 6 N 3.446263 -0.366250 1.741848 0
M  V30 7 C 2.675692 0.037519 0.624194 0
M  V30 8 C 3.069986 1.034844 -0.235005 0
M  V30 9 C 2.316681 1.422773 -1.323266 0
M  V30 10 C 1.109586 0.818716 -1.607999 0
M  V30 11 N 0.290517 1.173075 -2.711182 0
M  V30 12 C -0.949271 0.527955 -2.973362 0
M  V30 13 N -1.700504 0.900256 -4.045271 0
M  V30 14 C -2.872909 0.311996 -4.319141 0
M  V30 15 C -3.316630 -0.691053 -3.489117 0
M  V30 16 C -4.461941 -1.446463 -3.540483 0
M  V30 17 C -5.538285 -1.465073 -4.416202 0
M  V30 18 C -6.583705 -2.366991 -4.209254 0
M  V30 19 N -6.520705 -3.206114 -3.152727 0
M  V30 20 C -5.468059 -3.176180 -2.310345 0
M  V30 21 C -4.403718 -2.305674 -2.463890 0
M  V30 22 N -3.251964 -2.046711 -1.813168 0
M  V30 23 C -2.900749 -2.783981 -0.637786 0 CFG=2
M  V30 24 C -4.000514 -2.812396 0.392205 0
M  V30 25 C -3.363479 -2.170189 1.606059 0
M  V30 26 O -2.034295 -2.546451 1.483086 0
M  V30 27 C -1.764843 -2.177200 0.156774 0
M  V30 28 C -2.558769 -1.078472 -2.393536 0
M  V30 29 N -1.387976 -0.458390 -2.159071 0
M  V30 30 N 0.721965 -0.162728 -0.761992 0
M  V30 31 C 1.467936 -0.529870 0.295344 0
M  V30 32 C 3.103207 -1.336014 2.726318 0
M  V30 33 C 3.083088 -0.817898 4.130014 0
M  V30 34 H 4.135130 -1.172149 6.922112 0
M  V30 35 H 4.058129 0.528275 7.530892 0
M  V30 36 H 2.751230 -0.127326 6.486281 0
M  V30 37 H 5.284366 -0.327327 5.261071 0
M  V30 38 H 2.917649 1.266339 4.676198 0
M  V30 39 H 5.538936 1.405534 3.593277 0
M  V30 40 H 4.057049 2.027036 2.881339 0
M  V30 41 H 5.137088 0.727326 1.251604 0
M  V30 42 H 5.482228 -0.615078 2.398599 0
M  V30 43 H 3.972563 1.578294 -0.128765 0
M  V30 44 H 2.614786 2.203253 -2.004460 0
M  V30 45 H 0.613773 1.933333 -3.348202 0
M  V30 46 H -3.489446 0.594902 -5.171566 0
M  V30 47 H -5.610590 -0.803763 -5.267616 0
M  V30 48 H -7.462239 -2.455781 -4.836030 0
M  V30 49 H -5.455547 -3.868973 -1.471196 0
M  V30 50 H -2.616833 -3.840778 -0.834197 0
M  V30 51 H -4.853657 -2.163374 0.104432 0
M  V30 52 H -4.320130 -3.838476 0.657160 0
M  V30 53 H -3.846800 -2.539188 2.536255 0
M  V30 54 H -3.475053 -1.056756 1.503435 0
M  V30 55 H -0.803221 -2.603887 -0.125465 0
M  V30 56 H -1.765262 -1.085597 0.125588 0
M  V30 57 H 1.028409 -1.321987 0.872511 0
M  V30 58 H 2.153531 -1.826021 2.445309 0
M  V30 59 H 3.863382 -2.170368 2.648665 0
M  V30 60 H 1.999141 -0.778027 4.435116 0
M  V30 61 H 3.504594 -1.608196 4.800878 0
M  V30 END ATOM
M  V30 BEGIN BOND
M  V30 1 1 1 2
M  V30 2 1 2 3
M  V30 3 1 3 4
M  V30 4 1 4 5
M  V30 5 1 5 6
M  V30 6 1 6 7
M  V30 7 2 7 8
M  V30 8 1 8 9
M  V30 9 2 9 10
M  V30 10 1 10 11
M  V30 11 1 11 12
M  V30 12 2 12 13
M  V30 13 1 13 14
M  V30 14 2 14 15
M  V30 15 1 15 16
M  V30 16 2 16 17
M  V30 17 1 17 18
M  V30 18 2 18 19
M  V30 19 1 19 20
M  V30 20 2 20 21
M  V30 21 1 21 22
M  V30 22 1 22 23
M  V30 23 1 23 24
M  V30 24 1 24 25
M  V30 25 1 25 26
M  V30 26 1 26 27
M  V30 27 1 22 28
M  V30 28 2 28 29
M  V30 29 1 10 30
M  V30 30 2 30 31
M  V30 31 1 6 32
M  V30 32 1 32 33
M  V30 33 1 33 3
M  V30 34 1 31 7
M  V30 35 1 29 12
M  V30 36 1 28 15
M  V30 37 1 21 16
M  V30 38 1 27 23
M  V30 39 1 1 34
M  V30 40 1 1 35
M  V30 41 1 1 36
M  V30 42 1 2 37
M  V30 43 1 3 38
M  V30 44 1 4 39
M  V30 45 1 4 40
M  V30 46 1 5 41
M  V30 47 1 5 42
M  V30 48 1 8 43
M  V30 49 1 9 44
M  V30 50 1 11 45
M  V30 51 1 14 46
M  V30 52 1 17 47
M  V30 53 1 18 48
M  V30 54 1 20 49
M  V30 55 1 23 50 CFG=3
M  V30 56 1 24 51
M  V30 57 1 24 52
M  V30 58 1 25 53
M  V30 59 1 25 54
M  V30 60 1 27 55
M  V30 61 1 27 56
M  V30 62 1 31 57
M  V30 63 1 32 58
M  V30 64 1 32 59
M  V30 65 1 33 60
M  V30 66 1 33 61
M  V30 END BOND
M  V30 END CTAB
M  END
>  <Dataset>  (225) 
ChEMBL_Kinases

>  <Ligand_Instance>  (225) 
nan

>  <PDB_ID>  (225) 
nan

>  <Standardized_SMILES>  (225) 
CNC1CCN(c2ccc(Nc3ncc4c5ccncc5n([C@@H]5CCOC5)c4n3)nc2)CC1

>  <Name>  (225) 
nan

>  <Pocket>  (225) 
nan

>  <ATP_Site>  (225) 
nan

>  <Peripheral>  (225) 
nan

>  <Num_H_Atoms_ProtBoundConf>  (225) 
nan

>  <Num_Resolved_Atoms>  (225) 
nan

>  <Num_Not_Resolved_Atoms>  (225) 
nan

$$$$
CHEMBL3641989
     RDKit          3D

  0  0  0  0  0  0  0  0  0  0999 V3000
M  V30 BEGIN CTAB
M  V30 COUNTS 61 66 0 0 0
M  V30 BEGIN ATOM
M  V30 1 C 1.334630 -3.448872 3.534515 0
M  V30 2 C 2.641622 -3.954222 2.990585 0
M  V30 3 C 3.343569 -4.750770 4.060731 0
M  V30 4 C 3.534873 -2.833541 2.511477 0
M  V30 5 N 3.540169 -2.857377 1.080252 0
M  V30 6 C 2.974350 -1.832090 0.283407 0
M  V30 7 C 2.062128 -0.935091 0.821813 0
M  V30 8 C 1.483019 0.081549 0.066837 0
M  V30 9 C 1.856146 0.174372 -1.280929 0
M  V30 10 N 1.243573 1.196690 -2.076284 0
M  V30 11 C 0.271794 2.057869 -1.495547 0
M  V30 12 N 0.289306 3.302609 -0.990011 0
M  V30 13 C -0.843850 3.851693 -0.490425 0
M  V30 14 C -2.067565 3.229173 -0.448120 0
M  V30 15 C -3.340944 3.515503 -0.020377 0
M  V30 16 C -3.858748 4.651231 0.567101 0
M  V30 17 C -5.204643 4.554227 0.853694 0
M  V30 18 N -5.968029 3.476739 0.600178 0
M  V30 19 C -5.445997 2.370697 0.023672 0
M  V30 20 C -4.082043 2.387372 -0.299698 0
M  V30 21 N -3.301089 1.456074 -0.870379 0
M  V30 22 C -3.767895 0.175152 -1.276129 0 CFG=2
M  V30 23 C -3.226560 -0.842645 -0.268330 0
M  V30 24 C -3.215637 -2.086901 -1.096597 0
M  V30 25 O -3.189985 -1.759618 -2.421598 0
M  V30 26 C -3.211082 -0.372612 -2.538905 0
M  V30 27 C -2.039297 1.933978 -0.984250 0
M  V30 28 N -0.900499 1.395185 -1.481645 0
M  V30 29 N 2.736852 -0.692991 -1.792835 0
M  V30 30 C 3.282976 -1.666322 -1.045918 0
M  V30 31 C 4.160263 -4.062124 0.500631 0
M  V30 32 C 3.520218 -5.265170 1.160836 0
M  V30 33 N 2.345031 -4.852916 1.895147 0
M  V30 34 H 0.990855 -4.170630 4.303045 0
M  V30 35 H 1.507439 -2.435520 3.972252 0
M  V30 36 H 0.540937 -3.408095 2.742737 0
M  V30 37 H 3.269184 -5.849828 3.851310 0
M  V30 38 H 2.837343 -4.585253 5.032670 0
M  V30 39 H 4.420879 -4.462375 4.121747 0
M  V30 40 H 3.218090 -1.875904 2.945710 0
M  V30 41 H 4.557148 -3.029860 2.878523 0
M  V30 42 H 1.772391 -0.994113 1.840598 0
M  V30 43 H 0.773786 0.765886 0.517541 0
M  V30 44 H 1.556908 1.252032 -3.067994 0
M  V30 45 H -0.771877 4.843729 -0.103287 0
M  V30 46 H -3.220582 5.486735 0.751984 0
M  V30 47 H -5.679081 5.423426 1.320500 0
M  V30 48 H -6.062193 1.500681 -0.180930 0
M  V30 49 H -4.873307 0.086902 -1.285124 0
M  V30 50 H -2.210851 -0.512724 -0.003555 0
M  V30 51 H -3.892315 -0.928878 0.615317 0
M  V30 52 H -4.162739 -2.632895 -0.848185 0
M  V30 53 H -2.385863 -2.734345 -0.749907 0
M  V30 54 H -2.206056 -0.068375 -2.819294 0
M  V30 55 H -3.954092 -0.139698 -3.356600 0
M  V30 56 H 3.982195 -2.305814 -1.562534 0
M  V30 57 H 5.246335 -4.060566 0.551899 0
M  V30 58 H 3.828816 -4.052128 -0.573603 0
M  V30 59 H 4.202575 -5.842798 1.802050 0
M  V30 60 H 3.175435 -5.945257 0.361948 0
M  V30 61 H 1.554165 -4.581800 1.303713 0
M  V30 END ATOM
M  V30 BEGIN BOND
M  V30 1 1 1 2
M  V30 2 1 2 3
M  V30 3 1 2 4
M  V30 4 1 4 5
M  V30 5 1 5 6
M  V30 6 2 6 7
M  V30 7 1 7 8
M  V30 8 2 8 9
M  V30 9 1 9 10
M  V30 10 1 10 11
M  V30 11 2 11 12
M  V30 12 1 12 13
M  V30 13 2 13 14
M  V30 14 1 14 15
M  V30 15 2 15 16
M  V30 16 1 16 17
M  V30 17 2 17 18
M  V30 18 1 18 19
M  V30 19 2 19 20
M  V30 20 1 20 21
M  V30 21 1 21 22
M  V30 22 1 22 23
M  V30 23 1 23 24
M  V30 24 1 24 25
M  V30 25 1 25 26
M  V30 26 1 21 27
M  V30 27 2 27 28
M  V30 28 1 9 29
M  V30 29 2 29 30
M  V30 30 1 5 31
M  V30 31 1 31 32
M  V30 32 1 32 33
M  V30 33 1 33 2
M  V30 34 1 30 6
M  V30 35 1 28 11
M  V30 36 1 27 14
M  V30 37 1 20 15
M  V30 38 1 26 22
M  V30 39 1 1 34
M  V30 40 1 1 35
M  V30 41 1 1 36
M  V30 42 1 3 37
M  V30 43 1 3 38
M  V30 44 1 3 39
M  V30 45 1 4 40
M  V30 46 1 4 41
M  V30 47 1 7 42
M  V30 48 1 8 43
M  V30 49 1 10 44
M  V30 50 1 13 45
M  V30 51 1 16 46
M  V30 52 1 17 47
M  V30 53 1 19 48
M  V30 54 1 22 49 CFG=3
M  V30 55 1 23 50
M  V30 56 1 23 51
M  V30 57 1 24 52
M  V30 58 1 24 53
M  V30 59 1 26 54
M  V30 60 1 26 55
M  V30 61 1 30 56
M  V30 62 1 31 57
M  V30 63 1 31 58
M  V30 64 1 32 59
M  V30 65 1 32 60
M  V30 66 1 33 61
M  V30 END BOND
M  V30 END CTAB
M  END
>  <Dataset>  (226) 
ChEMBL_Kinases

>  <Ligand_Instance>  (226) 
nan

>  <PDB_ID>  (226) 
nan

>  <Standardized_SMILES>  (226) 
CC1(C)CN(c2ccc(Nc3ncc4c5ccncc5n([C@@H]5CCOC5)c4n3)nc2)CCN1

>  <Name>  (226) 
nan

>  <Pocket>  (226) 
nan

>  <ATP_Site>  (226) 
nan

>  <Peripheral>  (226) 
nan

>  <Num_H_Atoms_ProtBoundConf>  (226) 
nan

>  <Num_Resolved_Atoms>  (226) 
nan

>  <Num_Not_Resolved_Atoms>  (226) 
nan

$$$$
CHEMBL3642039
     RDKit          3D

  0  0  0  0  0  0  0  0  0  0999 V3000
M  V30 BEGIN CTAB
M  V30 COUNTS 65 70 0 0 0
M  V30 BEGIN ATOM
M  V30 1 N 5.408725 -1.422964 3.215640 0
M  V30 2 C 4.896808 -0.310920 2.452790 0
M  V30 3 O 3.931759 -0.878296 1.898969 0
M  V30 4 C 5.795449 0.803169 2.774258 0
M  V30 5 C 5.447265 2.103132 2.085031 0
M  V30 6 C 5.479617 1.972706 0.591001 0
M  V30 7 C 4.280868 2.635818 -0.063445 0
M  V30 8 N 3.044379 2.256296 0.528271 0
M  V30 9 C 1.889903 1.828932 -0.183987 0
M  V30 10 C 1.815335 1.739699 -1.558634 0
M  V30 11 C 0.692094 1.323781 -2.243544 0
M  V30 12 C -0.440981 0.969015 -1.539264 0
M  V30 13 N -1.625239 0.532035 -2.197261 0
M  V30 14 C -2.833702 0.150648 -1.544759 0
M  V30 15 N -3.861437 1.001336 -1.252788 0
M  V30 16 C -4.970908 0.563306 -0.632481 0
M  V30 17 C -4.990977 -0.783653 -0.320117 0
M  V30 18 C -5.983687 -1.512050 0.310979 0
M  V30 19 C -7.218166 -1.227259 0.827899 0
M  V30 20 C -7.993766 -2.230212 1.418890 0
M  V30 21 N -7.482925 -3.481015 1.460237 0
M  V30 22 C -6.267634 -3.794305 0.958766 0
M  V30 23 F -5.840822 -5.076516 1.047351 0
M  V30 24 C -5.505761 -2.804183 0.377106 0
M  V30 25 N -4.283706 -2.904169 -0.175353 0
M  V30 26 C -3.378702 -4.018042 -0.348908 0
M  V30 27 C -2.657027 -4.023131 -1.636790 0
M  V30 28 C -1.184621 -3.991521 -1.427368 0
M  V30 29 C -0.979556 -4.162848 0.049492 0
M  V30 30 C -2.301809 -3.853259 0.701074 0
M  V30 31 C -3.954620 -1.657994 -0.610845 0
M  V30 32 N -2.877069 -1.155829 -1.230587 0
M  V30 33 N -0.387493 1.049870 -0.192942 0
M  V30 34 C 0.721997 1.459096 0.449941 0
M  V30 35 C 2.939130 2.305485 1.953278 0
M  V30 36 C 4.197837 2.711602 2.629193 0
M  V30 37 H 4.959556 -1.804148 4.075209 0
M  V30 38 H 4.963451 -1.822161 4.091779 0
M  V30 39 H 5.797703 1.033914 3.870486 0
M  V30 40 H 6.858884 0.579585 2.493984 0
M  V30 41 H 6.288858 2.806957 2.378883 0
M  V30 42 H 6.387075 2.450855 0.171188 0
M  V30 43 H 5.506824 0.915654 0.244288 0
M  V30 44 H 4.334199 2.331624 -1.126228 0
M  V30 45 H 4.410438 3.748340 -0.042452 0
M  V30 46 H 2.643540 1.995353 -2.168393 0
M  V30 47 H 0.659460 1.262477 -3.326857 0
M  V30 48 H -1.623387 0.482537 -3.228344 0
M  V30 49 H -5.764549 1.232729 -0.409798 0
M  V30 50 H -7.607978 -0.217271 0.783678 0
M  V30 51 H -8.985560 -2.022630 1.839295 0
M  V30 52 H -3.923159 -4.984908 -0.190151 0
M  V30 53 H -2.877094 -4.997378 -2.165491 0
M  V30 54 H -2.990572 -3.252955 -2.360321 0
M  V30 55 H -0.769406 -3.036181 -1.810081 0
M  V30 56 H -0.632952 -4.800328 -1.950748 0
M  V30 57 H -0.630051 -5.169500 0.348685 0
M  V30 58 H -0.171233 -3.436764 0.345507 0
M  V30 59 H -2.225884 -2.778517 1.032632 0
M  V30 60 H -2.487017 -4.444714 1.615618 0
M  V30 61 H 0.650726 1.484730 1.527903 0
M  V30 62 H 2.489107 1.389449 2.416033 0
M  V30 63 H 2.173686 3.103644 2.197441 0
M  V30 64 H 4.119548 2.399760 3.710461 0
M  V30 65 H 4.244166 3.824283 2.669493 0
M  V30 END ATOM
M  V30 BEGIN BOND
M  V30 1 1 1 2
M  V30 2 2 2 3
M  V30 3 1 2 4
M  V30 4 1 4 5
M  V30 5 1 5 6
M  V30 6 1 6 7
M  V30 7 1 7 8
M  V30 8 1 8 9
M  V30 9 2 9 10
M  V30 10 1 10 11
M  V30 11 2 11 12
M  V30 12 1 12 13
M  V30 13 1 13 14
M  V30 14 2 14 15
M  V30 15 1 15 16
M  V30 16 2 16 17
M  V30 17 1 17 18
M  V30 18 2 18 19
M  V30 19 1 19 20
M  V30 20 2 20 21
M  V30 21 1 21 22
M  V30 22 1 22 23
M  V30 23 2 22 24
M  V30 24 1 24 25
M  V30 25 1 25 26
M  V30 26 1 26 27
M  V30 27 1 27 28
M  V30 28 1 28 29
M  V30 29 1 29 30
M  V30 30 1 25 31
M  V30 31 2 31 32
M  V30 32 1 12 33
M  V30 33 2 33 34
M  V30 34 1 8 35
M  V30 35 1 35 36
M  V30 36 1 36 5
M  V30 37 1 34 9
M  V30 38 1 32 14
M  V30 39 1 31 17
M  V30 40 1 24 18
M  V30 41 1 30 26
M  V30 42 1 1 37
M  V30 43 1 1 38
M  V30 44 1 4 39
M  V30 45 1 4 40
M  V30 46 1 5 41
M  V30 47 1 6 42
M  V30 48 1 6 43
M  V30 49 1 7 44
M  V30 50 1 7 45
M  V30 51 1 10 46
M  V30 52 1 11 47
M  V30 53 1 13 48
M  V30 54 1 16 49
M  V30 55 1 19 50
M  V30 56 1 20 51
M  V30 57 1 26 52
M  V30 58 1 27 53
M  V30 59 1 27 54
M  V30 60 1 28 55
M  V30 61 1 28 56
M  V30 62 1 29 57
M  V30 63 1 29 58
M  V30 64 1 30 59
M  V30 65 1 30 60
M  V30 66 1 34 61
M  V30 67 1 35 62
M  V30 68 1 35 63
M  V30 69 1 36 64
M  V30 70 1 36 65
M  V30 END BOND
M  V30 END CTAB
M  END
>  <Dataset>  (227) 
ChEMBL_Kinases

>  <Ligand_Instance>  (227) 
nan

>  <PDB_ID>  (227) 
nan

>  <Standardized_SMILES>  (227) 
NC(=O)CC1CCN(c2ccc(Nc3ncc4c5ccnc(F)c5n(C5CCCC5)c4n3)nc2)CC1

>  <Name>  (227) 
nan

>  <Pocket>  (227) 
nan

>  <ATP_Site>  (227) 
nan

>  <Peripheral>  (227) 
nan

>  <Num_H_Atoms_ProtBoundConf>  (227) 
nan

>  <Num_Resolved_Atoms>  (227) 
nan

>  <Num_Not_Resolved_Atoms>  (227) 
nan

$$$$
CHEMBL3642646
     RDKit          3D

  0  0  0  0  0  0  0  0  0  0999 V3000
M  V30 BEGIN CTAB
M  V30 COUNTS 38 41 0 0 0
M  V30 BEGIN ATOM
M  V30 1 F -0.991797 -3.910859 2.778645 0
M  V30 2 C 0.247192 -3.770732 2.216007 0
M  V30 3 C 1.212672 -4.710485 2.568560 0
M  V30 4 C 2.498677 -4.668938 2.062357 0
M  V30 5 C 2.809644 -3.655366 1.182508 0
M  V30 6 C 1.827735 -2.740929 0.854555 0
M  V30 7 C 0.543378 -2.749613 1.335720 0
M  V30 8 C -0.475458 -1.780333 0.982891 0
M  V30 9 C -0.283065 -0.720137 0.125936 0
M  V30 10 C -1.266094 0.201180 -0.200949 0
M  V30 11 N -0.851523 1.195743 -1.092994 0
M  V30 12 C -0.214671 2.515250 -1.096103 0
M  V30 13 C 1.108085 2.317644 -0.430016 0
M  V30 14 C 1.157647 2.529386 0.942932 0
M  V30 15 C 2.320118 2.367248 1.662192 0
M  V30 16 N 3.449120 1.990425 1.015924 0
M  V30 17 C 3.432056 1.776243 -0.323653 0
M  V30 18 C 2.262436 1.940601 -1.041938 0
M  V30 19 N -2.466199 0.025212 0.365365 0
M  V30 20 N -3.541729 0.769535 0.202444 0
M  V30 21 C -4.539730 0.234306 0.960875 0
M  V30 22 C -3.986308 -0.871995 1.581740 0
M  V30 23 Br -4.959099 -2.000200 2.770655 0
M  V30 24 C -2.647012 -1.006733 1.197195 0
M  V30 25 N -1.707765 -1.896534 1.516640 0
M  V30 26 H 1.033561 -5.530640 3.254150 0
M  V30 27 H 3.249025 -5.396363 2.334998 0
M  V30 28 H 3.809590 -3.595467 0.768868 0
M  V30 29 H 2.147548 -1.979549 0.161093 0
M  V30 30 H 0.715122 -0.646946 -0.290123 0
M  V30 31 H -1.145692 0.725008 -1.985956 0
M  V30 32 H -0.131595 2.832944 -2.137184 0
M  V30 33 H -0.849599 3.191602 -0.523725 0
M  V30 34 H 0.296366 2.832906 1.529417 0
M  V30 35 H 2.410122 2.519770 2.728099 0
M  V30 36 H 4.345708 1.471056 -0.840743 0
M  V30 37 H 2.210111 1.777610 -2.112448 0
M  V30 38 H -5.553859 0.597019 1.058246 0
M  V30 END ATOM
M  V30 BEGIN BOND
M  V30 1 1 1 2
M  V30 2 2 2 3
M  V30 3 1 3 4
M  V30 4 2 4 5
M  V30 5 1 5 6
M  V30 6 2 6 7
M  V30 7 1 7 8
M  V30 8 1 8 9
M  V30 9 2 9 10
M  V30 10 1 10 11
M  V30 11 1 11 12
M  V30 12 1 12 13
M  V30 13 2 13 14
M  V30 14 1 14 15
M  V30 15 2 15 16
M  V30 16 1 16 17
M  V30 17 2 17 18
M  V30 18 1 10 19
M  V30 19 1 19 20
M  V30 20 2 20 21
M  V30 21 1 21 22
M  V30 22 1 22 23
M  V30 23 2 22 24
M  V30 24 1 24 25
M  V30 25 1 7 2
M  V30 26 2 25 8
M  V30 27 1 18 13
M  V30 28 1 24 19
M  V30 29 1 3 26
M  V30 30 1 4 27
M  V30 31 1 5 28
M  V30 32 1 6 29
M  V30 33 1 9 30
M  V30 34 1 11 31
M  V30 35 1 12 32
M  V30 36 1 12 33
M  V30 37 1 14 34
M  V30 38 1 15 35
M  V30 39 1 17 36
M  V30 40 1 18 37
M  V30 41 1 21 38
M  V30 END BOND
M  V30 END CTAB
M  END
>  <Dataset>  (228) 
ChEMBL_Kinases

>  <Ligand_Instance>  (228) 
nan

>  <PDB_ID>  (228) 
nan

>  <Standardized_SMILES>  (228) 
Fc1ccccc1-c1cc(NCc2ccncc2)n2ncc(Br)c2n1

>  <Name>  (228) 
nan

>  <Pocket>  (228) 
nan

>  <ATP_Site>  (228) 
nan

>  <Peripheral>  (228) 
nan

>  <Num_H_Atoms_ProtBoundConf>  (228) 
nan

>  <Num_Resolved_Atoms>  (228) 
nan

>  <Num_Not_Resolved_Atoms>  (228) 
nan

$$$$
CHEMBL3642647
     RDKit          3D

  0  0  0  0  0  0  0  0  0  0999 V3000
M  V30 BEGIN CTAB
M  V30 COUNTS 38 41 0 0 0
M  V30 BEGIN ATOM
M  V30 1 F -0.251143 -2.761116 3.594648 0
M  V30 2 C 0.736097 -3.089583 2.708582 0
M  V30 3 C 1.644563 -4.033986 3.175033 0
M  V30 4 C 2.622865 -4.321334 2.218712 0
M  V30 5 C 2.712939 -3.764091 0.964595 0
M  V30 6 C 1.754743 -2.837619 0.612236 0
M  V30 7 C 0.748592 -2.481064 1.473827 0
M  V30 8 C -0.300518 -1.514648 1.181351 0
M  V30 9 C -0.392992 -0.850806 -0.021377 0
M  V30 10 C -1.394156 0.070319 -0.302035 0
M  V30 11 N -1.422304 0.717997 -1.571498 0
M  V30 12 C -0.696409 1.970855 -1.460892 0
M  V30 13 C 0.696619 1.705150 -1.051239 0
M  V30 14 C 0.925094 1.687067 0.327205 0
M  V30 15 C 2.204795 1.443588 0.810021 0
M  V30 16 C 3.214566 1.226415 -0.106654 0
M  V30 17 N 3.006914 1.241126 -1.455722 0
M  V30 18 C 1.758516 1.478812 -1.898575 0
M  V30 19 N -2.334591 0.354668 0.617386 0
M  V30 20 N -3.385547 1.157242 0.660418 0
M  V30 21 C -3.995508 1.041322 1.871508 0
M  V30 22 C -3.250151 0.110497 2.577367 0
M  V30 23 Br -3.710192 -0.399201 4.354268 0
M  V30 24 C -2.211686 -0.311607 1.778355 0
M  V30 25 N -1.264997 -1.210771 2.100449 0
M  V30 26 H 1.592820 -4.477199 4.141495 0
M  V30 27 H 3.386042 -5.060297 2.502045 0
M  V30 28 H 3.517768 -4.063658 0.306083 0
M  V30 29 H 1.786417 -2.377283 -0.359956 0
M  V30 30 H 0.331372 -1.028062 -0.807585 0
M  V30 31 H -1.965227 0.067796 -2.174125 0
M  V30 32 H -1.203718 2.616162 -0.716072 0
M  V30 33 H -0.729931 2.444731 -2.480262 0
M  V30 34 H 0.133859 1.857861 1.072247 0
M  V30 35 H 2.370365 1.431445 1.878261 0
M  V30 36 H 4.191535 1.042173 0.338246 0
M  V30 37 H 1.543383 1.499995 -2.956161 0
M  V30 38 H -4.896075 1.595971 2.179997 0
M  V30 END ATOM
M  V30 BEGIN BOND
M  V30 1 1 1 2
M  V30 2 2 2 3
M  V30 3 1 3 4
M  V30 4 2 4 5
M  V30 5 1 5 6
M  V30 6 2 6 7
M  V30 7 1 7 8
M  V30 8 1 8 9
M  V30 9 2 9 10
M  V30 10 1 10 11
M  V30 11 1 11 12
M  V30 12 1 12 13
M  V30 13 2 13 14
M  V30 14 1 14 15
M  V30 15 2 15 16
M  V30 16 1 16 17
M  V30 17 2 17 18
M  V30 18 1 10 19
M  V30 19 1 19 20
M  V30 20 2 20 21
M  V30 21 1 21 22
M  V30 22 1 22 23
M  V30 23 2 22 24
M  V30 24 1 24 25
M  V30 25 1 7 2
M  V30 26 2 25 8
M  V30 27 1 18 13
M  V30 28 1 24 19
M  V30 29 1 3 26
M  V30 30 1 4 27
M  V30 31 1 5 28
M  V30 32 1 6 29
M  V30 33 1 9 30
M  V30 34 1 11 31
M  V30 35 1 12 32
M  V30 36 1 12 33
M  V30 37 1 14 34
M  V30 38 1 15 35
M  V30 39 1 16 36
M  V30 40 1 18 37
M  V30 41 1 21 38
M  V30 END BOND
M  V30 END CTAB
M  END
>  <Dataset>  (229) 
ChEMBL_Kinases

>  <Ligand_Instance>  (229) 
nan

>  <PDB_ID>  (229) 
nan

>  <Standardized_SMILES>  (229) 
Fc1ccccc1-c1cc(NCc2cccnc2)n2ncc(Br)c2n1

>  <Name>  (229) 
nan

>  <Pocket>  (229) 
nan

>  <ATP_Site>  (229) 
nan

>  <Peripheral>  (229) 
nan

>  <Num_H_Atoms_ProtBoundConf>  (229) 
nan

>  <Num_Resolved_Atoms>  (229) 
nan

>  <Num_Not_Resolved_Atoms>  (229) 
nan

$$$$
CHEMBL3642648
     RDKit          3D

  0  0  0  0  0  0  0  0  0  0999 V3000
M  V30 BEGIN CTAB
M  V30 COUNTS 38 41 0 0 0
M  V30 BEGIN ATOM
M  V30 1 F -0.940594 -3.971451 2.760249 0
M  V30 2 C 0.281116 -3.764154 2.205936 0
M  V30 3 C 1.263635 -4.699382 2.545152 0
M  V30 4 C 2.554689 -4.569519 2.028033 0
M  V30 5 C 2.864019 -3.506129 1.172518 0
M  V30 6 C 1.862324 -2.597877 0.857950 0
M  V30 7 C 0.573912 -2.715173 1.364490 0
M  V30 8 C -0.481258 -1.764042 1.018723 0
M  V30 9 C -0.323888 -0.705465 0.154726 0
M  V30 10 C -1.331222 0.194057 -0.188755 0
M  V30 11 N -0.961761 1.196376 -1.100385 0
M  V30 12 C -0.288849 2.485229 -1.094413 0
M  V30 13 C 1.078461 2.273148 -0.571891 0
M  V30 14 C 1.238337 2.414385 0.807584 0
M  V30 15 C 2.461362 2.227330 1.426955 0
M  V30 16 C 3.537890 1.892231 0.637991 0
M  V30 17 N 3.419562 1.746351 -0.709718 0
M  V30 18 C 2.207962 1.935557 -1.293946 0
M  V30 19 N -2.518895 -0.036110 0.394224 0
M  V30 20 N -3.620060 0.672654 0.221411 0
M  V30 21 C -4.621152 0.138717 0.968844 0
M  V30 22 C -4.030286 -0.939156 1.596315 0
M  V30 23 Cl -4.886979 -2.002919 2.696067 0
M  V30 24 C -2.693616 -1.070713 1.246168 0
M  V30 25 N -1.700847 -1.917557 1.555376 0
M  V30 26 H 1.118161 -5.548637 3.192999 0
M  V30 27 H 3.377629 -5.257873 2.240685 0
M  V30 28 H 3.876042 -3.380770 0.748748 0
M  V30 29 H 2.159170 -1.805177 0.203683 0
M  V30 30 H 0.660780 -0.580608 -0.275303 0
M  V30 31 H -1.352898 0.716663 -1.929882 0
M  V30 32 H -0.831179 3.196833 -0.460116 0
M  V30 33 H -0.231223 2.852201 -2.157499 0
M  V30 34 H 0.376037 2.680133 1.436664 0
M  V30 35 H 2.503538 2.355751 2.507748 0
M  V30 36 H 4.480788 1.752390 1.152616 0
M  V30 37 H 2.051563 1.834987 -2.356992 0
M  V30 38 H -5.657551 0.446584 1.079224 0
M  V30 END ATOM
M  V30 BEGIN BOND
M  V30 1 1 1 2
M  V30 2 2 2 3
M  V30 3 1 3 4
M  V30 4 2 4 5
M  V30 5 1 5 6
M  V30 6 2 6 7
M  V30 7 1 7 8
M  V30 8 1 8 9
M  V30 9 2 9 10
M  V30 10 1 10 11
M  V30 11 1 11 12
M  V30 12 1 12 13
M  V30 13 2 13 14
M  V30 14 1 14 15
M  V30 15 2 15 16
M  V30 16 1 16 17
M  V30 17 2 17 18
M  V30 18 1 10 19
M  V30 19 1 19 20
M  V30 20 2 20 21
M  V30 21 1 21 22
M  V30 22 1 22 23
M  V30 23 2 22 24
M  V30 24 1 24 25
M  V30 25 1 7 2
M  V30 26 2 25 8
M  V30 27 1 18 13
M  V30 28 1 24 19
M  V30 29 1 3 26
M  V30 30 1 4 27
M  V30 31 1 5 28
M  V30 32 1 6 29
M  V30 33 1 9 30
M  V30 34 1 11 31
M  V30 35 1 12 32
M  V30 36 1 12 33
M  V30 37 1 14 34
M  V30 38 1 15 35
M  V30 39 1 16 36
M  V30 40 1 18 37
M  V30 41 1 21 38
M  V30 END BOND
M  V30 END CTAB
M  END
>  <Dataset>  (230) 
ChEMBL_Kinases

>  <Ligand_Instance>  (230) 
nan

>  <PDB_ID>  (230) 
nan

>  <Standardized_SMILES>  (230) 
Fc1ccccc1-c1cc(NCc2cccnc2)n2ncc(Cl)c2n1

>  <Name>  (230) 
nan

>  <Pocket>  (230) 
nan

>  <ATP_Site>  (230) 
nan

>  <Peripheral>  (230) 
nan

>  <Num_H_Atoms_ProtBoundConf>  (230) 
nan

>  <Num_Resolved_Atoms>  (230) 
nan

>  <Num_Not_Resolved_Atoms>  (230) 
nan

$$$$
CHEMBL3642649
     RDKit          3D

  0  0  0  0  0  0  0  0  0  0999 V3000
M  V30 BEGIN CTAB
M  V30 COUNTS 38 41 0 0 0
M  V30 BEGIN ATOM
M  V30 1 F -0.975270 -3.667355 2.875591 0
M  V30 2 C 0.252758 -3.715842 2.312179 0
M  V30 3 C 1.084868 -4.715284 2.771805 0
M  V30 4 C 2.353339 -4.807088 2.226595 0
M  V30 5 C 2.725415 -3.891467 1.246498 0
M  V30 6 C 1.853563 -2.907123 0.819595 0
M  V30 7 C 0.582641 -2.793411 1.346938 0
M  V30 8 C -0.397514 -1.797355 0.961950 0
M  V30 9 C -0.152752 -0.840284 0.006402 0
M  V30 10 C -1.056509 0.110851 -0.378857 0
M  V30 11 N -0.841891 1.110116 -1.355939 0
M  V30 12 C -0.325198 2.417618 -1.019126 0
M  V30 13 C 0.996204 2.292524 -0.397172 0
M  V30 14 C 1.060381 2.162183 0.984300 0
M  V30 15 C 2.264509 2.042930 1.620454 0
M  V30 16 N 3.387354 2.053966 0.885038 0
M  V30 17 C 3.398646 2.176703 -0.455175 0
M  V30 18 C 2.192180 2.298446 -1.116992 0
M  V30 19 N -2.269021 0.097491 0.229653 0
M  V30 20 N -3.351423 0.834202 0.119629 0
M  V30 21 C -4.311300 0.410695 0.961715 0
M  V30 22 C -3.804227 -0.676055 1.660412 0
M  V30 23 Cl -4.614041 -1.609508 2.873760 0
M  V30 24 C -2.516276 -0.830407 1.161087 0
M  V30 25 N -1.628157 -1.764055 1.538649 0
M  V30 26 H 0.763410 -5.411913 3.536444 0
M  V30 27 H 3.059152 -5.568023 2.540988 0
M  V30 28 H 3.728930 -3.977494 0.826609 0
M  V30 29 H 2.150875 -2.207539 0.064179 0
M  V30 30 H 0.798718 -0.793353 -0.502926 0
M  V30 31 H -1.117637 0.713048 -2.271654 0
M  V30 32 H -1.033581 2.875641 -0.283459 0
M  V30 33 H -0.326397 3.098303 -1.885874 0
M  V30 34 H 0.143718 2.154828 1.568177 0
M  V30 35 H 2.264616 1.943807 2.697853 0
M  V30 36 H 4.308355 2.184483 -1.038778 0
M  V30 37 H 2.153321 2.399198 -2.191574 0
M  V30 38 H -5.327039 0.775390 1.143208 0
M  V30 END ATOM
M  V30 BEGIN BOND
M  V30 1 1 1 2
M  V30 2 2 2 3
M  V30 3 1 3 4
M  V30 4 2 4 5
M  V30 5 1 5 6
M  V30 6 2 6 7
M  V30 7 1 7 8
M  V30 8 1 8 9
M  V30 9 2 9 10
M  V30 10 1 10 11
M  V30 11 1 11 12
M  V30 12 1 12 13
M  V30 13 2 13 14
M  V30 14 1 14 15
M  V30 15 2 15 16
M  V30 16 1 16 17
M  V30 17 2 17 18
M  V30 18 1 10 19
M  V30 19 1 19 20
M  V30 20 2 20 21
M  V30 21 1 21 22
M  V30 22 1 22 23
M  V30 23 2 22 24
M  V30 24 1 24 25
M  V30 25 1 7 2
M  V30 26 2 25 8
M  V30 27 1 18 13
M  V30 28 1 24 19
M  V30 29 1 3 26
M  V30 30 1 4 27
M  V30 31 1 5 28
M  V30 32 1 6 29
M  V30 33 1 9 30
M  V30 34 1 11 31
M  V30 35 1 12 32
M  V30 36 1 12 33
M  V30 37 1 14 34
M  V30 38 1 15 35
M  V30 39 1 17 36
M  V30 40 1 18 37
M  V30 41 1 21 38
M  V30 END BOND
M  V30 END CTAB
M  END
>  <Dataset>  (231) 
ChEMBL_Kinases

>  <Ligand_Instance>  (231) 
nan

>  <PDB_ID>  (231) 
nan

>  <Standardized_SMILES>  (231) 
Fc1ccccc1-c1cc(NCc2ccncc2)n2ncc(Cl)c2n1

>  <Name>  (231) 
nan

>  <Pocket>  (231) 
nan

>  <ATP_Site>  (231) 
nan

>  <Peripheral>  (231) 
nan

>  <Num_H_Atoms_ProtBoundConf>  (231) 
nan

>  <Num_Resolved_Atoms>  (231) 
nan

>  <Num_Not_Resolved_Atoms>  (231) 
nan

$$$$
CHEMBL3642650
     RDKit          3D

  0  0  0  0  0  0  0  0  0  0999 V3000
M  V30 BEGIN CTAB
M  V30 COUNTS 38 41 0 0 0
M  V30 BEGIN ATOM
M  V30 1 Cl -1.381864 -3.923918 2.948183 0
M  V30 2 C 0.217009 -3.788510 2.233504 0
M  V30 3 C 1.162664 -4.727904 2.585146 0
M  V30 4 C 2.443268 -4.689966 2.068109 0
M  V30 5 C 2.744352 -3.676170 1.184261 0
M  V30 6 C 1.795083 -2.735526 0.832941 0
M  V30 7 C 0.500473 -2.771725 1.354223 0
M  V30 8 C -0.494299 -1.777406 0.979090 0
M  V30 9 C -0.271984 -0.721109 0.131685 0
M  V30 10 C -1.245125 0.208599 -0.202713 0
M  V30 11 N -0.815935 1.210455 -1.088981 0
M  V30 12 C -0.157911 2.508797 -1.063676 0
M  V30 13 C 1.168475 2.316599 -0.413314 0
M  V30 14 C 1.207026 2.518695 0.969622 0
M  V30 15 C 2.393818 2.349458 1.646887 0
M  V30 16 N 3.537778 1.989355 1.007958 0
M  V30 17 C 3.504228 1.791166 -0.342547 0
M  V30 18 C 2.325676 1.956653 -1.032377 0
M  V30 19 N -2.456036 0.015969 0.363706 0
M  V30 20 N -3.514713 0.779709 0.177275 0
M  V30 21 C -4.546730 0.272075 0.905440 0
M  V30 22 C -3.994514 -0.838957 1.521982 0
M  V30 23 Br -4.996402 -1.979977 2.699180 0
M  V30 24 C -2.665470 -1.019786 1.190929 0
M  V30 25 N -1.721943 -1.907087 1.505398 0
M  V30 26 H 0.996302 -5.545901 3.268620 0
M  V30 27 H 3.225446 -5.406487 2.313097 0
M  V30 28 H 3.750236 -3.635343 0.767773 0
M  V30 29 H 2.130357 -1.985784 0.135549 0
M  V30 30 H 0.717976 -0.642313 -0.272261 0
M  V30 31 H -1.129379 0.746178 -1.978231 0
M  V30 32 H -0.062037 2.827857 -2.114199 0
M  V30 33 H -0.792486 3.207081 -0.507674 0
M  V30 34 H 0.343103 2.802303 1.531657 0
M  V30 35 H 2.412562 2.506746 2.707041 0
M  V30 36 H 4.425451 1.505080 -0.827472 0
M  V30 37 H 2.279994 1.804559 -2.095932 0
M  V30 38 H -5.559729 0.635404 0.992303 0
M  V30 END ATOM
M  V30 BEGIN BOND
M  V30 1 1 1 2
M  V30 2 2 2 3
M  V30 3 1 3 4
M  V30 4 2 4 5
M  V30 5 1 5 6
M  V30 6 2 6 7
M  V30 7 1 7 8
M  V30 8 1 8 9
M  V30 9 2 9 10
M  V30 10 1 10 11
M  V30 11 1 11 12
M  V30 12 1 12 13
M  V30 13 2 13 14
M  V30 14 1 14 15
M  V30 15 2 15 16
M  V30 16 1 16 17
M  V30 17 2 17 18
M  V30 18 1 10 19
M  V30 19 1 19 20
M  V30 20 2 20 21
M  V30 21 1 21 22
M  V30 22 1 22 23
M  V30 23 2 22 24
M  V30 24 1 24 25
M  V30 25 1 7 2
M  V30 26 2 25 8
M  V30 27 1 18 13
M  V30 28 1 24 19
M  V30 29 1 3 26
M  V30 30 1 4 27
M  V30 31 1 5 28
M  V30 32 1 6 29
M  V30 33 1 9 30
M  V30 34 1 11 31
M  V30 35 1 12 32
M  V30 36 1 12 33
M  V30 37 1 14 34
M  V30 38 1 15 35
M  V30 39 1 17 36
M  V30 40 1 18 37
M  V30 41 1 21 38
M  V30 END BOND
M  V30 END CTAB
M  END
>  <Dataset>  (232) 
ChEMBL_Kinases

>  <Ligand_Instance>  (232) 
nan

>  <PDB_ID>  (232) 
nan

>  <Standardized_SMILES>  (232) 
Clc1ccccc1-c1cc(NCc2ccncc2)n2ncc(Br)c2n1

>  <Name>  (232) 
nan

>  <Pocket>  (232) 
nan

>  <ATP_Site>  (232) 
nan

>  <Peripheral>  (232) 
nan

>  <Num_H_Atoms_ProtBoundConf>  (232) 
nan

>  <Num_Resolved_Atoms>  (232) 
nan

>  <Num_Not_Resolved_Atoms>  (232) 
nan

$$$$
CHEMBL3643947
     RDKit          3D

  0  0  0  0  0  0  0  0  0  0999 V3000
M  V30 BEGIN CTAB
M  V30 COUNTS 41 43 0 0 0
M  V30 BEGIN ATOM
M  V30 1 C 0.065798 -7.810481 0.415508 0
M  V30 2 O 0.551736 -7.312496 1.616444 0
M  V30 3 C 0.444577 -6.036394 2.108257 0
M  V30 4 N -0.146215 -4.957136 1.568824 0
M  V30 5 C -0.126780 -3.787941 2.246091 0
M  V30 6 N -0.708581 -2.609079 1.759572 0
M  V30 7 C -0.599630 -1.394595 1.039280 0
M  V30 8 C 0.644440 -1.164612 0.487317 0
M  V30 9 C 0.905692 -0.029079 -0.245057 0
M  V30 10 C -0.145678 0.851609 -0.388253 0
M  V30 11 C 0.112117 2.057422 -1.164026 0
M  V30 12 O 0.216993 2.397199 -2.375477 0
M  V30 13 N 0.342249 3.338725 -0.599382 0
M  V30 14 C 0.587192 4.463336 -1.474847 0
M  V30 15 C 1.207759 5.545843 -0.584133 0
M  V30 16 O 2.215516 4.970535 0.184932 0
M  V30 17 C 1.725030 4.126221 1.176645 0
M  V30 18 C 0.345909 3.607533 0.846064 0
M  V30 19 C -1.386792 0.605517 0.172346 0
M  V30 20 C -1.657221 -0.523846 0.904634 0
M  V30 21 Cl -3.188056 -0.909813 1.645271 0
M  V30 22 N 0.461522 -3.632250 3.456478 0
M  V30 23 C 1.084852 -4.701715 4.061140 0
M  V30 24 C 1.042060 -5.869068 3.341123 0
M  V30 25 Cl 1.862258 -7.192174 4.181672 0
M  V30 26 H -0.895839 -7.274815 0.182989 0
M  V30 27 H 0.843598 -7.631661 -0.358167 0
M  V30 28 H -0.119767 -8.908034 0.540871 0
M  V30 29 H -1.682761 -2.794666 2.158761 0
M  V30 30 H 1.481561 -1.863135 0.598596 0
M  V30 31 H 1.862211 0.164766 -0.678817 0
M  V30 32 H -0.378234 4.849172 -1.837745 0
M  V30 33 H 1.272604 4.253834 -2.293010 0
M  V30 34 H 0.439447 6.039584 0.049192 0
M  V30 35 H 1.701868 6.303171 -1.240031 0
M  V30 36 H 1.706265 4.630701 2.166806 0
M  V30 37 H 2.381817 3.242999 1.295017 0
M  V30 38 H 0.118131 2.687074 1.407524 0
M  V30 39 H -0.370312 4.411756 1.116505 0
M  V30 40 H -2.201946 1.306708 0.050610 0
M  V30 41 H 1.537445 -4.546765 5.015556 0
M  V30 END ATOM
M  V30 BEGIN BOND
M  V30 1 1 1 2
M  V30 2 1 2 3
M  V30 3 2 3 4
M  V30 4 1 4 5
M  V30 5 1 5 6
M  V30 6 1 6 7
M  V30 7 2 7 8
M  V30 8 1 8 9
M  V30 9 2 9 10
M  V30 10 1 10 11
M  V30 11 2 11 12
M  V30 12 1 11 13
M  V30 13 1 13 14
M  V30 14 1 14 15
M  V30 15 1 15 16
M  V30 16 1 16 17
M  V30 17 1 17 18
M  V30 18 1 10 19
M  V30 19 2 19 20
M  V30 20 1 20 21
M  V30 21 2 5 22
M  V30 22 1 22 23
M  V30 23 2 23 24
M  V30 24 1 24 25
M  V30 25 1 24 3
M  V30 26 1 20 7
M  V30 27 1 18 13
M  V30 28 1 1 26
M  V30 29 1 1 27
M  V30 30 1 1 28
M  V30 31 1 6 29
M  V30 32 1 8 30
M  V30 33 1 9 31
M  V30 34 1 14 32
M  V30 35 1 14 33
M  V30 36 1 15 34
M  V30 37 1 15 35
M  V30 38 1 17 36
M  V30 39 1 17 37
M  V30 40 1 18 38
M  V30 41 1 18 39
M  V30 42 1 19 40
M  V30 43 1 23 41
M  V30 END BOND
M  V30 END CTAB
M  END
>  <Dataset>  (233) 
ChEMBL_Kinases

>  <Ligand_Instance>  (233) 
nan

>  <PDB_ID>  (233) 
nan

>  <Standardized_SMILES>  (233) 
COc1nc(Nc2ccc(C(=O)N3CCOCC3)cc2Cl)ncc1Cl

>  <Name>  (233) 
nan

>  <Pocket>  (233) 
nan

>  <ATP_Site>  (233) 
nan

>  <Peripheral>  (233) 
nan

>  <Num_H_Atoms_ProtBoundConf>  (233) 
nan

>  <Num_Resolved_Atoms>  (233) 
nan

>  <Num_Not_Resolved_Atoms>  (233) 
nan

$$$$
CHEMBL3642652
     RDKit          3D

  0  0  0  0  0  0  0  0  0  0999 V3000
M  V30 BEGIN CTAB
M  V30 COUNTS 40 42 0 0 0
M  V30 BEGIN ATOM
M  V30 1 C -1.480071 -3.706542 1.654424 0
M  V30 2 C -0.248476 -2.928554 1.342915 0
M  V30 3 C 0.514536 -2.499440 2.571571 0
M  V30 4 C 0.630931 -3.800341 0.453281 0
M  V30 5 C -0.606486 -1.750675 0.507141 0
M  V30 6 C 0.358995 -0.841752 0.063334 0
M  V30 7 C 0.015758 0.263664 -0.722696 0
M  V30 8 N 1.048084 1.145709 -1.138413 0
M  V30 9 C 1.540256 2.314375 -0.472918 0
M  V30 10 C 2.084147 2.030128 0.871414 0
M  V30 11 C 3.418730 1.708635 1.046454 0
M  V30 12 C 3.987403 1.433492 2.273679 0
M  V30 13 N 3.185229 1.482790 3.369382 0
M  V30 14 C 1.892373 1.788309 3.249562 0
M  V30 15 C 1.314015 2.065546 2.022994 0
M  V30 16 N -1.300106 0.423868 -1.042151 0
M  V30 17 N -1.870948 1.374871 -1.763091 0
M  V30 18 C -3.214356 1.173831 -1.848318 0
M  V30 19 C -3.437528 0.006707 -1.113464 0
M  V30 20 Br -5.128340 -0.825156 -0.838329 0
M  V30 21 C -2.234484 -0.452722 -0.614671 0
M  V30 22 N -1.892954 -1.528710 0.151670 0
M  V30 23 H -1.446989 -4.750200 1.249831 0
M  V30 24 H -1.684846 -3.830035 2.734594 0
M  V30 25 H -2.367860 -3.250567 1.168170 0
M  V30 26 H 0.110153 -1.584199 3.029640 0
M  V30 27 H 1.592759 -2.326612 2.304251 0
M  V30 28 H 0.485717 -3.282011 3.341466 0
M  V30 29 H 1.474825 -3.151245 0.135109 0
M  V30 30 H 0.954365 -4.711736 0.986318 0
M  V30 31 H 0.013457 -4.033509 -0.451665 0
M  V30 32 H 1.370754 -1.072479 0.380130 0
M  V30 33 H 1.299852 0.668750 -2.038926 0
M  V30 34 H 0.770025 3.114224 -0.383312 0
M  V30 35 H 2.354309 2.728801 -1.089601 0
M  V30 36 H 4.068591 1.665192 0.187833 0
M  V30 37 H 5.023819 1.183125 2.416095 0
M  V30 38 H 1.282762 1.819154 4.136993 0
M  V30 39 H 0.272899 2.309951 1.940866 0
M  V30 40 H -3.947822 1.776916 -2.365737 0
M  V30 END ATOM
M  V30 BEGIN BOND
M  V30 1 1 1 2
M  V30 2 1 2 3
M  V30 3 1 2 4
M  V30 4 1 2 5
M  V30 5 1 5 6
M  V30 6 2 6 7
M  V30 7 1 7 8
M  V30 8 1 8 9
M  V30 9 1 9 10
M  V30 10 2 10 11
M  V30 11 1 11 12
M  V30 12 2 12 13
M  V30 13 1 13 14
M  V30 14 2 14 15
M  V30 15 1 7 16
M  V30 16 1 16 17
M  V30 17 2 17 18
M  V30 18 1 18 19
M  V30 19 1 19 20
M  V30 20 2 19 21
M  V30 21 1 21 22
M  V30 22 2 22 5
M  V30 23 1 15 10
M  V30 24 1 21 16
M  V30 25 1 1 23
M  V30 26 1 1 24
M  V30 27 1 1 25
M  V30 28 1 3 26
M  V30 29 1 3 27
M  V30 30 1 3 28
M  V30 31 1 4 29
M  V30 32 1 4 30
M  V30 33 1 4 31
M  V30 34 1 6 32
M  V30 35 1 8 33
M  V30 36 1 9 34
M  V30 37 1 9 35
M  V30 38 1 11 36
M  V30 39 1 12 37
M  V30 40 1 14 38
M  V30 41 1 15 39
M  V30 42 1 18 40
M  V30 END BOND
M  V30 END CTAB
M  END
>  <Dataset>  (234) 
ChEMBL_Kinases

>  <Ligand_Instance>  (234) 
nan

>  <PDB_ID>  (234) 
nan

>  <Standardized_SMILES>  (234) 
CC(C)(C)c1cc(NCc2ccncc2)n2ncc(Br)c2n1

>  <Name>  (234) 
nan

>  <Pocket>  (234) 
nan

>  <ATP_Site>  (234) 
nan

>  <Peripheral>  (234) 
nan

>  <Num_H_Atoms_ProtBoundConf>  (234) 
nan

>  <Num_Resolved_Atoms>  (234) 
nan

>  <Num_Not_Resolved_Atoms>  (234) 
nan

$$$$
CHEMBL3642653
     RDKit          3D

  0  0  0  0  0  0  0  0  0  0999 V3000
M  V30 BEGIN CTAB
M  V30 COUNTS 39 42 0 0 0
M  V30 BEGIN ATOM
M  V30 1 N 0.166507 -6.159688 3.403737 0
M  V30 2 C 0.694576 -5.385688 2.723291 0
M  V30 3 C 1.345045 -4.422974 1.852594 0
M  V30 4 C 2.398801 -4.667868 1.003929 0
M  V30 5 N 2.622457 -3.475962 0.437314 0
M  V30 6 N 1.772038 -2.552085 0.896666 0
M  V30 7 C 1.677876 -1.228883 0.568495 0
M  V30 8 N 2.531162 -0.591934 -0.368934 0
M  V30 9 C 2.647477 0.714801 -0.927388 0
M  V30 10 C 1.524758 1.179211 -1.742306 0
M  V30 11 C 1.574549 0.768884 -3.083257 0
M  V30 12 C 0.592078 1.134914 -3.993932 0
M  V30 13 N -0.461111 1.903549 -3.639376 0
M  V30 14 C -0.551484 2.325902 -2.348818 0
M  V30 15 C 0.427474 1.957405 -1.455814 0
M  V30 16 C 0.668408 -0.557190 1.246506 0
M  V30 17 C -0.198669 -1.083643 2.170967 0
M  V30 18 C -1.240200 -0.327894 2.848261 0
M  V30 19 C -1.506136 1.009817 2.666377 0
M  V30 20 C -2.498965 1.710155 3.316193 0
M  V30 21 C -3.308576 1.029492 4.233348 0
M  V30 22 C -3.043737 -0.309340 4.416447 0
M  V30 23 C -2.041186 -1.006825 3.757282 0
M  V30 24 N -0.008967 -2.404974 2.414383 0
M  V30 25 C 0.951190 -3.104759 1.788767 0
M  V30 26 H 2.843882 -5.636158 0.914778 0
M  V30 27 H 3.262132 -1.275461 -0.741182 0
M  V30 28 H 3.568276 0.799352 -1.530503 0
M  V30 29 H 2.783687 1.477977 -0.111929 0
M  V30 30 H 2.352130 0.154495 -3.511308 0
M  V30 31 H 0.618070 0.825153 -5.029595 0
M  V30 32 H -1.354238 2.943937 -1.962283 0
M  V30 33 H 0.387955 2.288231 -0.429096 0
M  V30 34 H 0.543389 0.486933 1.039660 0
M  V30 35 H -0.900970 1.558155 1.969033 0
M  V30 36 H -2.666998 2.763122 3.136881 0
M  V30 37 H -4.103745 1.502032 4.780571 0
M  V30 38 H -3.622027 -0.917716 5.109616 0
M  V30 39 H -1.859944 -2.065280 3.926738 0
M  V30 END ATOM
M  V30 BEGIN BOND
M  V30 1 3 1 2
M  V30 2 1 2 3
M  V30 3 1 3 4
M  V30 4 2 4 5
M  V30 5 1 5 6
M  V30 6 1 6 7
M  V30 7 1 7 8
M  V30 8 1 8 9
M  V30 9 1 9 10
M  V30 10 2 10 11
M  V30 11 1 11 12
M  V30 12 2 12 13
M  V30 13 1 13 14
M  V30 14 2 14 15
M  V30 15 2 7 16
M  V30 16 1 16 17
M  V30 17 1 17 18
M  V30 18 2 18 19
M  V30 19 1 19 20
M  V30 20 2 20 21
M  V30 21 1 21 22
M  V30 22 2 22 23
M  V30 23 2 17 24
M  V30 24 1 24 25
M  V30 25 2 25 3
M  V30 26 1 25 6
M  V30 27 1 15 10
M  V30 28 1 23 18
M  V30 29 1 4 26
M  V30 30 1 8 27
M  V30 31 1 9 28
M  V30 32 1 9 29
M  V30 33 1 11 30
M  V30 34 1 12 31
M  V30 35 1 14 32
M  V30 36 1 15 33
M  V30 37 1 16 34
M  V30 38 1 19 35
M  V30 39 1 20 36
M  V30 40 1 21 37
M  V30 41 1 22 38
M  V30 42 1 23 39
M  V30 END BOND
M  V30 END CTAB
M  END
>  <Dataset>  (235) 
ChEMBL_Kinases

>  <Ligand_Instance>  (235) 
nan

>  <PDB_ID>  (235) 
nan

>  <Standardized_SMILES>  (235) 
N#Cc1cnn2c(NCc3ccncc3)cc(-c3ccccc3)nc12

>  <Name>  (235) 
nan

>  <Pocket>  (235) 
nan

>  <ATP_Site>  (235) 
nan

>  <Peripheral>  (235) 
nan

>  <Num_H_Atoms_ProtBoundConf>  (235) 
nan

>  <Num_Resolved_Atoms>  (235) 
nan

>  <Num_Not_Resolved_Atoms>  (235) 
nan

$$$$
CHEMBL3642654
     RDKit          3D

  0  0  0  0  0  0  0  0  0  0999 V3000
M  V30 BEGIN CTAB
M  V30 COUNTS 45 48 0 0 0
M  V30 BEGIN ATOM
M  V30 1 C -0.516898 -4.520773 0.161780 0
M  V30 2 N 0.455698 -4.690909 1.193229 0
M  V30 3 C -0.164544 -4.593151 2.476132 0
M  V30 4 C -0.567555 -3.182875 2.867023 0
M  V30 5 N 0.124674 -2.277153 1.969006 0
M  V30 6 C -0.555075 -1.217111 1.316842 0
M  V30 7 C 0.013584 -0.311079 0.449970 0
M  V30 8 C -0.667260 0.709226 -0.172813 0
M  V30 9 N -0.075698 1.637645 -1.050167 0
M  V30 10 C 1.273999 1.883023 -1.485703 0
M  V30 11 C 2.138958 2.374245 -0.394893 0
M  V30 12 C 2.029984 3.765604 -0.257342 0
M  V30 13 C 2.757609 4.455367 0.696682 0
M  V30 14 C 3.620805 3.808128 1.553387 0
M  V30 15 N 3.694545 2.478890 1.386818 0
M  V30 16 C 3.010646 1.778139 0.480174 0
M  V30 17 N -1.980539 0.801566 0.105276 0
M  V30 18 N -2.920254 1.640586 -0.305760 0
M  V30 19 C -4.112760 1.375022 0.222272 0
M  V30 20 C -3.903031 0.278476 1.031582 0
M  V30 21 C -2.572091 -0.058250 0.941597 0
M  V30 22 N -1.876231 -1.063716 1.548935 0
M  V30 23 C 1.534801 -2.581842 1.828355 0
M  V30 24 C 1.604446 -3.852820 0.998897 0
M  V30 25 H -1.502083 -4.271587 0.601816 0
M  V30 26 H -0.206374 -3.629614 -0.455089 0
M  V30 27 H -0.612865 -5.388428 -0.523252 0
M  V30 28 H 0.425884 -5.106465 3.272314 0
M  V30 29 H -1.122429 -5.178536 2.404949 0
M  V30 30 H -0.151202 -3.000447 3.877639 0
M  V30 31 H -1.670040 -3.037258 2.843292 0
M  V30 32 H 1.050665 -0.453937 0.276560 0
M  V30 33 H -0.739943 2.329426 -1.513422 0
M  V30 34 H 1.333943 2.552512 -2.365814 0
M  V30 35 H 1.736919 0.896188 -1.828827 0
M  V30 36 H 1.399739 4.419339 -0.848819 0
M  V30 37 H 2.692351 5.538400 0.825553 0
M  V30 38 H 4.216716 4.282603 2.317729 0
M  V30 39 H 3.065933 0.718615 0.329355 0
M  V30 40 H -5.018140 1.934140 0.022824 0
M  V30 41 H -4.662313 -0.212365 1.621894 0
M  V30 42 H 1.958467 -2.767489 2.838806 0
M  V30 43 H 2.132315 -1.760288 1.403212 0
M  V30 44 H 1.575129 -3.518967 -0.067195 0
M  V30 45 H 2.578344 -4.355084 1.125342 0
M  V30 END ATOM
M  V30 BEGIN BOND
M  V30 1 1 1 2
M  V30 2 1 2 3
M  V30 3 1 3 4
M  V30 4 1 4 5
M  V30 5 1 5 6
M  V30 6 1 6 7
M  V30 7 2 7 8
M  V30 8 1 8 9
M  V30 9 1 9 10
M  V30 10 1 10 11
M  V30 11 2 11 12
M  V30 12 1 12 13
M  V30 13 2 13 14
M  V30 14 1 14 15
M  V30 15 2 15 16
M  V30 16 1 8 17
M  V30 17 1 17 18
M  V30 18 2 18 19
M  V30 19 1 19 20
M  V30 20 2 20 21
M  V30 21 1 21 22
M  V30 22 1 5 23
M  V30 23 1 23 24
M  V30 24 1 24 2
M  V30 25 2 22 6
M  V30 26 1 16 11
M  V30 27 1 21 17
M  V30 28 1 1 25
M  V30 29 1 1 26
M  V30 30 1 1 27
M  V30 31 1 3 28
M  V30 32 1 3 29
M  V30 33 1 4 30
M  V30 34 1 4 31
M  V30 35 1 7 32
M  V30 36 1 9 33
M  V30 37 1 10 34
M  V30 38 1 10 35
M  V30 39 1 12 36
M  V30 40 1 13 37
M  V30 41 1 14 38
M  V30 42 1 16 39
M  V30 43 1 19 40
M  V30 44 1 20 41
M  V30 45 1 23 42
M  V30 46 1 23 43
M  V30 47 1 24 44
M  V30 48 1 24 45
M  V30 END BOND
M  V30 END CTAB
M  END
>  <Dataset>  (236) 
ChEMBL_Kinases

>  <Ligand_Instance>  (236) 
nan

>  <PDB_ID>  (236) 
nan

>  <Standardized_SMILES>  (236) 
CN1CCN(c2cc(NCc3cccnc3)n3nccc3n2)CC1

>  <Name>  (236) 
nan

>  <Pocket>  (236) 
nan

>  <ATP_Site>  (236) 
nan

>  <Peripheral>  (236) 
nan

>  <Num_H_Atoms_ProtBoundConf>  (236) 
nan

>  <Num_Resolved_Atoms>  (236) 
nan

>  <Num_Not_Resolved_Atoms>  (236) 
nan

$$$$
CHEMBL3642655
     RDKit          3D

  0  0  0  0  0  0  0  0  0  0999 V3000
M  V30 BEGIN CTAB
M  V30 COUNTS 45 48 0 0 0
M  V30 BEGIN ATOM
M  V30 1 C -0.580354 -6.228253 2.098167 0
M  V30 2 N -0.012044 -5.025418 1.561477 0
M  V30 3 C -0.414623 -4.785396 0.205651 0
M  V30 4 C 0.335617 -3.557849 -0.322401 0
M  V30 5 N 0.202597 -2.448926 0.614716 0
M  V30 6 C -0.136008 -1.093481 0.346253 0
M  V30 7 C 0.484935 -0.330925 -0.618225 0
M  V30 8 C 0.049506 0.971279 -0.800561 0
M  V30 9 N 0.774804 1.656698 -1.813208 0
M  V30 10 C 2.075377 2.006612 -1.293874 0
M  V30 11 C 2.027471 2.836616 -0.071658 0
M  V30 12 C 2.058492 2.349634 1.218629 0
M  V30 13 C 2.015409 3.117246 2.354451 0
M  V30 14 C 1.933396 4.497642 2.205794 0
M  V30 15 N 1.898799 5.038099 0.959955 0
M  V30 16 C 1.944714 4.229521 -0.122306 0
M  V30 17 N -0.952501 1.460848 -0.051826 0
M  V30 18 N -1.500806 2.655824 -0.093292 0
M  V30 19 C -2.490941 2.814878 0.783304 0
M  V30 20 C -2.525983 1.561967 1.417525 0
M  V30 21 Br -3.703765 1.011309 2.806787 0
M  V30 22 C -1.565703 0.726712 0.890464 0
M  V30 23 N -1.137049 -0.535717 1.064240 0
M  V30 24 C 0.482559 -2.747369 2.006166 0
M  V30 25 C -0.401537 -3.907200 2.404819 0
M  V30 26 H -1.636307 -6.404780 1.822567 0
M  V30 27 H 0.055287 -7.097353 1.869765 0
M  V30 28 H -0.566898 -6.111810 3.221837 0
M  V30 29 H -1.512201 -4.675473 0.062288 0
M  V30 30 H -0.044973 -5.648479 -0.416150 0
M  V30 31 H 0.007026 -3.297283 -1.345874 0
M  V30 32 H 1.405065 -3.831548 -0.353829 0
M  V30 33 H 1.285101 -0.793805 -1.183422 0
M  V30 34 H 0.555002 1.931958 -2.790831 0
M  V30 35 H 2.734638 2.500884 -2.049313 0
M  V30 36 H 2.658085 1.088101 -1.003847 0
M  V30 37 H 2.123267 1.264625 1.354271 0
M  V30 38 H 2.046602 2.632633 3.341050 0
M  V30 39 H 1.903173 5.048800 3.123357 0
M  V30 40 H 1.910932 4.744227 -1.050061 0
M  V30 41 H -3.131105 3.656745 0.996865 0
M  V30 42 H 0.324758 -1.861368 2.672661 0
M  V30 43 H 1.581231 -3.017827 2.105003 0
M  V30 44 H -1.432225 -3.620745 2.110612 0
M  V30 45 H -0.299992 -4.154861 3.482148 0
M  V30 END ATOM
M  V30 BEGIN BOND
M  V30 1 1 1 2
M  V30 2 1 2 3
M  V30 3 1 3 4
M  V30 4 1 4 5
M  V30 5 1 5 6
M  V30 6 1 6 7
M  V30 7 2 7 8
M  V30 8 1 8 9
M  V30 9 1 9 10
M  V30 10 1 10 11
M  V30 11 2 11 12
M  V30 12 1 12 13
M  V30 13 2 13 14
M  V30 14 1 14 15
M  V30 15 2 15 16
M  V30 16 1 8 17
M  V30 17 1 17 18
M  V30 18 2 18 19
M  V30 19 1 19 20
M  V30 20 1 20 21
M  V30 21 2 20 22
M  V30 22 1 22 23
M  V30 23 1 5 24
M  V30 24 1 24 25
M  V30 25 1 25 2
M  V30 26 2 23 6
M  V30 27 1 16 11
M  V30 28 1 22 17
M  V30 29 1 1 26
M  V30 30 1 1 27
M  V30 31 1 1 28
M  V30 32 1 3 29
M  V30 33 1 3 30
M  V30 34 1 4 31
M  V30 35 1 4 32
M  V30 36 1 7 33
M  V30 37 1 9 34
M  V30 38 1 10 35
M  V30 39 1 10 36
M  V30 40 1 12 37
M  V30 41 1 13 38
M  V30 42 1 14 39
M  V30 43 1 16 40
M  V30 44 1 19 41
M  V30 45 1 24 42
M  V30 46 1 24 43
M  V30 47 1 25 44
M  V30 48 1 25 45
M  V30 END BOND
M  V30 END CTAB
M  END
>  <Dataset>  (237) 
ChEMBL_Kinases

>  <Ligand_Instance>  (237) 
nan

>  <PDB_ID>  (237) 
nan

>  <Standardized_SMILES>  (237) 
CN1CCN(c2cc(NCc3cccnc3)n3ncc(Br)c3n2)CC1

>  <Name>  (237) 
nan

>  <Pocket>  (237) 
nan

>  <ATP_Site>  (237) 
nan

>  <Peripheral>  (237) 
nan

>  <Num_H_Atoms_ProtBoundConf>  (237) 
nan

>  <Num_Resolved_Atoms>  (237) 
nan

>  <Num_Not_Resolved_Atoms>  (237) 
nan

$$$$
CHEMBL364340
     RDKit          3D

  0  0  0  0  0  0  0  0  0  0999 V3000
M  V30 BEGIN CTAB
M  V30 COUNTS 36 39 0 0 0
M  V30 BEGIN ATOM
M  V30 1 F 3.193508 -3.353879 4.226510 0
M  V30 2 C 2.447307 -2.594985 3.395115 0
M  V30 3 C 1.947920 -3.195932 2.255419 0
M  V30 4 C 1.176517 -2.472520 1.363963 0
M  V30 5 C 0.891932 -1.127181 1.602542 0
M  V30 6 C 0.094025 -0.278442 0.733809 0
M  V30 7 C 0.358542 0.087999 -0.570130 0
M  V30 8 C 1.511652 -0.299275 -1.377203 0
M  V30 9 C 1.172300 -1.012504 -2.513403 0
M  V30 10 C 2.139282 -1.459261 -3.393378 0
M  V30 11 N 3.438491 -1.191269 -3.133563 0
M  V30 12 C 3.789873 -0.497670 -2.031715 0
M  V30 13 C 2.845991 -0.040347 -1.137495 0
M  V30 14 N -0.656833 0.892433 -0.998182 0
M  V30 15 N -1.541952 1.042388 -0.016562 0
M  V30 16 C -1.086338 0.332672 1.032525 0
M  V30 17 O -1.906469 0.383908 2.157634 0
M  V30 18 C -3.330197 0.340264 2.072921 0
M  V30 19 C -3.796496 0.733294 0.689115 0
M  V30 20 C -2.799158 1.751288 0.158353 0
M  V30 21 C 1.391731 -0.515605 2.748506 0
M  V30 22 C 2.169252 -1.262274 3.637782 0
M  V30 23 H 2.105852 -4.230537 1.971293 0
M  V30 24 H 0.740967 -2.837476 0.453935 0
M  V30 25 H 0.158534 -1.274438 -2.804022 0
M  V30 26 H 1.916018 -2.022515 -4.296822 0
M  V30 27 H 4.819234 -0.252128 -1.770884 0
M  V30 28 H 3.032196 0.519903 -0.233556 0
M  V30 29 H -3.813480 0.984279 2.842099 0
M  V30 30 H -3.665599 -0.722221 2.231650 0
M  V30 31 H -4.831507 1.137098 0.720279 0
M  V30 32 H -3.711852 -0.159428 0.017761 0
M  V30 33 H -3.128870 2.259438 -0.751524 0
M  V30 34 H -2.617203 2.473884 1.004888 0
M  V30 35 H 1.196237 0.526019 2.974079 0
M  V30 36 H 2.562256 -0.791851 4.533243 0
M  V30 END ATOM
M  V30 BEGIN BOND
M  V30 1 1 1 2
M  V30 2 2 2 3
M  V30 3 1 3 4
M  V30 4 2 4 5
M  V30 5 1 5 6
M  V30 6 1 6 7
M  V30 7 1 7 8
M  V30 8 2 8 9
M  V30 9 1 9 10
M  V30 10 2 10 11
M  V30 11 1 11 12
M  V30 12 2 12 13
M  V30 13 2 7 14
M  V30 14 1 14 15
M  V30 15 1 15 16
M  V30 16 1 16 17
M  V30 17 1 17 18
M  V30 18 1 18 19
M  V30 19 1 19 20
M  V30 20 1 5 21
M  V30 21 2 21 22
M  V30 22 1 22 2
M  V30 23 2 16 6
M  V30 24 1 13 8
M  V30 25 1 20 15
M  V30 26 1 3 23
M  V30 27 1 4 24
M  V30 28 1 9 25
M  V30 29 1 10 26
M  V30 30 1 12 27
M  V30 31 1 13 28
M  V30 32 1 18 29
M  V30 33 1 18 30
M  V30 34 1 19 31
M  V30 35 1 19 32
M  V30 36 1 20 33
M  V30 37 1 20 34
M  V30 38 1 21 35
M  V30 39 1 22 36
M  V30 END BOND
M  V30 END CTAB
M  END
>  <Dataset>  (238) 
ChEMBL_Kinases

>  <Ligand_Instance>  (238) 
nan

>  <PDB_ID>  (238) 
nan

>  <Standardized_SMILES>  (238) 
Fc1ccc(-c2c(-c3ccncc3)nn3c2OCCC3)cc1

>  <Name>  (238) 
nan

>  <Pocket>  (238) 
nan

>  <ATP_Site>  (238) 
nan

>  <Peripheral>  (238) 
nan

>  <Num_H_Atoms_ProtBoundConf>  (238) 
nan

>  <Num_Resolved_Atoms>  (238) 
nan

>  <Num_Not_Resolved_Atoms>  (238) 
nan

$$$$
CHEMBL3643944
     RDKit          3D

  0  0  0  0  0  0  0  0  0  0999 V3000
M  V30 BEGIN CTAB
M  V30 COUNTS 49 51 0 0 0
M  V30 BEGIN ATOM
M  V30 1 C -1.815069 -4.269329 3.168240 0
M  V30 2 C -0.674814 -3.916492 2.258074 0
M  V30 3 N 0.621831 -4.246670 2.818718 0
M  V30 4 C 1.759025 -3.954816 1.984453 0
M  V30 5 N 1.629786 -3.422212 0.768974 0
M  V30 6 C 2.614761 -3.114633 -0.081390 0
M  V30 7 N 2.034669 -2.573875 -1.262258 0
M  V30 8 C 1.549376 -1.248029 -1.095383 0
M  V30 9 C 1.657236 -0.539447 0.103866 0
M  V30 10 C 1.194179 0.734697 0.325063 0
M  V30 11 O 1.323139 1.400370 1.530807 0
M  V30 12 C 1.960920 0.769143 2.633791 0
M  V30 13 C 0.565826 1.388155 -0.711737 0
M  V30 14 C 0.014379 2.744685 -0.654213 0
M  V30 15 O 0.534379 3.831649 -0.957540 0
M  V30 16 N -1.335074 2.602660 -0.149147 0
M  V30 17 C -2.109892 1.424616 0.277393 0
M  V30 18 C -3.164398 1.185542 -0.764703 0
M  V30 19 O -3.589031 2.369391 -1.368246 0
M  V30 20 C -3.579056 3.354894 -0.384220 0
M  V30 21 C -2.178553 3.804613 -0.005776 0
M  V30 22 C 0.425510 0.747249 -1.924211 0
M  V30 23 C 0.907246 -0.532924 -2.098163 0
M  V30 24 Cl 0.750879 -1.378800 -3.631024 0
M  V30 25 N 3.866774 -3.397669 0.400641 0
M  V30 26 C 4.045227 -3.925987 1.598377 0
M  V30 27 C 3.029192 -4.234059 2.453273 0
M  V30 28 Cl 3.332123 -4.921381 4.017192 0
M  V30 29 H -1.939582 -3.466234 3.908703 0
M  V30 30 H -1.670269 -5.263480 3.649740 0
M  V30 31 H -2.748025 -4.307317 2.531157 0
M  V30 32 H -0.839203 -4.450765 1.281857 0
M  V30 33 H -0.654955 -2.814172 2.012329 0
M  V30 34 H 0.766573 -4.665956 3.762114 0
M  V30 35 H 1.915008 -2.990438 -2.212970 0
M  V30 36 H 2.133702 -1.020050 0.923518 0
M  V30 37 H 1.767826 1.382615 3.532323 0
M  V30 38 H 1.553822 -0.231604 2.808965 0
M  V30 39 H 3.040698 0.783277 2.432054 0
M  V30 40 H -2.545507 1.663446 1.277063 0
M  V30 41 H -1.446756 0.555541 0.450868 0
M  V30 42 H -2.916503 0.383414 -1.491747 0
M  V30 43 H -4.071085 0.781441 -0.227646 0
M  V30 44 H -4.013371 2.872028 0.515471 0
M  V30 45 H -4.200575 4.230718 -0.664039 0
M  V30 46 H -2.120628 4.038353 1.093028 0
M  V30 47 H -1.817977 4.636762 -0.614852 0
M  V30 48 H -0.055826 1.185086 -2.809305 0
M  V30 49 H 5.084963 -4.091457 1.836115 0
M  V30 END ATOM
M  V30 BEGIN BOND
M  V30 1 1 1 2
M  V30 2 1 2 3
M  V30 3 1 3 4
M  V30 4 2 4 5
M  V30 5 1 5 6
M  V30 6 1 6 7
M  V30 7 1 7 8
M  V30 8 2 8 9
M  V30 9 1 9 10
M  V30 10 1 10 11
M  V30 11 1 11 12
M  V30 12 2 10 13
M  V30 13 1 13 14
M  V30 14 2 14 15
M  V30 15 1 14 16
M  V30 16 1 16 17
M  V30 17 1 17 18
M  V30 18 1 18 19
M  V30 19 1 19 20
M  V30 20 1 20 21
M  V30 21 1 13 22
M  V30 22 2 22 23
M  V30 23 1 23 24
M  V30 24 2 6 25
M  V30 25 1 25 26
M  V30 26 2 26 27
M  V30 27 1 27 28
M  V30 28 1 27 4
M  V30 29 1 23 8
M  V30 30 1 21 16
M  V30 31 1 1 29
M  V30 32 1 1 30
M  V30 33 1 1 31
M  V30 34 1 2 32
M  V30 35 1 2 33
M  V30 36 1 3 34
M  V30 37 1 7 35
M  V30 38 1 9 36
M  V30 39 1 12 37
M  V30 40 1 12 38
M  V30 41 1 12 39
M  V30 42 1 17 40
M  V30 43 1 17 41
M  V30 44 1 18 42
M  V30 45 1 18 43
M  V30 46 1 20 44
M  V30 47 1 20 45
M  V30 48 1 21 46
M  V30 49 1 21 47
M  V30 50 1 22 48
M  V30 51 1 26 49
M  V30 END BOND
M  V30 END CTAB
M  END
>  <Dataset>  (239) 
ChEMBL_Kinases

>  <Ligand_Instance>  (239) 
nan

>  <PDB_ID>  (239) 
nan

>  <Standardized_SMILES>  (239) 
CCNc1nc(Nc2cc(OC)c(C(=O)N3CCOCC3)cc2Cl)ncc1Cl

>  <Name>  (239) 
nan

>  <Pocket>  (239) 
nan

>  <ATP_Site>  (239) 
nan

>  <Peripheral>  (239) 
nan

>  <Num_H_Atoms_ProtBoundConf>  (239) 
nan

>  <Num_Resolved_Atoms>  (239) 
nan

>  <Num_Not_Resolved_Atoms>  (239) 
nan

$$$$
CHEMBL3643945
     RDKit          3D

  0  0  0  0  0  0  0  0  0  0999 V3000
M  V30 BEGIN CTAB
M  V30 COUNTS 48 50 0 0 0
M  V30 BEGIN ATOM
M  V30 1 C -1.591218 -0.295334 4.813478 0
M  V30 2 O -1.057284 0.185757 3.751351 0
M  V30 3 C -0.501023 0.670785 2.697611 0
M  V30 4 C 0.837715 1.096451 2.613774 0
M  V30 5 C 1.380448 1.614134 1.421611 0
M  V30 6 C 2.770984 1.928021 1.720292 0
M  V30 7 O 3.627653 2.695349 2.149098 0
M  V30 8 N 3.308091 0.661265 1.240482 0
M  V30 9 C 4.708281 0.337182 1.339016 0
M  V30 10 C 5.319585 0.324230 -0.033498 0
M  V30 11 O 4.730649 -0.643125 -0.808851 0
M  V30 12 C 3.333403 -0.565413 -0.857515 0
M  V30 13 C 2.786522 -0.534984 0.561132 0
M  V30 14 C 0.590038 1.711673 0.320518 0
M  V30 15 F 1.230226 2.226076 -0.727403 0
M  V30 16 C -0.708119 1.302495 0.383227 0
M  V30 17 C -1.255021 0.789956 1.541591 0
M  V30 18 N -2.638011 0.375014 1.634100 0
M  V30 19 C -3.085033 0.018183 0.296671 0
M  V30 20 N -3.568450 0.324628 -0.889256 0
M  V30 21 C -3.764168 -0.613736 -1.817099 0
M  V30 22 C -3.512895 -1.942532 -1.699185 0
M  V30 23 C -3.707632 -2.996015 -2.700479 0
M  V30 24 F -2.496026 -3.642133 -2.989278 0
M  V30 25 F -4.623226 -3.953541 -2.290353 0
M  V30 26 F -4.178725 -2.484888 -3.899001 0
M  V30 27 C -3.006095 -2.270563 -0.457761 0
M  V30 28 O -2.714659 -3.651727 -0.229127 0
M  V30 29 C -2.181732 -3.990923 1.044002 0
M  V30 30 N -2.805899 -1.312046 0.494696 0
M  V30 31 H -2.726793 -0.477790 4.793324 0
M  V30 32 H -1.184275 -1.342164 5.050608 0
M  V30 33 H -1.447024 0.274562 5.794325 0
M  V30 34 H 1.337497 0.952386 3.584342 0
M  V30 35 H 5.237317 1.034279 2.038170 0
M  V30 36 H 4.848833 -0.712509 1.758243 0
M  V30 37 H 6.414535 0.100286 0.021421 0
M  V30 38 H 5.127551 1.354280 -0.457986 0
M  V30 39 H 2.972683 -1.490961 -1.333664 0
M  V30 40 H 2.958985 0.294015 -1.430666 0
M  V30 41 H 2.996788 -1.472378 1.093913 0
M  V30 42 H 1.692583 -0.435759 0.496007 0
M  V30 43 H -1.307586 1.398028 -0.494265 0
M  V30 44 H -3.246917 0.333454 2.463489 0
M  V30 45 H -4.155448 -0.233605 -2.749674 0
M  V30 46 H -1.979255 -5.066470 1.165974 0
M  V30 47 H -1.193340 -3.460043 1.203572 0
M  V30 48 H -2.830486 -3.581064 1.873746 0
M  V30 END ATOM
M  V30 BEGIN BOND
M  V30 1 1 1 2
M  V30 2 1 2 3
M  V30 3 2 3 4
M  V30 4 1 4 5
M  V30 5 1 5 6
M  V30 6 2 6 7
M  V30 7 1 6 8
M  V30 8 1 8 9
M  V30 9 1 9 10
M  V30 10 1 10 11
M  V30 11 1 11 12
M  V30 12 1 12 13
M  V30 13 2 5 14
M  V30 14 1 14 15
M  V30 15 1 14 16
M  V30 16 2 16 17
M  V30 17 1 17 18
M  V30 18 1 18 19
M  V30 19 2 19 20
M  V30 20 1 20 21
M  V30 21 2 21 22
M  V30 22 1 22 23
M  V30 23 1 23 24
M  V30 24 1 23 25
M  V30 25 1 23 26
M  V30 26 1 22 27
M  V30 27 1 27 28
M  V30 28 1 28 29
M  V30 29 2 27 30
M  V30 30 1 17 3
M  V30 31 1 30 19
M  V30 32 1 13 8
M  V30 33 1 1 31
M  V30 34 1 1 32
M  V30 35 1 1 33
M  V30 36 1 4 34
M  V30 37 1 9 35
M  V30 38 1 9 36
M  V30 39 1 10 37
M  V30 40 1 10 38
M  V30 41 1 12 39
M  V30 42 1 12 40
M  V30 43 1 13 41
M  V30 44 1 13 42
M  V30 45 1 16 43
M  V30 46 1 18 44
M  V30 47 1 21 45
M  V30 48 1 29 46
M  V30 49 1 29 47
M  V30 50 1 29 48
M  V30 END BOND
M  V30 END CTAB
M  END
>  <Dataset>  (240) 
ChEMBL_Kinases

>  <Ligand_Instance>  (240) 
nan

>  <PDB_ID>  (240) 
nan

>  <Standardized_SMILES>  (240) 
COc1cc(C(=O)N2CCOCC2)c(F)cc1Nc1ncc(C(F)(F)F)c(OC)n1

>  <Name>  (240) 
nan

>  <Pocket>  (240) 
nan

>  <ATP_Site>  (240) 
nan

>  <Peripheral>  (240) 
nan

>  <Num_H_Atoms_ProtBoundConf>  (240) 
nan

>  <Num_Resolved_Atoms>  (240) 
nan

>  <Num_Not_Resolved_Atoms>  (240) 
nan

$$$$
CHEMBL3643946
     RDKit          3D

  0  0  0  0  0  0  0  0  0  0999 V3000
M  V30 BEGIN CTAB
M  V30 COUNTS 45 47 0 0 0
M  V30 BEGIN ATOM
M  V30 1 C 0.836451 -3.193471 -0.089462 0
M  V30 2 O -0.164217 -2.848743 0.850708 0
M  V30 3 C -0.092553 -1.587839 1.427966 0
M  V30 4 C 0.895355 -0.683978 1.123639 0
M  V30 5 C 1.022756 0.575996 1.657687 0
M  V30 6 N 2.044999 1.502635 1.338455 0
M  V30 7 C 3.120864 1.337115 0.430691 0
M  V30 8 N 3.388424 0.266184 -0.311192 0
M  V30 9 C 4.385129 0.098289 -1.159420 0
M  V30 10 C 5.253485 1.132893 -1.306540 0
M  V30 11 Cl 6.608739 1.023862 -2.400140 0
M  V30 12 C 5.038965 2.274786 -0.569750 0
M  V30 13 O 5.912575 3.341618 -0.704746 0
M  V30 14 C 5.822183 4.558947 -0.025298 0
M  V30 15 N 3.991078 2.328357 0.260413 0
M  V30 16 C 0.030227 0.888415 2.575390 0
M  V30 17 Cl 0.055724 2.473707 3.350678 0
M  V30 18 C -0.979312 0.019747 2.913951 0
M  V30 19 C -1.057806 -1.232953 2.346047 0
M  V30 20 C -2.122241 -2.141002 2.706964 0
M  V30 21 O -1.963532 -2.949242 3.682116 0
M  V30 22 N -3.315024 -2.070740 1.925227 0
M  V30 23 C -3.612533 -1.192350 0.791516 0
M  V30 24 C -3.646166 -2.090572 -0.419527 0
M  V30 25 O -3.831996 -3.416847 -0.072639 0
M  V30 26 C -4.792659 -3.620053 0.901766 0
M  V30 27 C -4.443992 -2.964140 2.232035 0
M  V30 28 H 1.854370 -3.072391 0.314736 0
M  V30 29 H 0.788678 -2.499363 -0.971291 0
M  V30 30 H 0.733752 -4.231763 -0.450727 0
M  V30 31 H 1.599144 -1.037386 0.406799 0
M  V30 32 H 1.983414 2.427142 1.849062 0
M  V30 33 H 4.508112 -0.822928 -1.715431 0
M  V30 34 H 5.194366 5.308912 -0.553334 0
M  V30 35 H 5.391557 4.483704 0.992774 0
M  V30 36 H 6.853267 4.991141 0.003349 0
M  V30 37 H -1.720284 0.329816 3.637584 0
M  V30 38 H -4.615688 -0.756342 0.959558 0
M  V30 39 H -2.914482 -0.347483 0.718573 0
M  V30 40 H -4.435657 -1.823142 -1.145747 0
M  V30 41 H -2.680978 -2.013306 -0.959826 0
M  V30 42 H -5.815423 -3.389771 0.570171 0
M  V30 43 H -4.789573 -4.724095 1.094843 0
M  V30 44 H -5.318912 -2.331940 2.506693 0
M  V30 45 H -4.171750 -3.694427 3.005825 0
M  V30 END ATOM
M  V30 BEGIN BOND
M  V30 1 1 1 2
M  V30 2 1 2 3
M  V30 3 2 3 4
M  V30 4 1 4 5
M  V30 5 1 5 6
M  V30 6 1 6 7
M  V30 7 2 7 8
M  V30 8 1 8 9
M  V30 9 2 9 10
M  V30 10 1 10 11
M  V30 11 1 10 12
M  V30 12 1 12 13
M  V30 13 1 13 14
M  V30 14 2 12 15
M  V30 15 2 5 16
M  V30 16 1 16 17
M  V30 17 1 16 18
M  V30 18 2 18 19
M  V30 19 1 19 20
M  V30 20 2 20 21
M  V30 21 1 20 22
M  V30 22 1 22 23
M  V30 23 1 23 24
M  V30 24 1 24 25
M  V30 25 1 25 26
M  V30 26 1 26 27
M  V30 27 1 19 3
M  V30 28 1 27 22
M  V30 29 1 15 7
M  V30 30 1 1 28
M  V30 31 1 1 29
M  V30 32 1 1 30
M  V30 33 1 4 31
M  V30 34 1 6 32
M  V30 35 1 9 33
M  V30 36 1 14 34
M  V30 37 1 14 35
M  V30 38 1 14 36
M  V30 39 1 18 37
M  V30 40 1 23 38
M  V30 41 1 23 39
M  V30 42 1 24 40
M  V30 43 1 24 41
M  V30 44 1 26 42
M  V30 45 1 26 43
M  V30 46 1 27 44
M  V30 47 1 27 45
M  V30 END BOND
M  V30 END CTAB
M  END
>  <Dataset>  (241) 
ChEMBL_Kinases

>  <Ligand_Instance>  (241) 
nan

>  <PDB_ID>  (241) 
nan

>  <Standardized_SMILES>  (241) 
COc1cc(Nc2ncc(Cl)c(OC)n2)c(Cl)cc1C(=O)N1CCOCC1

>  <Name>  (241) 
nan

>  <Pocket>  (241) 
nan

>  <ATP_Site>  (241) 
nan

>  <Peripheral>  (241) 
nan

>  <Num_H_Atoms_ProtBoundConf>  (241) 
nan

>  <Num_Resolved_Atoms>  (241) 
nan

>  <Num_Not_Resolved_Atoms>  (241) 
nan

$$$$
CHEMBL3642651
     RDKit          3D

  0  0  0  0  0  0  0  0  0  0999 V3000
M  V30 BEGIN CTAB
M  V30 COUNTS 37 39 0 0 0
M  V30 BEGIN ATOM
M  V30 1 C 0.753274 -3.873058 4.049136 0
M  V30 2 C -0.343618 -2.919838 3.568193 0
M  V30 3 C -1.634888 -3.726026 3.578877 0
M  V30 4 C -0.063749 -2.456184 2.183868 0
M  V30 5 C 0.007749 -1.112894 1.877665 0
M  V30 6 C 0.271432 -0.748433 0.570469 0
M  V30 7 N 0.355709 0.622929 0.201548 0
M  V30 8 C 0.624466 1.119637 -1.127597 0
M  V30 9 C 0.649620 2.613872 -1.194193 0
M  V30 10 C -0.513108 3.313438 -1.458761 0
M  V30 11 C -0.401555 4.694456 -1.502776 0
M  V30 12 N 0.730180 5.396821 -1.311551 0
M  V30 13 C 1.855421 4.722491 -1.055641 0
M  V30 14 C 1.815601 3.328354 -0.996743 0
M  V30 15 N 0.454346 -1.693587 -0.382754 0
M  V30 16 N 0.713485 -1.585555 -1.677128 0
M  V30 17 C 0.798279 -2.842067 -2.150732 0
M  V30 18 C 0.592727 -3.777167 -1.156965 0
M  V30 19 Br 0.621945 -5.664325 -1.376582 0
M  V30 20 C 0.376272 -2.991514 -0.041842 0
M  V30 21 N 0.118029 -3.394800 1.236584 0
M  V30 22 H 0.301325 -4.487958 4.843934 0
M  V30 23 H 0.980130 -4.558052 3.205550 0
M  V30 24 H 1.645204 -3.297424 4.372640 0
M  V30 25 H -0.477414 -2.082143 4.270635 0
M  V30 26 H -2.537239 -3.102075 3.545206 0
M  V30 27 H -1.643676 -4.453036 2.735525 0
M  V30 28 H -1.667864 -4.374833 4.502379 0
M  V30 29 H -0.141079 -0.374168 2.652139 0
M  V30 30 H 0.213680 1.357581 0.943173 0
M  V30 31 H -0.194919 0.760878 -1.784454 0
M  V30 32 H 1.571571 0.678738 -1.469041 0
M  V30 33 H -1.456778 2.815687 -1.622421 0
M  V30 34 H -1.347183 5.216353 -1.715676 0
M  V30 35 H 2.807994 5.229843 -0.890675 0
M  V30 36 H 2.757916 2.811614 -0.784728 0
M  V30 37 H 1.004362 -3.123983 -3.194290 0
M  V30 END ATOM
M  V30 BEGIN BOND
M  V30 1 1 1 2
M  V30 2 1 2 3
M  V30 3 1 2 4
M  V30 4 1 4 5
M  V30 5 2 5 6
M  V30 6 1 6 7
M  V30 7 1 7 8
M  V30 8 1 8 9
M  V30 9 2 9 10
M  V30 10 1 10 11
M  V30 11 2 11 12
M  V30 12 1 12 13
M  V30 13 2 13 14
M  V30 14 1 6 15
M  V30 15 1 15 16
M  V30 16 2 16 17
M  V30 17 1 17 18
M  V30 18 1 18 19
M  V30 19 2 18 20
M  V30 20 1 20 21
M  V30 21 2 21 4
M  V30 22 1 14 9
M  V30 23 1 20 15
M  V30 24 1 1 22
M  V30 25 1 1 23
M  V30 26 1 1 24
M  V30 27 1 2 25
M  V30 28 1 3 26
M  V30 29 1 3 27
M  V30 30 1 3 28
M  V30 31 1 5 29
M  V30 32 1 7 30
M  V30 33 1 8 31
M  V30 34 1 8 32
M  V30 35 1 10 33
M  V30 36 1 11 34
M  V30 37 1 13 35
M  V30 38 1 14 36
M  V30 39 1 17 37
M  V30 END BOND
M  V30 END CTAB
M  END
>  <Dataset>  (242) 
ChEMBL_Kinases

>  <Ligand_Instance>  (242) 
nan

>  <PDB_ID>  (242) 
nan

>  <Standardized_SMILES>  (242) 
CC(C)c1cc(NCc2ccncc2)n2ncc(Br)c2n1

>  <Name>  (242) 
nan

>  <Pocket>  (242) 
nan

>  <ATP_Site>  (242) 
nan

>  <Peripheral>  (242) 
nan

>  <Num_H_Atoms_ProtBoundConf>  (242) 
nan

>  <Num_Resolved_Atoms>  (242) 
nan

>  <Num_Not_Resolved_Atoms>  (242) 
nan

$$$$
CHEMBL3641922
     RDKit          3D

  0  0  0  0  0  0  0  0  0  0999 V3000
M  V30 BEGIN CTAB
M  V30 COUNTS 60 65 0 0 0
M  V30 BEGIN ATOM
M  V30 1 C -3.403113 -1.232278 5.018485 0
M  V30 2 C -3.804736 -0.713965 3.646476 0 CFG=1
M  V30 3 C -3.862544 -1.843325 2.637469 0
M  V30 4 N -4.263137 -1.374654 1.334103 0
M  V30 5 C -3.535207 -1.440713 0.113021 0
M  V30 6 C -2.178254 -1.658032 0.186900 0
M  V30 7 C -1.543084 -1.698586 -1.060770 0
M  V30 8 C -2.200094 -1.537768 -2.258548 0
M  V30 9 N -1.487985 -1.548762 -3.491759 0
M  V30 10 C -0.054001 -1.694721 -3.446947 0
M  V30 11 N 0.829823 -2.679872 -3.743373 0
M  V30 12 C 2.150006 -2.436515 -3.554724 0
M  V30 13 C 2.542150 -1.206332 -3.072042 0
M  V30 14 C 3.822922 -0.771014 -2.809274 0
M  V30 15 C 5.061605 -1.366648 -2.934523 0
M  V30 16 C 6.182062 -0.647326 -2.578277 0
M  V30 17 N 6.009032 0.613631 -2.120254 0
M  V30 18 C 4.804642 1.195565 -1.997728 0
M  V30 19 C 3.661784 0.514111 -2.342324 0
M  V30 20 N 2.377263 0.902035 -2.299643 0
M  V30 21 C 1.733106 2.126328 -1.887580 0 CFG=1
M  V30 22 C 2.299741 3.391114 -2.413858 0
M  V30 23 C 1.185674 4.392509 -2.046346 0
M  V30 24 C -0.077012 3.642106 -2.389758 0
M  V30 25 C 0.328431 2.191111 -2.531527 0 CFG=1
M  V30 26 O 0.452551 1.960448 -3.905049 0
M  V30 27 C 1.674289 -0.184273 -2.760216 0
M  V30 28 N 0.380175 -0.524059 -2.982573 0
M  V30 29 N -3.538331 -1.329364 -2.222834 0
M  V30 30 N -4.184094 -1.284568 -1.046039 0
M  V30 31 C -5.585366 -0.773723 1.532282 0
M  V30 32 C -5.451561 0.438737 2.445434 0
M  V30 33 N -5.034826 0.007807 3.746560 0
M  V30 34 H -3.594191 -0.357529 5.708601 0
M  V30 35 H -2.321109 -1.434778 5.080941 0
M  V30 36 H -4.059401 -2.045352 5.362645 0
M  V30 37 H -3.000520 0.003325 3.360134 0
M  V30 38 H -4.597313 -2.636203 2.945069 0
M  V30 39 H -2.849821 -2.287225 2.550426 0
M  V30 40 H -1.570146 -1.795215 1.072835 0
M  V30 41 H -0.462827 -1.868102 -1.098834 0
M  V30 42 H -2.037249 -1.457962 -4.398141 0
M  V30 43 H 2.790610 -3.261569 -3.809809 0
M  V30 44 H 5.149244 -2.381238 -3.307000 0
M  V30 45 H 7.124487 -1.157677 -2.697594 0
M  V30 46 H 4.778395 2.179575 -1.626550 0
M  V30 47 H 1.591672 2.155012 -0.784894 0
M  V30 48 H 3.185053 3.799101 -1.907273 0
M  V30 49 H 2.384104 3.357479 -3.515435 0
M  V30 50 H 1.304045 5.355101 -2.550229 0
M  V30 51 H 1.196445 4.509968 -0.922822 0
M  V30 52 H -0.868490 3.784301 -1.601140 0
M  V30 53 H -0.443929 4.064139 -3.365671 0
M  V30 54 H -0.382283 1.540292 -2.024402 0
M  V30 55 H -0.015034 2.646814 -4.440319 0
M  V30 56 H -5.926144 -0.373140 0.544922 0
M  V30 57 H -6.287051 -1.470770 1.983513 0
M  V30 58 H -6.397865 0.981930 2.503150 0
M  V30 59 H -4.637323 1.123137 2.068673 0
M  V30 60 H -5.756780 -0.394086 4.350435 0
M  V30 END ATOM
M  V30 BEGIN BOND
M  V30 1 1 1 2
M  V30 2 1 2 3
M  V30 3 1 3 4
M  V30 4 1 4 5
M  V30 5 2 5 6
M  V30 6 1 6 7
M  V30 7 2 7 8
M  V30 8 1 8 9
M  V30 9 1 9 10
M  V30 10 2 10 11
M  V30 11 1 11 12
M  V30 12 2 12 13
M  V30 13 1 13 14
M  V30 14 2 14 15
M  V30 15 1 15 16
M  V30 16 2 16 17
M  V30 17 1 17 18
M  V30 18 2 18 19
M  V30 19 1 19 20
M  V30 20 1 20 21
M  V30 21 1 21 22
M  V30 22 1 22 23
M  V30 23 1 23 24
M  V30 24 1 24 25
M  V30 25 1 25 26
M  V30 26 1 20 27
M  V30 27 2 27 28
M  V30 28 1 8 29
M  V30 29 2 29 30
M  V30 30 1 4 31
M  V30 31 1 31 32
M  V30 32 1 32 33
M  V30 33 1 33 2
M  V30 34 1 30 5
M  V30 35 1 28 10
M  V30 36 1 27 13
M  V30 37 1 19 14
M  V30 38 1 25 21
M  V30 39 1 1 34
M  V30 40 1 1 35
M  V30 41 1 1 36
M  V30 42 1 2 37 CFG=3
M  V30 43 1 3 38
M  V30 44 1 3 39
M  V30 45 1 6 40
M  V30 46 1 7 41
M  V30 47 1 9 42
M  V30 48 1 12 43
M  V30 49 1 15 44
M  V30 50 1 16 45
M  V30 51 1 18 46
M  V30 52 1 21 47 CFG=1
M  V30 53 1 22 48
M  V30 54 1 22 49
M  V30 55 1 23 50
M  V30 56 1 23 51
M  V30 57 1 24 52
M  V30 58 1 24 53
M  V30 59 1 25 54 CFG=1
M  V30 60 1 26 55
M  V30 61 1 31 56
M  V30 62 1 31 57
M  V30 63 1 32 58
M  V30 64 1 32 59
M  V30 65 1 33 60
M  V30 END BOND
M  V30 END CTAB
M  END
>  <Dataset>  (243) 
ChEMBL_Kinases

>  <Ligand_Instance>  (243) 
nan

>  <PDB_ID>  (243) 
nan

>  <Standardized_SMILES>  (243) 
C[C@H]1CN(c2ccc(Nc3ncc4c5ccncc5n([C@H]5CCC[C@H]5O)c4n3)nn2)CCN1

>  <Name>  (243) 
nan

>  <Pocket>  (243) 
nan

>  <ATP_Site>  (243) 
nan

>  <Peripheral>  (243) 
nan

>  <Num_H_Atoms_ProtBoundConf>  (243) 
nan

>  <Num_Resolved_Atoms>  (243) 
nan

>  <Num_Not_Resolved_Atoms>  (243) 
nan

$$$$
CHEMBL3641921
     RDKit          3D

  0  0  0  0  0  0  0  0  0  0999 V3000
M  V30 BEGIN CTAB
M  V30 COUNTS 57 62 0 0 0
M  V30 BEGIN ATOM
M  V30 1 O 0.921529 -0.496757 3.116623 0
M  V30 2 C 1.788393 -0.551250 2.050012 0 CFG=2
M  V30 3 C 3.000011 -1.353796 2.563200 0
M  V30 4 C 3.812441 -0.353965 3.355580 0
M  V30 5 C 3.399742 1.027315 2.874365 0
M  V30 6 C 2.467449 0.761116 1.737390 0 CFG=2
M  V30 7 N 1.600953 1.806352 1.344186 0
M  V30 8 C 1.980336 3.015734 0.902051 0
M  V30 9 C 3.179683 3.656420 0.688047 0
M  V30 10 N 3.300333 4.922611 0.219450 0
M  V30 11 C 2.215096 5.645196 -0.071501 0
M  V30 12 C 0.977097 5.084080 0.111861 0
M  V30 13 C 0.875025 3.776229 0.596220 0
M  V30 14 C -0.259765 3.040568 0.845893 0
M  V30 15 C -1.621369 3.230782 0.737663 0
M  V30 16 N -2.500532 2.255603 1.073541 0
M  V30 17 C -2.023336 1.071543 1.525081 0
M  V30 18 N -2.710919 -0.107106 1.923984 0
M  V30 19 C -2.591116 -1.266731 1.109805 0
M  V30 20 C -1.797210 -1.152624 -0.011367 0
M  V30 21 C -1.614771 -2.251912 -0.849049 0
M  V30 22 C -2.221328 -3.457555 -0.568762 0
M  V30 23 N -2.086969 -4.640781 -1.346831 0
M  V30 24 C -2.807077 -5.894872 -1.079089 0
M  V30 25 C -3.567936 -6.210403 -2.349364 0
M  V30 26 N -3.433826 -5.244082 -3.385440 0
M  V30 27 C -2.092784 -4.851658 -3.714648 0
M  V30 28 C -1.206934 -4.729971 -2.493942 0
M  V30 29 N -2.983793 -3.502720 0.539565 0
M  V30 30 N -3.166845 -2.457885 1.350008 0
M  V30 31 N -0.715651 0.914039 1.619485 0
M  V30 32 C 0.233836 1.817838 1.311476 0
M  V30 33 H 0.834523 -1.349861 3.594836 0
M  V30 34 H 1.329654 -1.058451 1.210514 0
M  V30 35 H 3.560714 -1.762000 1.725958 0
M  V30 36 H 2.647781 -2.123285 3.277621 0
M  V30 37 H 4.870794 -0.546641 3.149456 0
M  V30 38 H 3.654964 -0.418815 4.447437 0
M  V30 39 H 2.930329 1.628564 3.660706 0
M  V30 40 H 4.321527 1.567208 2.580882 0
M  V30 41 H 3.137038 0.529769 0.854121 0
M  V30 42 H 4.108377 3.166114 0.883878 0
M  V30 43 H 2.320611 6.643275 -0.439786 0
M  V30 44 H 0.107269 5.662349 -0.121139 0
M  V30 45 H -2.006273 4.169418 0.380742 0
M  V30 46 H -3.301813 -0.169955 2.782581 0
M  V30 47 H -1.260279 -0.279469 -0.356504 0
M  V30 48 H -0.992947 -2.194691 -1.747459 0
M  V30 49 H -3.448297 -5.842051 -0.193180 0
M  V30 50 H -2.033325 -6.700650 -0.937993 0
M  V30 51 H -4.652163 -6.224125 -2.060178 0
M  V30 52 H -3.360485 -7.251409 -2.674424 0
M  V30 53 H -4.142534 -4.508867 -3.434798 0
M  V30 54 H -1.648515 -5.464084 -4.513720 0
M  V30 55 H -2.158032 -3.800114 -4.121976 0
M  V30 56 H -0.437311 -3.964319 -2.554951 0
M  V30 57 H -0.669356 -5.723021 -2.427024 0
M  V30 END ATOM
M  V30 BEGIN BOND
M  V30 1 1 1 2
M  V30 2 1 2 3
M  V30 3 1 3 4
M  V30 4 1 4 5
M  V30 5 1 5 6
M  V30 6 1 6 7
M  V30 7 1 7 8
M  V30 8 2 8 9
M  V30 9 1 9 10
M  V30 10 2 10 11
M  V30 11 1 11 12
M  V30 12 2 12 13
M  V30 13 1 13 14
M  V30 14 2 14 15
M  V30 15 1 15 16
M  V30 16 2 16 17
M  V30 17 1 17 18
M  V30 18 1 18 19
M  V30 19 2 19 20
M  V30 20 1 20 21
M  V30 21 2 21 22
M  V30 22 1 22 23
M  V30 23 1 23 24
M  V30 24 1 24 25
M  V30 25 1 25 26
M  V30 26 1 26 27
M  V30 27 1 27 28
M  V30 28 1 22 29
M  V30 29 2 29 30
M  V30 30 1 17 31
M  V30 31 2 31 32
M  V30 32 1 6 2
M  V30 33 1 32 7
M  V30 34 1 13 8
M  V30 35 1 32 14
M  V30 36 1 30 19
M  V30 37 1 28 23
M  V30 38 1 1 33
M  V30 39 1 2 34 CFG=3
M  V30 40 1 3 35
M  V30 41 1 3 36
M  V30 42 1 4 37
M  V30 43 1 4 38
M  V30 44 1 5 39
M  V30 45 1 5 40
M  V30 46 1 6 41 CFG=3
M  V30 47 1 9 42
M  V30 48 1 11 43
M  V30 49 1 12 44
M  V30 50 1 15 45
M  V30 51 1 18 46
M  V30 52 1 20 47
M  V30 53 1 21 48
M  V30 54 1 24 49
M  V30 55 1 24 50
M  V30 56 1 25 51
M  V30 57 1 25 52
M  V30 58 1 26 53
M  V30 59 1 27 54
M  V30 60 1 27 55
M  V30 61 1 28 56
M  V30 62 1 28 57
M  V30 END BOND
M  V30 END CTAB
M  END
>  <Dataset>  (244) 
ChEMBL_Kinases

>  <Ligand_Instance>  (244) 
nan

>  <PDB_ID>  (244) 
nan

>  <Standardized_SMILES>  (244) 
O[C@@H]1CCC[C@@H]1n1c2cnccc2c2cnc(Nc3ccc(N4CCNCC4)nn3)nc21

>  <Name>  (244) 
nan

>  <Pocket>  (244) 
nan

>  <ATP_Site>  (244) 
nan

>  <Peripheral>  (244) 
nan

>  <Num_H_Atoms_ProtBoundConf>  (244) 
nan

>  <Num_Resolved_Atoms>  (244) 
nan

>  <Num_Not_Resolved_Atoms>  (244) 
nan

$$$$
CHEMBL3641919
     RDKit          3D

  0  0  0  0  0  0  0  0  0  0999 V3000
M  V30 BEGIN CTAB
M  V30 COUNTS 64 69 0 0 0
M  V30 BEGIN ATOM
M  V30 1 C 5.614415 1.871271 4.916291 0
M  V30 2 C 4.514842 0.805844 4.982057 0
M  V30 3 C 4.893694 -0.228174 6.019280 0
M  V30 4 C 4.362612 0.239012 3.610195 0
M  V30 5 N 2.982065 0.035916 3.238184 0
M  V30 6 C 2.427455 0.248430 1.950896 0
M  V30 7 C 3.204908 0.586219 0.866869 0
M  V30 8 C 2.645510 0.791782 -0.380158 0
M  V30 9 C 1.275264 0.660377 -0.565748 0
M  V30 10 N 0.571377 0.831870 -1.814932 0
M  V30 11 C -0.861038 0.687216 -1.873784 0
M  V30 12 N -1.651843 1.774637 -1.842802 0
M  V30 13 C -2.997773 1.683082 -1.885954 0
M  V30 14 C -3.621243 0.431095 -1.965309 0
M  V30 15 C -4.892079 -0.108350 -2.025435 0
M  V30 16 C -6.084542 0.602390 -2.024820 0
M  V30 17 C -7.276943 -0.123823 -2.091938 0
M  V30 18 N -7.218211 -1.465539 -2.153411 0
M  V30 19 C -6.049389 -2.125718 -2.152284 0
M  V30 20 C -4.812263 -1.482471 -2.088083 0
M  V30 21 N -3.514696 -1.826641 -2.069843 0
M  V30 22 C -3.164592 -3.194930 -2.125450 0 CFG=1
M  V30 23 C -3.835421 -3.829566 -3.352885 0
M  V30 24 C -2.690745 -4.217829 -4.295685 0
M  V30 25 C -1.528039 -3.353303 -3.780772 0
M  V30 26 C -1.753085 -3.564664 -2.298836 0 CFG=1
M  V30 27 O -0.814420 -3.044224 -1.477068 0
M  V30 28 C -2.791931 -0.672092 -1.995562 0
M  V30 29 N -1.458620 -0.514045 -1.949885 0
M  V30 30 N 0.545197 0.328209 0.520426 0
M  V30 31 C 1.072904 0.124224 1.742546 0
M  V30 32 C 2.280123 -0.426507 4.415529 0
M  V30 33 C 2.130021 0.725622 5.388089 0
M  V30 34 N 3.352200 1.491213 5.496593 0
M  V30 35 H 5.183865 2.880627 4.807498 0
M  V30 36 H 6.246074 1.681972 4.025028 0
M  V30 37 H 6.285785 1.787538 5.799748 0
M  V30 38 H 5.760005 0.149540 6.587507 0
M  V30 39 H 5.189728 -1.151567 5.508619 0
M  V30 40 H 4.075594 -0.403125 6.751225 0
M  V30 41 H 4.810044 -0.801038 3.630259 0
M  V30 42 H 4.943540 0.805362 2.848908 0
M  V30 43 H 4.278586 0.704688 0.943891 0
M  V30 44 H 3.208105 1.056356 -1.250225 0
M  V30 45 H 1.169700 1.066667 -2.661723 0
M  V30 46 H -3.688351 2.515893 -1.865587 0
M  V30 47 H -6.107165 1.681094 -1.974791 0
M  V30 48 H -8.247124 0.352417 -2.096512 0
M  V30 49 H -6.062874 -3.196778 -2.201471 0
M  V30 50 H -3.534697 -3.687225 -1.186117 0
M  V30 51 H -4.381430 -4.709046 -3.011872 0
M  V30 52 H -4.424029 -3.108293 -3.935417 0
M  V30 53 H -2.406639 -5.270687 -4.094540 0
M  V30 54 H -2.919931 -4.032969 -5.349427 0
M  V30 55 H -1.691094 -2.292277 -4.087261 0
M  V30 56 H -0.558300 -3.764256 -4.136493 0
M  V30 57 H -1.701337 -4.689382 -2.170243 0
M  V30 58 H 0.056354 -2.908295 -1.888906 0
M  V30 59 H 0.352758 -0.134038 2.501364 0
M  V30 60 H 1.261295 -0.780347 4.169864 0
M  V30 61 H 2.811862 -1.280299 4.919843 0
M  V30 62 H 1.865361 0.333956 6.373714 0
M  V30 63 H 1.315922 1.407130 5.057991 0
M  V30 64 H 3.263146 2.460468 5.182530 0
M  V30 END ATOM
M  V30 BEGIN BOND
M  V30 1 1 1 2
M  V30 2 1 2 3
M  V30 3 1 2 4
M  V30 4 1 4 5
M  V30 5 1 5 6
M  V30 6 2 6 7
M  V30 7 1 7 8
M  V30 8 2 8 9
M  V30 9 1 9 10
M  V30 10 1 10 11
M  V30 11 2 11 12
M  V30 12 1 12 13
M  V30 13 2 13 14
M  V30 14 1 14 15
M  V30 15 2 15 16
M  V30 16 1 16 17
M  V30 17 2 17 18
M  V30 18 1 18 19
M  V30 19 2 19 20
M  V30 20 1 20 21
M  V30 21 1 21 22
M  V30 22 1 22 23
M  V30 23 1 23 24
M  V30 24 1 24 25
M  V30 25 1 25 26
M  V30 26 1 26 27
M  V30 27 1 21 28
M  V30 28 2 28 29
M  V30 29 1 9 30
M  V30 30 2 30 31
M  V30 31 1 5 32
M  V30 32 1 32 33
M  V30 33 1 33 34
M  V30 34 1 34 2
M  V30 35 1 31 6
M  V30 36 1 29 11
M  V30 37 1 28 14
M  V30 38 1 20 15
M  V30 39 1 26 22
M  V30 40 1 1 35
M  V30 41 1 1 36
M  V30 42 1 1 37
M  V30 43 1 3 38
M  V30 44 1 3 39
M  V30 45 1 3 40
M  V30 46 1 4 41
M  V30 47 1 4 42
M  V30 48 1 7 43
M  V30 49 1 8 44
M  V30 50 1 10 45
M  V30 51 1 13 46
M  V30 52 1 16 47
M  V30 53 1 17 48
M  V30 54 1 19 49
M  V30 55 1 22 50 CFG=1
M  V30 56 1 23 51
M  V30 57 1 23 52
M  V30 58 1 24 53
M  V30 59 1 24 54
M  V30 60 1 25 55
M  V30 61 1 25 56
M  V30 62 1 26 57 CFG=3
M  V30 63 1 27 58
M  V30 64 1 31 59
M  V30 65 1 32 60
M  V30 66 1 32 61
M  V30 67 1 33 62
M  V30 68 1 33 63
M  V30 69 1 34 64
M  V30 END BOND
M  V30 END CTAB
M  END
>  <Dataset>  (245) 
ChEMBL_Kinases

>  <Ligand_Instance>  (245) 
nan

>  <PDB_ID>  (245) 
nan

>  <Standardized_SMILES>  (245) 
CC1(C)CN(c2ccc(Nc3ncc4c5ccncc5n([C@H]5CCC[C@H]5O)c4n3)nc2)CCN1

>  <Name>  (245) 
nan

>  <Pocket>  (245) 
nan

>  <ATP_Site>  (245) 
nan

>  <Peripheral>  (245) 
nan

>  <Num_H_Atoms_ProtBoundConf>  (245) 
nan

>  <Num_Resolved_Atoms>  (245) 
nan

>  <Num_Not_Resolved_Atoms>  (245) 
nan

$$$$
CHEMBL3641918
     RDKit          3D

  0  0  0  0  0  0  0  0  0  0999 V3000
M  V30 BEGIN CTAB
M  V30 COUNTS 61 66 0 0 0
M  V30 BEGIN ATOM
M  V30 1 C 3.364038 -4.879170 5.714130 0
M  V30 2 C 2.695499 -4.657779 4.388792 0 CFG=1
M  V30 3 C 3.562821 -3.726740 3.576174 0
M  V30 4 N 3.324982 -4.012640 2.202805 0
M  V30 5 C 2.759759 -3.101923 1.271681 0
M  V30 6 C 2.128039 -1.900832 1.579770 0
M  V30 7 C 1.614857 -1.056090 0.617150 0
M  V30 8 C 1.702028 -1.362334 -0.728558 0
M  V30 9 N 1.193414 -0.515913 -1.754804 0
M  V30 10 C 0.551074 0.694016 -1.362385 0
M  V30 11 N 1.164958 1.847204 -1.042034 0
M  V30 12 C 0.491661 2.955777 -0.685798 0
M  V30 13 C -0.888051 2.957676 -0.632831 0
M  V30 14 C -1.919712 3.792850 -0.342640 0
M  V30 15 C -1.803462 5.130076 0.056411 0
M  V30 16 C -2.982687 5.835187 0.317011 0
M  V30 17 N -4.158645 5.203755 0.174359 0
M  V30 18 C -4.238741 3.920770 -0.209643 0
M  V30 19 C -3.122195 3.145702 -0.489359 0
M  V30 20 N -2.856946 1.883493 -0.878218 0
M  V30 21 C -3.950818 0.984230 -1.113848 0 CFG=1
M  V30 22 C -4.620520 1.461623 -2.391550 0
M  V30 23 C -3.523598 1.046774 -3.387311 0
M  V30 24 C -3.250330 -0.385525 -2.907205 0
M  V30 25 C -3.613710 -0.405028 -1.477159 0 CFG=1
M  V30 26 O -2.720932 -1.041805 -0.645681 0
M  V30 27 C -1.517747 1.768361 -0.964163 0
M  V30 28 N -0.798800 0.692967 -1.311860 0
M  V30 29 N 2.316751 -2.533815 -1.044786 0
M  V30 30 C 2.812321 -3.348145 -0.097948 0
M  V30 31 C 3.674067 -5.322899 1.705012 0
M  V30 32 C 3.502265 -6.293329 2.822898 0
M  V30 33 N 2.412705 -5.884601 3.681046 0
M  V30 34 H 4.028540 -4.016325 5.981713 0
M  V30 35 H 2.597163 -5.022116 6.501927 0
M  V30 36 H 4.004723 -5.784370 5.653146 0
M  V30 37 H 1.733942 -4.144220 4.572657 0
M  V30 38 H 3.266628 -2.686880 3.796730 0
M  V30 39 H 4.606821 -3.859156 3.902364 0
M  V30 40 H 2.037821 -1.627158 2.600440 0
M  V30 41 H 1.131529 -0.131300 0.924671 0
M  V30 42 H 1.312822 -0.819359 -2.738450 0
M  V30 43 H 0.985619 3.876184 -0.430378 0
M  V30 44 H -0.870411 5.622035 0.167891 0
M  V30 45 H -3.018889 6.858216 0.626660 0
M  V30 46 H -5.210325 3.481583 -0.297147 0
M  V30 47 H -4.703539 1.013584 -0.279813 0
M  V30 48 H -5.531143 0.833109 -2.616177 0
M  V30 49 H -4.807719 2.531981 -2.435413 0
M  V30 50 H -3.859710 1.087165 -4.421924 0
M  V30 51 H -2.635754 1.677079 -3.178571 0
M  V30 52 H -2.262821 -0.750381 -3.189601 0
M  V30 53 H -3.974819 -0.998931 -3.524014 0
M  V30 54 H -4.574853 -0.992783 -1.366388 0
M  V30 55 H -2.583092 -1.946387 -1.020859 0
M  V30 56 H 3.267247 -4.227487 -0.514934 0
M  V30 57 H 4.646815 -5.379536 1.196085 0
M  V30 58 H 2.907357 -5.606875 0.926631 0
M  V30 59 H 4.448737 -6.372000 3.363953 0
M  V30 60 H 3.212858 -7.276989 2.395819 0
M  V30 61 H 1.512292 -5.891194 3.198955 0
M  V30 END ATOM
M  V30 BEGIN BOND
M  V30 1 1 1 2
M  V30 2 1 2 3
M  V30 3 1 3 4
M  V30 4 1 4 5
M  V30 5 2 5 6
M  V30 6 1 6 7
M  V30 7 2 7 8
M  V30 8 1 8 9
M  V30 9 1 9 10
M  V30 10 2 10 11
M  V30 11 1 11 12
M  V30 12 2 12 13
M  V30 13 1 13 14
M  V30 14 2 14 15
M  V30 15 1 15 16
M  V30 16 2 16 17
M  V30 17 1 17 18
M  V30 18 2 18 19
M  V30 19 1 19 20
M  V30 20 1 20 21
M  V30 21 1 21 22
M  V30 22 1 22 23
M  V30 23 1 23 24
M  V30 24 1 24 25
M  V30 25 1 25 26
M  V30 26 1 20 27
M  V30 27 2 27 28
M  V30 28 1 8 29
M  V30 29 2 29 30
M  V30 30 1 4 31
M  V30 31 1 31 32
M  V30 32 1 32 33
M  V30 33 1 33 2
M  V30 34 1 30 5
M  V30 35 1 28 10
M  V30 36 1 27 13
M  V30 37 1 19 14
M  V30 38 1 25 21
M  V30 39 1 1 34
M  V30 40 1 1 35
M  V30 41 1 1 36
M  V30 42 1 2 37 CFG=1
M  V30 43 1 3 38
M  V30 44 1 3 39
M  V30 45 1 6 40
M  V30 46 1 7 41
M  V30 47 1 9 42
M  V30 48 1 12 43
M  V30 49 1 15 44
M  V30 50 1 16 45
M  V30 51 1 18 46
M  V30 52 1 21 47 CFG=1
M  V30 53 1 22 48
M  V30 54 1 22 49
M  V30 55 1 23 50
M  V30 56 1 23 51
M  V30 57 1 24 52
M  V30 58 1 24 53
M  V30 59 1 25 54 CFG=3
M  V30 60 1 26 55
M  V30 61 1 30 56
M  V30 62 1 31 57
M  V30 63 1 31 58
M  V30 64 1 32 59
M  V30 65 1 32 60
M  V30 66 1 33 61
M  V30 END BOND
M  V30 END CTAB
M  END
>  <Dataset>  (246) 
ChEMBL_Kinases

>  <Ligand_Instance>  (246) 
nan

>  <PDB_ID>  (246) 
nan

>  <Standardized_SMILES>  (246) 
C[C@H]1CN(c2ccc(Nc3ncc4c5ccncc5n([C@H]5CCC[C@H]5O)c4n3)nc2)CCN1

>  <Name>  (246) 
nan

>  <Pocket>  (246) 
nan

>  <ATP_Site>  (246) 
nan

>  <Peripheral>  (246) 
nan

>  <Num_H_Atoms_ProtBoundConf>  (246) 
nan

>  <Num_Resolved_Atoms>  (246) 
nan

>  <Num_Not_Resolved_Atoms>  (246) 
nan

$$$$
CHEMBL3641907
     RDKit          3D

  0  0  0  0  0  0  0  0  0  0999 V3000
M  V30 BEGIN CTAB
M  V30 COUNTS 52 54 0 0 0
M  V30 BEGIN ATOM
M  V30 1 C 1.662003 -5.315621 -2.966747 0
M  V30 2 C 3.077355 -4.940847 -2.616990 0
M  V30 3 N 3.284233 -5.282689 -1.202853 0
M  V30 4 C 2.535431 -4.695258 -0.148116 0
M  V30 5 N 1.596703 -3.774624 -0.424489 0
M  V30 6 C 0.873975 -3.190308 0.546659 0
M  V30 7 N -0.141823 -2.212118 0.409172 0
M  V30 8 C -0.229625 -0.791012 0.397707 0
M  V30 9 C 0.920116 -0.049165 0.566119 0
M  V30 10 C 0.812958 1.347779 0.556667 0
M  V30 11 C -0.421024 1.947070 0.382136 0
M  V30 12 C -0.690725 3.378804 0.348628 0
M  V30 13 O -0.562153 4.164988 -0.650089 0
M  V30 14 N -1.150798 3.974923 1.570451 0
M  V30 15 C -1.394397 3.352235 2.873965 0
M  V30 16 C -2.863437 3.478207 3.152134 0
M  V30 17 O -3.526726 4.244694 2.205969 0
M  V30 18 C -2.937022 5.477002 1.991680 0
M  V30 19 C -1.461019 5.399900 1.665083 0
M  V30 20 C -1.530426 1.137313 0.218961 0
M  V30 21 C -1.482039 -0.242832 0.219554 0
M  V30 22 O -2.585482 -1.066117 0.056132 0
M  V30 23 C -3.899028 -0.644541 -0.129716 0
M  V30 24 N 1.099776 -3.541024 1.820005 0
M  V30 25 C 2.018183 -4.451331 2.187950 0
M  V30 26 C 2.762683 -5.051626 1.183543 0
M  V30 27 C 3.805653 -6.075891 1.503206 0
M  V30 28 F 3.845930 -6.255568 2.881120 0
M  V30 29 F 3.418721 -7.285686 0.951360 0
M  V30 30 F 5.033348 -5.666500 1.076458 0
M  V30 31 H 1.056994 -4.416096 -3.198605 0
M  V30 32 H 1.722328 -5.960370 -3.889325 0
M  V30 33 H 1.166365 -5.874912 -2.138065 0
M  V30 34 H 3.150110 -3.825513 -2.642641 0
M  V30 35 H 3.836605 -5.400382 -3.249664 0
M  V30 36 H 4.013383 -5.992680 -0.956139 0
M  V30 37 H -0.971529 -2.833956 0.296399 0
M  V30 38 H 1.897108 -0.476715 0.705993 0
M  V30 39 H 1.649213 2.035111 0.678702 0
M  V30 40 H -0.852439 3.913036 3.676757 0
M  V30 41 H -1.012392 2.328973 2.860655 0
M  V30 42 H -3.080071 3.857001 4.167256 0
M  V30 43 H -3.283005 2.451178 3.095943 0
M  V30 44 H -3.433535 5.935146 1.109064 0
M  V30 45 H -3.152844 6.105304 2.870225 0
M  V30 46 H -0.921846 5.843703 2.534792 0
M  V30 47 H -1.193209 5.934984 0.738699 0
M  V30 48 H -2.532752 1.560652 0.072954 0
M  V30 49 H -4.550976 -1.523474 0.111369 0
M  V30 50 H -4.030197 -0.358292 -1.213123 0
M  V30 51 H -4.197617 0.175222 0.515646 0
M  V30 52 H 2.213302 -4.744621 3.211141 0
M  V30 END ATOM
M  V30 BEGIN BOND
M  V30 1 1 1 2
M  V30 2 1 2 3
M  V30 3 1 3 4
M  V30 4 2 4 5
M  V30 5 1 5 6
M  V30 6 1 6 7
M  V30 7 1 7 8
M  V30 8 2 8 9
M  V30 9 1 9 10
M  V30 10 2 10 11
M  V30 11 1 11 12
M  V30 12 2 12 13
M  V30 13 1 12 14
M  V30 14 1 14 15
M  V30 15 1 15 16
M  V30 16 1 16 17
M  V30 17 1 17 18
M  V30 18 1 18 19
M  V30 19 1 11 20
M  V30 20 2 20 21
M  V30 21 1 21 22
M  V30 22 1 22 23
M  V30 23 2 6 24
M  V30 24 1 24 25
M  V30 25 2 25 26
M  V30 26 1 26 27
M  V30 27 1 27 28
M  V30 28 1 27 29
M  V30 29 1 27 30
M  V30 30 1 26 4
M  V30 31 1 21 8
M  V30 32 1 19 14
M  V30 33 1 1 31
M  V30 34 1 1 32
M  V30 35 1 1 33
M  V30 36 1 2 34
M  V30 37 1 2 35
M  V30 38 1 3 36
M  V30 39 1 7 37
M  V30 40 1 9 38
M  V30 41 1 10 39
M  V30 42 1 15 40
M  V30 43 1 15 41
M  V30 44 1 16 42
M  V30 45 1 16 43
M  V30 46 1 18 44
M  V30 47 1 18 45
M  V30 48 1 19 46
M  V30 49 1 19 47
M  V30 50 1 20 48
M  V30 51 1 23 49
M  V30 52 1 23 50
M  V30 53 1 23 51
M  V30 54 1 25 52
M  V30 END BOND
M  V30 END CTAB
M  END
>  <Dataset>  (247) 
ChEMBL_Kinases

>  <Ligand_Instance>  (247) 
nan

>  <PDB_ID>  (247) 
nan

>  <Standardized_SMILES>  (247) 
CCNc1nc(Nc2ccc(C(=O)N3CCOCC3)cc2OC)ncc1C(F)(F)F

>  <Name>  (247) 
nan

>  <Pocket>  (247) 
nan

>  <ATP_Site>  (247) 
nan

>  <Peripheral>  (247) 
nan

>  <Num_H_Atoms_ProtBoundConf>  (247) 
nan

>  <Num_Resolved_Atoms>  (247) 
nan

>  <Num_Not_Resolved_Atoms>  (247) 
nan

$$$$
CHEMBL3641906
     RDKit          3D

  0  0  0  0  0  0  0  0  0  0999 V3000
M  V30 BEGIN CTAB
M  V30 COUNTS 53 56 0 0 0
M  V30 BEGIN ATOM
M  V30 1 C 2.710765 -5.025684 2.147028 0
M  V30 2 O 1.801884 -3.971330 2.474574 0
M  V30 3 C 1.886492 -2.726236 1.883783 0
M  V30 4 C 2.768228 -2.218117 0.936847 0
M  V30 5 C 2.643007 -0.920979 0.500001 0
M  V30 6 C 3.640225 -0.516052 -0.509266 0
M  V30 7 O 4.870235 -0.614672 -0.544954 0
M  V30 8 N 3.221597 0.110910 -1.698720 0
M  V30 9 C 4.373201 0.414167 -2.544989 0
M  V30 10 C 3.905838 1.394832 -3.595930 0
M  V30 11 O 3.158046 2.444770 -3.089031 0
M  V30 12 C 2.056675 2.063467 -2.347375 0
M  V30 13 C 1.970420 0.539624 -2.314656 0
M  V30 14 C 1.672427 -0.036561 0.940085 0
M  V30 15 C 0.823347 -0.583585 1.875849 0
M  V30 16 C 0.875756 -1.889310 2.376498 0
M  V30 17 N -0.133273 -2.215509 3.324469 0
M  V30 18 C -1.133171 -1.276633 3.747532 0
M  V30 19 N -1.303692 -0.472805 4.811702 0
M  V30 20 C -2.381042 0.333207 4.903347 0
M  V30 21 C -3.372496 0.384722 3.915468 0
M  V30 22 Cl -4.725072 1.469260 4.139820 0
M  V30 23 C -3.174249 -0.447855 2.836582 0
M  V30 24 N -4.171835 -0.400138 1.818348 0
M  V30 25 C -5.568746 -0.639780 1.684269 0
M  V30 26 C -5.825986 -1.238743 0.317432 0
M  V30 27 C -4.571745 -0.891819 -0.457273 0
M  V30 28 C -3.770008 -0.001308 0.472857 0
M  V30 29 N -2.076436 -1.254924 2.765529 0
M  V30 30 H 3.668292 -4.926256 2.692682 0
M  V30 31 H 2.238082 -6.002247 2.278912 0
M  V30 32 H 2.964835 -4.856736 1.064322 0
M  V30 33 H 3.486230 -2.939457 0.640757 0
M  V30 34 H 5.221093 0.838864 -1.993773 0
M  V30 35 H 4.643928 -0.519121 -3.083905 0
M  V30 36 H 4.836693 1.864440 -4.023407 0
M  V30 37 H 3.415433 0.883801 -4.451060 0
M  V30 38 H 1.129033 2.424598 -2.824074 0
M  V30 39 H 2.104927 2.484896 -1.319953 0
M  V30 40 H 1.867678 0.186905 -3.341804 0
M  V30 41 H 1.154901 0.248359 -1.648188 0
M  V30 42 H 1.602704 0.971132 0.581229 0
M  V30 43 H 0.046255 0.114208 2.230407 0
M  V30 44 H -0.254194 -3.119156 3.792665 0
M  V30 45 H -2.395151 0.924746 5.806698 0
M  V30 46 H -5.937948 -1.324164 2.491946 0
M  V30 47 H -6.110855 0.326892 1.737323 0
M  V30 48 H -5.977407 -2.330709 0.435888 0
M  V30 49 H -6.728942 -0.812624 -0.166004 0
M  V30 50 H -3.971260 -1.780785 -0.744160 0
M  V30 51 H -4.850960 -0.375814 -1.397921 0
M  V30 52 H -2.692371 -0.163920 0.272466 0
M  V30 53 H -4.045324 1.055249 0.266734 0
M  V30 END ATOM
M  V30 BEGIN BOND
M  V30 1 1 1 2
M  V30 2 1 2 3
M  V30 3 2 3 4
M  V30 4 1 4 5
M  V30 5 1 5 6
M  V30 6 2 6 7
M  V30 7 1 6 8
M  V30 8 1 8 9
M  V30 9 1 9 10
M  V30 10 1 10 11
M  V30 11 1 11 12
M  V30 12 1 12 13
M  V30 13 2 5 14
M  V30 14 1 14 15
M  V30 15 2 15 16
M  V30 16 1 16 17
M  V30 17 1 17 18
M  V30 18 2 18 19
M  V30 19 1 19 20
M  V30 20 2 20 21
M  V30 21 1 21 22
M  V30 22 1 21 23
M  V30 23 1 23 24
M  V30 24 1 24 25
M  V30 25 1 25 26
M  V30 26 1 26 27
M  V30 27 1 27 28
M  V30 28 2 23 29
M  V30 29 1 16 3
M  V30 30 1 29 18
M  V30 31 1 13 8
M  V30 32 1 28 24
M  V30 33 1 1 30
M  V30 34 1 1 31
M  V30 35 1 1 32
M  V30 36 1 4 33
M  V30 37 1 9 34
M  V30 38 1 9 35
M  V30 39 1 10 36
M  V30 40 1 10 37
M  V30 41 1 12 38
M  V30 42 1 12 39
M  V30 43 1 13 40
M  V30 44 1 13 41
M  V30 45 1 14 42
M  V30 46 1 15 43
M  V30 47 1 17 44
M  V30 48 1 20 45
M  V30 49 1 25 46
M  V30 50 1 25 47
M  V30 51 1 26 48
M  V30 52 1 26 49
M  V30 53 1 27 50
M  V30 54 1 27 51
M  V30 55 1 28 52
M  V30 56 1 28 53
M  V30 END BOND
M  V30 END CTAB
M  END
>  <Dataset>  (248) 
ChEMBL_Kinases

>  <Ligand_Instance>  (248) 
nan

>  <PDB_ID>  (248) 
nan

>  <Standardized_SMILES>  (248) 
COc1cc(C(=O)N2CCOCC2)ccc1Nc1ncc(Cl)c(N2CCCC2)n1

>  <Name>  (248) 
nan

>  <Pocket>  (248) 
nan

>  <ATP_Site>  (248) 
nan

>  <Peripheral>  (248) 
nan

>  <Num_H_Atoms_ProtBoundConf>  (248) 
nan

>  <Num_Resolved_Atoms>  (248) 
nan

>  <Num_Not_Resolved_Atoms>  (248) 
nan

$$$$
CHEMBL3641905
     RDKit          3D

  0  0  0  0  0  0  0  0  0  0999 V3000
M  V30 BEGIN CTAB
M  V30 COUNTS 56 59 0 0 0
M  V30 BEGIN ATOM
M  V30 1 C -1.383050 3.893967 3.214979 0
M  V30 2 O -1.758215 2.689378 2.601645 0
M  V30 3 C -0.877816 1.705776 2.185560 0
M  V30 4 C 0.467791 1.902651 2.377658 0
M  V30 5 C 1.395191 0.963988 1.986464 0
M  V30 6 C 2.826987 1.154111 2.180330 0
M  V30 7 O 3.489224 1.280787 3.242036 0
M  V30 8 N 3.653311 1.213105 1.024965 0
M  V30 9 C 5.093867 1.400525 1.124552 0
M  V30 10 C 5.583606 2.485691 0.199469 0
M  V30 11 O 5.002646 2.449296 -1.042813 0
M  V30 12 C 3.608366 2.425687 -0.995988 0
M  V30 13 C 3.223060 1.104152 -0.358946 0
M  V30 14 C 0.929513 -0.185706 1.393415 0
M  V30 15 C -0.425603 -0.350664 1.216490 0
M  V30 16 C -1.381610 0.562414 1.592799 0
M  V30 17 N -2.776076 0.377261 1.410820 0
M  V30 18 C -3.466149 -0.711952 0.818641 0
M  V30 19 N -4.806668 -0.696639 0.779762 0
M  V30 20 C -5.550442 -1.661720 0.249157 0
M  V30 21 C -4.916910 -2.752219 -0.298998 0
M  V30 22 Cl -5.826997 -4.064803 -1.016040 0
M  V30 23 C -3.548758 -2.818613 -0.286227 0
M  V30 24 N -2.797421 -3.906283 -0.825571 0
M  V30 25 C -2.861320 -5.268647 -0.336747 0
M  V30 26 C -1.740763 -6.043745 -0.997132 0
M  V30 27 C -0.452184 -5.284165 -0.881406 0
M  V30 28 C -0.511309 -3.944138 -1.544211 0
M  V30 29 C -1.920658 -3.615692 -1.939004 0
M  V30 30 N -2.898061 -1.790036 0.274238 0
M  V30 31 H -2.239480 4.612355 3.064287 0
M  V30 32 H -0.499415 4.316528 2.661414 0
M  V30 33 H -1.109856 3.807681 4.268440 0
M  V30 34 H 0.839865 2.793648 2.838335 0
M  V30 35 H 5.405751 1.672564 2.153716 0
M  V30 36 H 5.607966 0.445164 0.849702 0
M  V30 37 H 6.673128 2.336879 0.060971 0
M  V30 38 H 5.477638 3.463736 0.723920 0
M  V30 39 H 3.331201 3.268907 -0.302070 0
M  V30 40 H 3.189710 2.557733 -1.993279 0
M  V30 41 H 3.817765 0.289331 -0.815357 0
M  V30 42 H 2.146493 0.889126 -0.459210 0
M  V30 43 H 1.662078 -0.935888 1.079497 0
M  V30 44 H -0.689377 -1.276949 0.747017 0
M  V30 45 H -3.373013 1.174340 1.774188 0
M  V30 46 H -6.631840 -1.586652 0.250870 0
M  V30 47 H -2.789748 -5.311730 0.772010 0
M  V30 48 H -3.824626 -5.695819 -0.704625 0
M  V30 49 H -1.640235 -7.040927 -0.510472 0
M  V30 50 H -1.970526 -6.201222 -2.061412 0
M  V30 51 H -0.165177 -5.126191 0.180571 0
M  V30 52 H 0.346265 -5.870704 -1.417677 0
M  V30 53 H -0.187911 -3.119841 -0.842852 0
M  V30 54 H 0.107575 -3.897418 -2.476223 0
M  V30 55 H -2.025883 -2.584914 -2.303105 0
M  V30 56 H -2.208393 -4.299372 -2.765712 0
M  V30 END ATOM
M  V30 BEGIN BOND
M  V30 1 1 1 2
M  V30 2 1 2 3
M  V30 3 2 3 4
M  V30 4 1 4 5
M  V30 5 1 5 6
M  V30 6 2 6 7
M  V30 7 1 6 8
M  V30 8 1 8 9
M  V30 9 1 9 10
M  V30 10 1 10 11
M  V30 11 1 11 12
M  V30 12 1 12 13
M  V30 13 2 5 14
M  V30 14 1 14 15
M  V30 15 2 15 16
M  V30 16 1 16 17
M  V30 17 1 17 18
M  V30 18 2 18 19
M  V30 19 1 19 20
M  V30 20 2 20 21
M  V30 21 1 21 22
M  V30 22 1 21 23
M  V30 23 1 23 24
M  V30 24 1 24 25
M  V30 25 1 25 26
M  V30 26 1 26 27
M  V30 27 1 27 28
M  V30 28 1 28 29
M  V30 29 2 23 30
M  V30 30 1 16 3
M  V30 31 1 30 18
M  V30 32 1 13 8
M  V30 33 1 29 24
M  V30 34 1 1 31
M  V30 35 1 1 32
M  V30 36 1 1 33
M  V30 37 1 4 34
M  V30 38 1 9 35
M  V30 39 1 9 36
M  V30 40 1 10 37
M  V30 41 1 10 38
M  V30 42 1 12 39
M  V30 43 1 12 40
M  V30 44 1 13 41
M  V30 45 1 13 42
M  V30 46 1 14 43
M  V30 47 1 15 44
M  V30 48 1 17 45
M  V30 49 1 20 46
M  V30 50 1 25 47
M  V30 51 1 25 48
M  V30 52 1 26 49
M  V30 53 1 26 50
M  V30 54 1 27 51
M  V30 55 1 27 52
M  V30 56 1 28 53
M  V30 57 1 28 54
M  V30 58 1 29 55
M  V30 59 1 29 56
M  V30 END BOND
M  V30 END CTAB
M  END
>  <Dataset>  (249) 
ChEMBL_Kinases

>  <Ligand_Instance>  (249) 
nan

>  <PDB_ID>  (249) 
nan

>  <Standardized_SMILES>  (249) 
COc1cc(C(=O)N2CCOCC2)ccc1Nc1ncc(Cl)c(N2CCCCC2)n1

>  <Name>  (249) 
nan

>  <Pocket>  (249) 
nan

>  <ATP_Site>  (249) 
nan

>  <Peripheral>  (249) 
nan

>  <Num_H_Atoms_ProtBoundConf>  (249) 
nan

>  <Num_Resolved_Atoms>  (249) 
nan

>  <Num_Not_Resolved_Atoms>  (249) 
nan

$$$$
CHEMBL3641904
     RDKit          3D

  0  0  0  0  0  0  0  0  0  0999 V3000
M  V30 BEGIN CTAB
M  V30 COUNTS 58 60 0 0 0
M  V30 BEGIN ATOM
M  V30 1 C 4.191595 -0.657533 3.695174 0
M  V30 2 C 4.878821 -2.016194 3.841986 0
M  V30 3 N 3.841889 -2.973637 4.172647 0
M  V30 4 C 2.733678 -3.312691 3.379453 0
M  V30 5 N 2.625857 -2.703583 2.191146 0
M  V30 6 C 1.565304 -3.018981 1.395726 0
M  V30 7 N 1.146155 -2.586496 0.108000 0
M  V30 8 C 0.402891 -1.431092 -0.243829 0
M  V30 9 C 0.062169 -0.482525 0.742429 0
M  V30 10 C -0.651248 0.708510 0.557444 0
M  V30 11 C -1.022199 0.885828 -0.793529 0
M  V30 12 C -1.762222 2.124144 -1.053015 0
M  V30 13 O -1.402956 2.944907 -1.905641 0
M  V30 14 N -2.938533 2.698646 -0.509110 0
M  V30 15 C -3.291115 3.973803 -1.104059 0
M  V30 16 C -4.712823 4.283291 -0.686827 0
M  V30 17 O -4.901753 4.330231 0.679270 0
M  V30 18 C -4.184551 3.392504 1.395119 0
M  V30 19 C -3.824903 2.192286 0.540878 0
M  V30 20 C -0.727768 0.015202 -1.775570 0
M  V30 21 C -0.026841 -1.124303 -1.499951 0
M  V30 22 O 0.264786 -2.005973 -2.495714 0
M  V30 23 C -0.086077 -1.998146 -3.835905 0
M  V30 24 C -0.765402 -3.284433 -4.275032 0
M  V30 25 C 1.008974 -1.655735 -4.801494 0
M  V30 26 N 0.666420 -3.922608 1.819956 0
M  V30 27 C 0.733357 -4.558223 3.003394 0
M  V30 28 C 1.808927 -4.257839 3.845465 0
M  V30 29 C 1.913170 -4.907485 5.174661 0
M  V30 30 F 0.844860 -5.803576 5.308690 0
M  V30 31 F 1.715057 -3.914101 6.157464 0
M  V30 32 F 3.092351 -5.569657 5.329530 0
M  V30 33 H 3.308303 -0.672556 4.354347 0
M  V30 34 H 4.865046 0.153073 4.020528 0
M  V30 35 H 3.865523 -0.514655 2.666789 0
M  V30 36 H 5.468799 -2.265321 2.956408 0
M  V30 37 H 5.587853 -1.899281 4.689255 0
M  V30 38 H 3.949044 -3.454845 5.103174 0
M  V30 39 H 1.425113 -3.201556 -0.701177 0
M  V30 40 H 0.380398 -0.680811 1.759869 0
M  V30 41 H -0.846314 1.351051 1.384809 0
M  V30 42 H -2.583891 4.788276 -0.846135 0
M  V30 43 H -3.291827 3.857234 -2.205339 0
M  V30 44 H -5.033933 5.233075 -1.149903 0
M  V30 45 H -5.351137 3.450196 -1.074957 0
M  V30 46 H -4.815070 3.028231 2.223487 0
M  V30 47 H -3.256378 3.841004 1.828408 0
M  V30 48 H -4.743791 1.760887 0.139150 0
M  V30 49 H -3.292089 1.475151 1.202902 0
M  V30 50 H -1.085628 0.314058 -2.724240 0
M  V30 51 H -0.861620 -1.185147 -3.980474 0
M  V30 52 H -1.369522 -3.694990 -3.413119 0
M  V30 53 H -1.520917 -3.027050 -5.047881 0
M  V30 54 H -0.072443 -4.019751 -4.694355 0
M  V30 55 H 0.900516 -0.600618 -5.173702 0
M  V30 56 H 2.032258 -1.867767 -4.445970 0
M  V30 57 H 0.861805 -2.273608 -5.726849 0
M  V30 58 H 0.026640 -5.296669 3.383489 0
M  V30 END ATOM
M  V30 BEGIN BOND
M  V30 1 1 1 2
M  V30 2 1 2 3
M  V30 3 1 3 4
M  V30 4 2 4 5
M  V30 5 1 5 6
M  V30 6 1 6 7
M  V30 7 1 7 8
M  V30 8 2 8 9
M  V30 9 1 9 10
M  V30 10 2 10 11
M  V30 11 1 11 12
M  V30 12 2 12 13
M  V30 13 1 12 14
M  V30 14 1 14 15
M  V30 15 1 15 16
M  V30 16 1 16 17
M  V30 17 1 17 18
M  V30 18 1 18 19
M  V30 19 1 11 20
M  V30 20 2 20 21
M  V30 21 1 21 22
M  V30 22 1 22 23
M  V30 23 1 23 24
M  V30 24 1 23 25
M  V30 25 2 6 26
M  V30 26 1 26 27
M  V30 27 2 27 28
M  V30 28 1 28 29
M  V30 29 1 29 30
M  V30 30 1 29 31
M  V30 31 1 29 32
M  V30 32 1 28 4
M  V30 33 1 21 8
M  V30 34 1 19 14
M  V30 35 1 1 33
M  V30 36 1 1 34
M  V30 37 1 1 35
M  V30 38 1 2 36
M  V30 39 1 2 37
M  V30 40 1 3 38
M  V30 41 1 7 39
M  V30 42 1 9 40
M  V30 43 1 10 41
M  V30 44 1 15 42
M  V30 45 1 15 43
M  V30 46 1 16 44
M  V30 47 1 16 45
M  V30 48 1 18 46
M  V30 49 1 18 47
M  V30 50 1 19 48
M  V30 51 1 19 49
M  V30 52 1 20 50
M  V30 53 1 23 51
M  V30 54 1 24 52
M  V30 55 1 24 53
M  V30 56 1 24 54
M  V30 57 1 25 55
M  V30 58 1 25 56
M  V30 59 1 25 57
M  V30 60 1 27 58
M  V30 END BOND
M  V30 END CTAB
M  END
>  <Dataset>  (250) 
ChEMBL_Kinases

>  <Ligand_Instance>  (250) 
nan

>  <PDB_ID>  (250) 
nan

>  <Standardized_SMILES>  (250) 
CCNc1nc(Nc2ccc(C(=O)N3CCOCC3)cc2OC(C)C)ncc1C(F)(F)F

>  <Name>  (250) 
nan

>  <Pocket>  (250) 
nan

>  <ATP_Site>  (250) 
nan

>  <Peripheral>  (250) 
nan

>  <Num_H_Atoms_ProtBoundConf>  (250) 
nan

>  <Num_Resolved_Atoms>  (250) 
nan

>  <Num_Not_Resolved_Atoms>  (250) 
nan

$$$$
CHEMBL3641903
     RDKit          3D

  0  0  0  0  0  0  0  0  0  0999 V3000
M  V30 BEGIN CTAB
M  V30 COUNTS 55 57 0 0 0
M  V30 BEGIN ATOM
M  V30 1 C 0.647267 -3.306731 4.673898 0
M  V30 2 N 0.865907 -4.664261 4.227495 0
M  V30 3 C 1.098807 -5.110087 2.889060 0
M  V30 4 N 1.132048 -4.231081 1.878348 0
M  V30 5 C 1.337764 -4.510341 0.591159 0
M  V30 6 N 1.375093 -3.589334 -0.484805 0
M  V30 7 C 1.208922 -2.182603 -0.440185 0
M  V30 8 C 0.977788 -1.448131 0.702927 0
M  V30 9 C 0.814196 -0.080413 0.766759 0
M  V30 10 F 0.589898 0.578952 1.921793 0
M  V30 11 C 0.884965 0.636683 -0.410941 0
M  V30 12 C 0.728263 2.085778 -0.468389 0
M  V30 13 O 1.585262 3.003735 -0.378663 0
M  V30 14 N -0.550535 2.698700 -0.652512 0
M  V30 15 C -0.652709 4.122391 -0.702018 0
M  V30 16 C -1.693505 4.688102 0.237046 0 CFG=1
M  V30 17 C -1.909345 6.137541 -0.163924 0
M  V30 18 O -2.899089 4.038770 0.160981 0
M  V30 19 C -2.782247 2.660990 0.300987 0 CFG=1
M  V30 20 C -4.141577 2.021932 0.185874 0
M  V30 21 C -1.886886 2.167396 -0.815577 0
M  V30 22 C 1.114635 -0.049854 -1.585006 0
M  V30 23 C 1.271750 -1.417658 -1.598462 0
M  V30 24 O 1.500009 -2.045904 -2.812325 0
M  V30 25 C 1.572656 -1.307112 -4.025582 0
M  V30 26 N 1.525623 -5.811358 0.324004 0
M  V30 27 C 1.515216 -6.782274 1.245122 0
M  V30 28 C 1.297703 -6.433150 2.559857 0
M  V30 29 C 1.265731 -7.425478 3.665621 0
M  V30 30 F 1.489744 -8.676953 3.077044 0
M  V30 31 F 0.020087 -7.497186 4.270275 0
M  V30 32 F 2.256684 -7.166940 4.594154 0
M  V30 33 H 0.292824 -2.680200 3.840954 0
M  V30 34 H 1.568221 -2.873580 5.157713 0
M  V30 35 H -0.176395 -3.341796 5.444325 0
M  V30 36 H 0.850574 -5.395939 4.971577 0
M  V30 37 H 1.548016 -3.982418 -1.454878 0
M  V30 38 H 0.910825 -1.931957 1.647683 0
M  V30 39 H 0.319775 4.603496 -0.485683 0
M  V30 40 H -0.935902 4.416828 -1.733828 0
M  V30 41 H -1.340265 4.696709 1.292084 0
M  V30 42 H -3.002522 6.349202 -0.344949 0
M  V30 43 H -1.604073 6.846247 0.642584 0
M  V30 44 H -1.420078 6.376723 -1.127105 0
M  V30 45 H -2.396755 2.393381 1.300927 0
M  V30 46 H -4.128191 1.252665 -0.610076 0
M  V30 47 H -4.888858 2.787686 -0.149494 0
M  V30 48 H -4.490158 1.569280 1.131257 0
M  V30 49 H -2.351940 2.515342 -1.762314 0
M  V30 50 H -1.931581 1.063537 -0.771675 0
M  V30 51 H 1.169316 0.509662 -2.501273 0
M  V30 52 H 2.523032 -0.769697 -4.105712 0
M  V30 53 H 1.520310 -1.998711 -4.892178 0
M  V30 54 H 0.679935 -0.633321 -4.119107 0
M  V30 55 H 1.668848 -7.818197 1.002402 0
M  V30 END ATOM
M  V30 BEGIN BOND
M  V30 1 1 1 2
M  V30 2 1 2 3
M  V30 3 2 3 4
M  V30 4 1 4 5
M  V30 5 1 5 6
M  V30 6 1 6 7
M  V30 7 2 7 8
M  V30 8 1 8 9
M  V30 9 1 9 10
M  V30 10 2 9 11
M  V30 11 1 11 12
M  V30 12 2 12 13
M  V30 13 1 12 14
M  V30 14 1 14 15
M  V30 15 1 15 16
M  V30 16 1 16 17
M  V30 17 1 16 18
M  V30 18 1 18 19
M  V30 19 1 19 20
M  V30 20 1 19 21
M  V30 21 1 11 22
M  V30 22 2 22 23
M  V30 23 1 23 24
M  V30 24 1 24 25
M  V30 25 2 5 26
M  V30 26 1 26 27
M  V30 27 2 27 28
M  V30 28 1 28 29
M  V30 29 1 29 30
M  V30 30 1 29 31
M  V30 31 1 29 32
M  V30 32 1 28 3
M  V30 33 1 23 7
M  V30 34 1 21 14
M  V30 35 1 1 33
M  V30 36 1 1 34
M  V30 37 1 1 35
M  V30 38 1 2 36
M  V30 39 1 6 37
M  V30 40 1 8 38
M  V30 41 1 15 39
M  V30 42 1 15 40
M  V30 43 1 16 41 CFG=1
M  V30 44 1 17 42
M  V30 45 1 17 43
M  V30 46 1 17 44
M  V30 47 1 19 45 CFG=1
M  V30 48 1 20 46
M  V30 49 1 20 47
M  V30 50 1 20 48
M  V30 51 1 21 49
M  V30 52 1 21 50
M  V30 53 1 22 51
M  V30 54 1 25 52
M  V30 55 1 25 53
M  V30 56 1 25 54
M  V30 57 1 27 55
M  V30 END BOND
M  V30 END CTAB
M  END
>  <Dataset>  (251) 
ChEMBL_Kinases

>  <Ligand_Instance>  (251) 
nan

>  <PDB_ID>  (251) 
nan

>  <Standardized_SMILES>  (251) 
CNc1nc(Nc2cc(F)c(C(=O)N3C[C@@H](C)O[C@@H](C)C3)cc2OC)ncc1C(F)(F)F

>  <Name>  (251) 
nan

>  <Pocket>  (251) 
nan

>  <ATP_Site>  (251) 
nan

>  <Peripheral>  (251) 
nan

>  <Num_H_Atoms_ProtBoundConf>  (251) 
nan

>  <Num_Resolved_Atoms>  (251) 
nan

>  <Num_Not_Resolved_Atoms>  (251) 
nan

$$$$
CHEMBL3641902
     RDKit          3D

  0  0  0  0  0  0  0  0  0  0999 V3000
M  V30 BEGIN CTAB
M  V30 COUNTS 54 55 0 0 0
M  V30 BEGIN ATOM
M  V30 1 C 2.222950 -2.391040 4.714177 0
M  V30 2 N 2.398525 -3.819244 4.547143 0
M  V30 3 C 2.173408 -4.427724 3.278770 0
M  V30 4 N 1.800662 -3.694053 2.236175 0
M  V30 5 C 1.554613 -4.119517 0.995263 0
M  V30 6 N 1.160494 -3.339654 -0.105242 0
M  V30 7 C 0.935888 -1.941160 -0.154130 0
M  V30 8 C 1.064966 -1.070257 0.890462 0
M  V30 9 C 0.846721 0.290368 0.844326 0
M  V30 10 F 1.001598 1.080179 1.943076 0
M  V30 11 C 0.465289 0.850781 -0.339841 0
M  V30 12 C 0.232329 2.287705 -0.402687 0
M  V30 13 O 1.176402 3.085891 -0.695274 0
M  V30 14 N -0.950309 3.028629 -0.179796 0
M  V30 15 C -0.742237 4.458922 -0.346940 0
M  V30 16 C -2.279401 2.579372 0.175093 0
M  V30 17 C -3.157528 2.287995 -1.017865 0
M  V30 18 C -4.506475 1.850652 -0.485276 0
M  V30 19 C -3.432753 3.552800 -1.822947 0
M  V30 20 O -2.639728 1.298133 -1.837891 0
M  V30 21 C 0.317145 0.025237 -1.433062 0
M  V30 22 C 0.543127 -1.312416 -1.342019 0
M  V30 23 O 0.375461 -2.086790 -2.482175 0
M  V30 24 C -0.021880 -1.517910 -3.724022 0
M  V30 25 N 1.715991 -5.442625 0.835867 0
M  V30 26 C 2.087609 -6.279708 1.811204 0
M  V30 27 C 2.322765 -5.771447 3.058855 0
M  V30 28 C 2.736049 -6.656557 4.170648 0
M  V30 29 F 3.982523 -6.239698 4.641209 0
M  V30 30 F 1.795057 -6.583398 5.185134 0
M  V30 31 F 2.898333 -7.950872 3.702983 0
M  V30 32 H 1.155586 -2.093980 4.683877 0
M  V30 33 H 2.793161 -1.779368 3.994858 0
M  V30 34 H 2.587985 -2.122954 5.730877 0
M  V30 35 H 2.693321 -4.460642 5.334256 0
M  V30 36 H 1.005669 -3.841087 -1.026890 0
M  V30 37 H 1.363593 -1.440537 1.859054 0
M  V30 38 H -0.429375 4.674543 -1.384649 0
M  V30 39 H 0.136425 4.716816 0.314125 0
M  V30 40 H -1.619795 5.041286 -0.002993 0
M  V30 41 H -2.813111 3.317282 0.805720 0
M  V30 42 H -2.187530 1.587465 0.710238 0
M  V30 43 H -4.670128 2.355348 0.502468 0
M  V30 44 H -4.525240 0.750817 -0.378023 0
M  V30 45 H -5.335741 2.205027 -1.127939 0
M  V30 46 H -4.378646 3.367368 -2.374148 0
M  V30 47 H -3.661179 4.344411 -1.071517 0
M  V30 48 H -2.584639 3.830815 -2.480851 0
M  V30 49 H -3.407332 0.924429 -2.369762 0
M  V30 50 H 0.014637 0.480213 -2.365906 0
M  V30 51 H 0.750929 -0.907434 -4.201171 0
M  V30 52 H -0.348302 -2.299636 -4.425956 0
M  V30 53 H -0.925191 -0.858189 -3.582790 0
M  V30 54 H 2.198269 -7.348039 1.604603 0
M  V30 END ATOM
M  V30 BEGIN BOND
M  V30 1 1 1 2
M  V30 2 1 2 3
M  V30 3 2 3 4
M  V30 4 1 4 5
M  V30 5 1 5 6
M  V30 6 1 6 7
M  V30 7 2 7 8
M  V30 8 1 8 9
M  V30 9 1 9 10
M  V30 10 2 9 11
M  V30 11 1 11 12
M  V30 12 2 12 13
M  V30 13 1 12 14
M  V30 14 1 14 15
M  V30 15 1 14 16
M  V30 16 1 16 17
M  V30 17 1 17 18
M  V30 18 1 17 19
M  V30 19 1 17 20
M  V30 20 1 11 21
M  V30 21 2 21 22
M  V30 22 1 22 23
M  V30 23 1 23 24
M  V30 24 2 5 25
M  V30 25 1 25 26
M  V30 26 2 26 27
M  V30 27 1 27 28
M  V30 28 1 28 29
M  V30 29 1 28 30
M  V30 30 1 28 31
M  V30 31 1 27 3
M  V30 32 1 22 7
M  V30 33 1 1 32
M  V30 34 1 1 33
M  V30 35 1 1 34
M  V30 36 1 2 35
M  V30 37 1 6 36
M  V30 38 1 8 37
M  V30 39 1 15 38
M  V30 40 1 15 39
M  V30 41 1 15 40
M  V30 42 1 16 41
M  V30 43 1 16 42
M  V30 44 1 18 43
M  V30 45 1 18 44
M  V30 46 1 18 45
M  V30 47 1 19 46
M  V30 48 1 19 47
M  V30 49 1 19 48
M  V30 50 1 20 49
M  V30 51 1 21 50
M  V30 52 1 24 51
M  V30 53 1 24 52
M  V30 54 1 24 53
M  V30 55 1 26 54
M  V30 END BOND
M  V30 END CTAB
M  END
>  <Dataset>  (252) 
ChEMBL_Kinases

>  <Ligand_Instance>  (252) 
nan

>  <PDB_ID>  (252) 
nan

>  <Standardized_SMILES>  (252) 
CNc1nc(Nc2cc(F)c(C(=O)N(C)CC(C)(C)O)cc2OC)ncc1C(F)(F)F

>  <Name>  (252) 
nan

>  <Pocket>  (252) 
nan

>  <ATP_Site>  (252) 
nan

>  <Peripheral>  (252) 
nan

>  <Num_H_Atoms_ProtBoundConf>  (252) 
nan

>  <Num_Resolved_Atoms>  (252) 
nan

>  <Num_Not_Resolved_Atoms>  (252) 
nan

$$$$
CHEMBL3641901
     RDKit          3D

  0  0  0  0  0  0  0  0  0  0999 V3000
M  V30 BEGIN CTAB
M  V30 COUNTS 52 54 0 0 0
M  V30 BEGIN ATOM
M  V30 1 C 6.487486 -4.402637 -0.074594 0
M  V30 2 N 5.333202 -4.110209 0.653301 0
M  V30 3 C 4.116550 -3.786991 1.308527 0
M  V30 4 N 2.916770 -3.343486 0.927722 0
M  V30 5 C 1.902065 -3.105691 1.749261 0
M  V30 6 N 0.705706 -2.660507 1.165346 0
M  V30 7 C 0.210995 -1.546922 0.487369 0
M  V30 8 C 1.058738 -0.466740 0.159329 0
M  V30 9 C 0.514990 0.614320 -0.551174 0
M  V30 10 F 1.243753 1.682577 -0.905137 0
M  V30 11 C -0.805415 0.631553 -0.920093 0
M  V30 12 C -1.484676 1.703064 -1.647452 0
M  V30 13 O -1.450326 1.510300 -2.898172 0
M  V30 14 N -2.032963 2.719478 -0.766046 0
M  V30 15 C -1.937891 2.790358 0.707044 0
M  V30 16 C -3.387961 2.915508 1.076824 0
M  V30 17 C -4.007979 3.680568 -0.106590 0
M  V30 18 O -5.005764 2.896642 -0.630290 0
M  V30 19 C -6.280556 3.394903 -0.467435 0
M  V30 20 C -2.836914 3.932334 -1.000233 0
M  V30 21 C -1.635445 -0.451583 -0.586118 0
M  V30 22 C -1.109741 -1.522092 0.111833 0
M  V30 23 O -1.852294 -2.515732 0.418638 0
M  V30 24 C -2.915958 -3.303871 0.533667 0
M  V30 25 N 2.105974 -3.329817 3.042406 0
M  V30 26 C 3.256364 -3.772605 3.539768 0
M  V30 27 C 4.328074 -4.023282 2.673154 0
M  V30 28 C 5.560982 -4.502297 3.361630 0
M  V30 29 F 6.622317 -3.644059 3.203695 0
M  V30 30 F 5.903493 -5.785783 2.894486 0
M  V30 31 F 5.347665 -4.678456 4.709406 0
M  V30 32 H 7.294932 -4.699155 0.687329 0
M  V30 33 H 6.429239 -5.221081 -0.832141 0
M  V30 34 H 6.986165 -3.535079 -0.588498 0
M  V30 35 H 4.908349 -3.850673 -0.301968 0
M  V30 36 H 0.091713 -3.480529 1.360078 0
M  V30 37 H 2.089204 -0.438096 0.427538 0
M  V30 38 H -1.395057 3.717591 0.928061 0
M  V30 39 H -1.445192 1.885385 1.110329 0
M  V30 40 H -3.855051 1.914040 1.200598 0
M  V30 41 H -3.481962 3.445290 2.023429 0
M  V30 42 H -4.439497 4.589723 0.345769 0
M  V30 43 H -6.493756 3.515753 0.636691 0
M  V30 44 H -6.517635 4.310583 -1.029283 0
M  V30 45 H -6.987898 2.607725 -0.854774 0
M  V30 46 H -2.302039 4.818381 -0.656450 0
M  V30 47 H -3.096315 4.067139 -2.055432 0
M  V30 48 H -2.679392 -0.465847 -0.863390 0
M  V30 49 H -3.107285 -3.857810 -0.433997 0
M  V30 50 H -2.879512 -4.068375 1.367353 0
M  V30 51 H -3.899704 -2.761111 0.716118 0
M  V30 52 H 3.273795 -3.909242 4.626260 0
M  V30 END ATOM
M  V30 BEGIN BOND
M  V30 1 1 1 2
M  V30 2 1 2 3
M  V30 3 2 3 4
M  V30 4 1 4 5
M  V30 5 1 5 6
M  V30 6 1 6 7
M  V30 7 2 7 8
M  V30 8 1 8 9
M  V30 9 1 9 10
M  V30 10 2 9 11
M  V30 11 1 11 12
M  V30 12 2 12 13
M  V30 13 1 12 14
M  V30 14 1 14 15
M  V30 15 1 15 16
M  V30 16 1 16 17
M  V30 17 1 17 18
M  V30 18 1 18 19
M  V30 19 1 17 20
M  V30 20 1 11 21
M  V30 21 2 21 22
M  V30 22 1 22 23
M  V30 23 1 23 24
M  V30 24 2 5 25
M  V30 25 1 25 26
M  V30 26 2 26 27
M  V30 27 1 27 28
M  V30 28 1 28 29
M  V30 29 1 28 30
M  V30 30 1 28 31
M  V30 31 1 27 3
M  V30 32 1 22 7
M  V30 33 1 20 14
M  V30 34 1 1 32
M  V30 35 1 1 33
M  V30 36 1 1 34
M  V30 37 1 2 35
M  V30 38 1 6 36
M  V30 39 1 8 37
M  V30 40 1 15 38
M  V30 41 1 15 39
M  V30 42 1 16 40
M  V30 43 1 16 41
M  V30 44 1 17 42
M  V30 45 1 19 43
M  V30 46 1 19 44
M  V30 47 1 19 45
M  V30 48 1 20 46
M  V30 49 1 20 47
M  V30 50 1 21 48
M  V30 51 1 24 49
M  V30 52 1 24 50
M  V30 53 1 24 51
M  V30 54 1 26 52
M  V30 END BOND
M  V30 END CTAB
M  END
>  <Dataset>  (253) 
ChEMBL_Kinases

>  <Ligand_Instance>  (253) 
nan

>  <PDB_ID>  (253) 
nan

>  <Standardized_SMILES>  (253) 
CNc1nc(Nc2cc(F)c(C(=O)N3CCC(OC)C3)cc2OC)ncc1C(F)(F)F

>  <Name>  (253) 
nan

>  <Pocket>  (253) 
nan

>  <ATP_Site>  (253) 
nan

>  <Peripheral>  (253) 
nan

>  <Num_H_Atoms_ProtBoundConf>  (253) 
nan

>  <Num_Resolved_Atoms>  (253) 
nan

>  <Num_Not_Resolved_Atoms>  (253) 
nan

$$$$
CHEMBL3641900
     RDKit          3D

  0  0  0  0  0  0  0  0  0  0999 V3000
M  V30 BEGIN CTAB
M  V30 COUNTS 52 54 0 0 0
M  V30 BEGIN ATOM
M  V30 1 C -2.316840 -5.461055 1.533982 0
M  V30 2 N -1.100380 -6.043916 1.049611 0
M  V30 3 C 0.223551 -5.533146 1.261669 0
M  V30 4 N 0.451614 -4.426658 1.955194 0
M  V30 5 C 1.645980 -3.883387 2.199688 0
M  V30 6 N 1.590907 -2.687560 2.975082 0
M  V30 7 C 1.483523 -1.392008 2.373938 0
M  V30 8 C 1.434523 -1.289659 0.987812 0
M  V30 9 C 1.331117 -0.015762 0.422255 0
M  V30 10 O 1.276169 0.195671 -0.921655 0
M  V30 11 C 1.313383 -0.800401 -1.916399 0
M  V30 12 C 1.277933 1.126176 1.219511 0
M  V30 13 C 1.168356 2.467109 0.602744 0
M  V30 14 O 2.278783 3.009980 0.354596 0
M  V30 15 N -0.135570 2.983980 0.363175 0
M  V30 16 C -1.451378 2.430486 0.616711 0
M  V30 17 C -2.283329 3.680553 0.800172 0
M  V30 18 C -1.781535 4.514472 -0.384950 0
M  V30 19 O -2.185596 5.824667 -0.330986 0
M  V30 20 C -2.969313 6.046490 -1.486488 0
M  V30 21 C -0.290222 4.311522 -0.249881 0
M  V30 22 C 1.327382 1.017710 2.607966 0
M  V30 23 C 1.430601 -0.258372 3.160666 0
M  V30 24 Cl 1.492616 -0.383646 4.920527 0
M  V30 25 N 2.752180 -4.483336 1.714578 0
M  V30 26 C 2.606905 -5.629105 0.988342 0
M  V30 27 C 1.340483 -6.169162 0.752299 0
M  V30 28 C 1.164458 -7.411820 -0.033678 0
M  V30 29 F 0.553535 -8.420305 0.681420 0
M  V30 30 F 2.406797 -7.854550 -0.467856 0
M  V30 31 F 0.371664 -7.171682 -1.143666 0
M  V30 32 H -3.033148 -5.315983 0.722830 0
M  V30 33 H -2.798029 -6.126313 2.304035 0
M  V30 34 H -2.107913 -4.500041 2.068431 0
M  V30 35 H -1.214643 -6.919402 0.494760 0
M  V30 36 H 1.629837 -2.755532 4.015340 0
M  V30 37 H 1.473107 -2.152321 0.331987 0
M  V30 38 H 0.899566 -0.466737 -2.876314 0
M  V30 39 H 2.393638 -1.035638 -2.086496 0
M  V30 40 H 0.871156 -1.773326 -1.579287 0
M  V30 41 H -1.493653 1.866602 1.567047 0
M  V30 42 H -1.798901 1.858472 -0.261525 0
M  V30 43 H -3.369849 3.500910 0.718039 0
M  V30 44 H -1.986096 4.135528 1.759629 0
M  V30 45 H -2.172346 4.012600 -1.294770 0
M  V30 46 H -3.337903 7.087947 -1.519807 0
M  V30 47 H -2.295263 5.856735 -2.350301 0
M  V30 48 H -3.828463 5.358480 -1.549320 0
M  V30 49 H 0.196217 5.085072 0.349105 0
M  V30 50 H 0.150271 4.308821 -1.276194 0
M  V30 51 H 1.287205 1.892291 3.239112 0
M  V30 52 H 3.491249 -6.107994 0.601013 0
M  V30 END ATOM
M  V30 BEGIN BOND
M  V30 1 1 1 2
M  V30 2 1 2 3
M  V30 3 2 3 4
M  V30 4 1 4 5
M  V30 5 1 5 6
M  V30 6 1 6 7
M  V30 7 2 7 8
M  V30 8 1 8 9
M  V30 9 1 9 10
M  V30 10 1 10 11
M  V30 11 2 9 12
M  V30 12 1 12 13
M  V30 13 2 13 14
M  V30 14 1 13 15
M  V30 15 1 15 16
M  V30 16 1 16 17
M  V30 17 1 17 18
M  V30 18 1 18 19
M  V30 19 1 19 20
M  V30 20 1 18 21
M  V30 21 1 12 22
M  V30 22 2 22 23
M  V30 23 1 23 24
M  V30 24 2 5 25
M  V30 25 1 25 26
M  V30 26 2 26 27
M  V30 27 1 27 28
M  V30 28 1 28 29
M  V30 29 1 28 30
M  V30 30 1 28 31
M  V30 31 1 27 3
M  V30 32 1 23 7
M  V30 33 1 21 15
M  V30 34 1 1 32
M  V30 35 1 1 33
M  V30 36 1 1 34
M  V30 37 1 2 35
M  V30 38 1 6 36
M  V30 39 1 8 37
M  V30 40 1 11 38
M  V30 41 1 11 39
M  V30 42 1 11 40
M  V30 43 1 16 41
M  V30 44 1 16 42
M  V30 45 1 17 43
M  V30 46 1 17 44
M  V30 47 1 18 45
M  V30 48 1 20 46
M  V30 49 1 20 47
M  V30 50 1 20 48
M  V30 51 1 21 49
M  V30 52 1 21 50
M  V30 53 1 22 51
M  V30 54 1 26 52
M  V30 END BOND
M  V30 END CTAB
M  END
>  <Dataset>  (254) 
ChEMBL_Kinases

>  <Ligand_Instance>  (254) 
nan

>  <PDB_ID>  (254) 
nan

>  <Standardized_SMILES>  (254) 
CNc1nc(Nc2cc(OC)c(C(=O)N3CCC(OC)C3)cc2Cl)ncc1C(F)(F)F

>  <Name>  (254) 
nan

>  <Pocket>  (254) 
nan

>  <ATP_Site>  (254) 
nan

>  <Peripheral>  (254) 
nan

>  <Num_H_Atoms_ProtBoundConf>  (254) 
nan

>  <Num_Resolved_Atoms>  (254) 
nan

>  <Num_Not_Resolved_Atoms>  (254) 
nan

$$$$
CHEMBL3641899
     RDKit          3D

  0  0  0  0  0  0  0  0  0  0999 V3000
M  V30 BEGIN CTAB
M  V30 COUNTS 46 48 0 0 0
M  V30 BEGIN ATOM
M  V30 1 C -0.844605 -5.120411 3.718554 0
M  V30 2 N -0.389984 -6.033749 2.663287 0
M  V30 3 C -0.330403 -5.517044 1.335433 0
M  V30 4 N -0.673491 -4.246386 1.044256 0
M  V30 5 C -0.644526 -3.699334 -0.173438 0
M  V30 6 N -1.040773 -2.342238 -0.300880 0
M  V30 7 C -0.399555 -1.076768 -0.353561 0
M  V30 8 C 0.973698 -0.989970 -0.312892 0
M  V30 9 C 1.595108 0.260696 -0.383653 0
M  V30 10 C 0.793652 1.389427 -0.494191 0
M  V30 11 C 1.276824 2.760410 -0.586981 0
M  V30 12 O 1.062536 3.290774 -1.699812 0
M  V30 13 N 1.920958 3.399216 0.497031 0
M  V30 14 C 2.467195 4.757548 0.578100 0
M  V30 15 C 1.854486 5.303407 1.860688 0 CFG=2
M  V30 16 F 2.512262 6.382488 2.365519 0
M  V30 17 C 1.853741 4.094180 2.783227 0 CFG=1
M  V30 18 F 0.577169 3.864806 3.235075 0
M  V30 19 C 2.249210 2.980587 1.831646 0
M  V30 20 C -0.595898 1.245715 -0.530563 0
M  V30 21 C -1.236001 0.027450 -0.462788 0
M  V30 22 O -2.596392 -0.141922 -0.495687 0
M  V30 23 C -3.564737 0.857060 -0.600319 0
M  V30 24 N -0.239176 -4.461683 -1.230506 0
M  V30 25 C 0.126257 -5.758830 -1.024737 0
M  V30 26 C 0.080783 -6.282247 0.249106 0
M  V30 27 C 0.455076 -7.649356 0.531457 0
M  V30 28 N 0.736114 -8.734316 0.765465 0
M  V30 29 H -0.069516 -4.334221 3.806461 0
M  V30 30 H -1.067208 -5.650961 4.647683 0
M  V30 31 H -1.747475 -4.597418 3.302638 0
M  V30 32 H -0.097646 -7.043156 2.777089 0
M  V30 33 H -2.070111 -2.476975 -0.356915 0
M  V30 34 H 1.610629 -1.859068 -0.227534 0
M  V30 35 H 2.652479 0.431350 -0.360053 0
M  V30 36 H 2.074234 5.333903 -0.273875 0
M  V30 37 H 3.552684 4.737111 0.672522 0
M  V30 38 H 0.802751 5.592972 1.670313 0
M  V30 39 H 2.584877 4.258584 3.586136 0
M  V30 40 H 3.341717 2.748345 1.945550 0
M  V30 41 H 1.698957 2.075489 2.150963 0
M  V30 42 H -1.247396 2.113454 -0.615910 0
M  V30 43 H -3.528939 1.600810 0.231198 0
M  V30 44 H -3.463197 1.456030 -1.528212 0
M  V30 45 H -4.563974 0.370827 -0.497834 0
M  V30 46 H 0.445903 -6.363057 -1.851154 0
M  V30 END ATOM
M  V30 BEGIN BOND
M  V30 1 1 1 2
M  V30 2 1 2 3
M  V30 3 2 3 4
M  V30 4 1 4 5
M  V30 5 1 5 6
M  V30 6 1 6 7
M  V30 7 2 7 8
M  V30 8 1 8 9
M  V30 9 2 9 10
M  V30 10 1 10 11
M  V30 11 2 11 12
M  V30 12 1 11 13
M  V30 13 1 13 14
M  V30 14 1 14 15
M  V30 15 1 15 16
M  V30 16 1 15 17
M  V30 17 1 17 18
M  V30 18 1 17 19
M  V30 19 1 10 20
M  V30 20 2 20 21
M  V30 21 1 21 22
M  V30 22 1 22 23
M  V30 23 2 5 24
M  V30 24 1 24 25
M  V30 25 2 25 26
M  V30 26 1 26 27
M  V30 27 3 27 28
M  V30 28 1 26 3
M  V30 29 1 21 7
M  V30 30 1 19 13
M  V30 31 1 1 29
M  V30 32 1 1 30
M  V30 33 1 1 31
M  V30 34 1 2 32
M  V30 35 1 6 33
M  V30 36 1 8 34
M  V30 37 1 9 35
M  V30 38 1 14 36
M  V30 39 1 14 37
M  V30 40 1 15 38 CFG=3
M  V30 41 1 17 39 CFG=1
M  V30 42 1 19 40
M  V30 43 1 19 41
M  V30 44 1 20 42
M  V30 45 1 23 43
M  V30 46 1 23 44
M  V30 47 1 23 45
M  V30 48 1 25 46
M  V30 END BOND
M  V30 END CTAB
M  END
>  <Dataset>  (255) 
ChEMBL_Kinases

>  <Ligand_Instance>  (255) 
nan

>  <PDB_ID>  (255) 
nan

>  <Standardized_SMILES>  (255) 
CNc1nc(Nc2ccc(C(=O)N3C[C@H](F)[C@@H](F)C3)cc2OC)ncc1C#N

>  <Name>  (255) 
nan

>  <Pocket>  (255) 
nan

>  <ATP_Site>  (255) 
nan

>  <Peripheral>  (255) 
nan

>  <Num_H_Atoms_ProtBoundConf>  (255) 
nan

>  <Num_Resolved_Atoms>  (255) 
nan

>  <Num_Not_Resolved_Atoms>  (255) 
nan

$$$$
CHEMBL3641898
     RDKit          3D

  0  0  0  0  0  0  0  0  0  0999 V3000
M  V30 BEGIN CTAB
M  V30 COUNTS 53 56 0 0 0
M  V30 BEGIN ATOM
M  V30 1 C 3.053887 -0.794486 3.674952 0
M  V30 2 C 3.617940 -2.099186 4.186284 0
M  V30 3 N 2.548738 -3.034860 4.500468 0
M  V30 4 C 1.614671 -3.468346 3.553406 0
M  V30 5 N 1.715963 -2.996982 2.297898 0
M  V30 6 C 0.846987 -3.363960 1.329363 0
M  V30 7 N 0.766671 -3.016491 -0.042368 0
M  V30 8 C 0.452172 -1.680572 -0.487990 0
M  V30 9 C 0.308142 -0.719708 0.492842 0
M  V30 10 C 0.024085 0.601075 0.170839 0
M  V30 11 C -0.109364 0.920934 -1.168302 0
M  V30 12 C -0.414072 2.339879 -1.423815 0
M  V30 13 O 0.328535 3.351945 -1.635644 0
M  V30 14 N -1.787467 2.709481 -1.448096 0
M  V30 15 C -2.338769 4.034095 -1.672792 0
M  V30 16 C -3.802110 3.916917 -1.316104 0 CFG=2
M  V30 17 C -3.733330 2.791038 -0.296541 0
M  V30 18 C -2.974871 1.882607 -1.255237 0 CFG=1
M  V30 19 C -3.817827 2.014987 -2.472466 0
M  V30 20 O -4.413123 3.291573 -2.402843 0
M  V30 21 C 0.029655 -0.021843 -2.165422 0
M  V30 22 F -0.112030 0.355650 -3.450857 0
M  V30 23 C 0.309876 -1.325003 -1.836641 0
M  V30 24 O 0.461184 -2.319179 -2.783078 0
M  V30 25 C 1.718393 -2.592129 -3.344168 0
M  V30 26 N -0.150200 -4.235167 1.656431 0
M  V30 27 C -0.295965 -4.736840 2.896687 0
M  V30 28 C 0.604188 -4.351108 3.881034 0
M  V30 29 C 0.490936 -4.866972 5.254333 0
M  V30 30 F 0.298408 -3.867161 6.195280 0
M  V30 31 F -0.576127 -5.737171 5.380707 0
M  V30 32 F 1.627182 -5.584754 5.642725 0
M  V30 33 H 3.092975 -0.093835 4.559550 0
M  V30 34 H 1.986042 -0.889436 3.410120 0
M  V30 35 H 3.654184 -0.326428 2.872223 0
M  V30 36 H 4.238312 -2.537808 3.387294 0
M  V30 37 H 4.279719 -1.934580 5.066770 0
M  V30 38 H 2.486836 -3.385572 5.461666 0
M  V30 39 H 0.936140 -3.747000 -0.764503 0
M  V30 40 H 0.418939 -0.994607 1.547876 0
M  V30 41 H -0.077240 1.310383 0.982300 0
M  V30 42 H -1.855096 4.748491 -0.949565 0
M  V30 43 H -2.190732 4.374224 -2.718243 0
M  V30 44 H -4.271761 4.817051 -0.990094 0
M  V30 45 H -3.105487 3.072048 0.572399 0
M  V30 46 H -4.731206 2.425402 -0.046835 0
M  V30 47 H -2.802066 0.883342 -0.889672 0
M  V30 48 H -4.660827 1.294924 -2.554913 0
M  V30 49 H -3.210807 1.924021 -3.404583 0
M  V30 50 H 1.666149 -2.780784 -4.439517 0
M  V30 51 H 2.180343 -3.477707 -2.881528 0
M  V30 52 H 2.338440 -1.665435 -3.237767 0
M  V30 53 H -1.079150 -5.428940 3.173738 0
M  V30 END ATOM
M  V30 BEGIN BOND
M  V30 1 1 1 2
M  V30 2 1 2 3
M  V30 3 1 3 4
M  V30 4 2 4 5
M  V30 5 1 5 6
M  V30 6 1 6 7
M  V30 7 1 7 8
M  V30 8 2 8 9
M  V30 9 1 9 10
M  V30 10 2 10 11
M  V30 11 1 11 12
M  V30 12 2 12 13
M  V30 13 1 12 14
M  V30 14 1 14 15
M  V30 15 1 15 16
M  V30 16 1 16 17
M  V30 17 1 17 18
M  V30 18 1 18 19
M  V30 19 1 19 20
M  V30 20 1 11 21
M  V30 21 1 21 22
M  V30 22 2 21 23
M  V30 23 1 23 24
M  V30 24 1 24 25
M  V30 25 2 6 26
M  V30 26 1 26 27
M  V30 27 2 27 28
M  V30 28 1 28 29
M  V30 29 1 29 30
M  V30 30 1 29 31
M  V30 31 1 29 32
M  V30 32 1 28 4
M  V30 33 1 23 8
M  V30 34 1 18 14
M  V30 35 1 20 16
M  V30 36 1 1 33
M  V30 37 1 1 34
M  V30 38 1 1 35
M  V30 39 1 2 36
M  V30 40 1 2 37
M  V30 41 1 3 38
M  V30 42 1 7 39
M  V30 43 1 9 40
M  V30 44 1 10 41
M  V30 45 1 15 42
M  V30 46 1 15 43
M  V30 47 1 16 44 CFG=1
M  V30 48 1 17 45
M  V30 49 1 17 46
M  V30 50 1 18 47 CFG=1
M  V30 51 1 19 48
M  V30 52 1 19 49
M  V30 53 1 25 50
M  V30 54 1 25 51
M  V30 55 1 25 52
M  V30 56 1 27 53
M  V30 END BOND
M  V30 END CTAB
M  END
>  <Dataset>  (256) 
ChEMBL_Kinases

>  <Ligand_Instance>  (256) 
nan

>  <PDB_ID>  (256) 
nan

>  <Standardized_SMILES>  (256) 
CCNc1nc(Nc2ccc(C(=O)N3C[C@@H]4C[C@H]3CO4)c(F)c2OC)ncc1C(F)(F)F

>  <Name>  (256) 
nan

>  <Pocket>  (256) 
nan

>  <ATP_Site>  (256) 
nan

>  <Peripheral>  (256) 
nan

>  <Num_H_Atoms_ProtBoundConf>  (256) 
nan

>  <Num_Resolved_Atoms>  (256) 
nan

>  <Num_Not_Resolved_Atoms>  (256) 
nan

$$$$
CHEMBL3641897
     RDKit          3D

  0  0  0  0  0  0  0  0  0  0999 V3000
M  V30 BEGIN CTAB
M  V30 COUNTS 52 54 0 0 0
M  V30 BEGIN ATOM
M  V30 1 C 2.908953 -5.869187 0.535160 0
M  V30 2 C 4.055126 -5.518252 1.435025 0
M  V30 3 N 3.619634 -5.053906 2.756025 0
M  V30 4 C 2.798781 -3.902160 2.859029 0
M  V30 5 N 2.421476 -3.240061 1.760785 0
M  V30 6 C 1.644287 -2.145362 1.821994 0
M  V30 7 N 1.288162 -1.501044 0.618565 0
M  V30 8 C 0.489131 -0.344741 0.414889 0
M  V30 9 C -0.107100 0.383580 1.421035 0
M  V30 10 C -0.886667 1.508086 1.252992 0
M  V30 11 C -1.098844 1.958263 -0.034184 0
M  V30 12 C -1.904468 3.135592 -0.339065 0
M  V30 13 O -1.012387 4.019417 -0.300678 0
M  V30 14 N -3.307006 2.987793 -0.569282 0
M  V30 15 C -4.096023 1.770393 -0.543607 0
M  V30 16 C -4.927577 1.734057 -1.820747 0
M  V30 17 O -5.814250 2.818681 -1.734074 0
M  V30 18 C -5.063902 3.962950 -1.975799 0
M  V30 19 C -4.035056 4.219731 -0.867864 0
M  V30 20 C -0.527264 1.269835 -1.082936 0
M  V30 21 F -0.724304 1.695251 -2.341424 0
M  V30 22 C 0.240599 0.153962 -0.846339 0
M  V30 23 O 0.785986 -0.490893 -1.950519 0
M  V30 24 C 2.071193 -0.058419 -2.374370 0
M  V30 25 N 1.256662 -1.736565 3.036908 0
M  V30 26 C 1.612656 -2.370515 4.152995 0
M  V30 27 C 2.406233 -3.490677 4.111017 0
M  V30 28 C 2.799187 -4.191728 5.354372 0
M  V30 29 F 2.344083 -5.514039 5.343518 0
M  V30 30 F 4.158923 -4.130204 5.577059 0
M  V30 31 F 2.197923 -3.574241 6.426578 0
M  V30 32 H 2.992585 -6.944259 0.267413 0
M  V30 33 H 1.922051 -5.746926 1.028626 0
M  V30 34 H 2.934760 -5.316771 -0.429465 0
M  V30 35 H 4.565668 -4.620984 0.977818 0
M  V30 36 H 4.805087 -6.303151 1.516312 0
M  V30 37 H 3.931159 -5.590298 3.574112 0
M  V30 38 H 1.651716 -1.913127 -0.272842 0
M  V30 39 H 0.002802 0.108680 2.447257 0
M  V30 40 H -1.337712 2.054511 2.053358 0
M  V30 41 H -3.465829 0.890245 -0.427131 0
M  V30 42 H -4.818168 1.875152 0.309747 0
M  V30 43 H -5.449193 0.776074 -1.963090 0
M  V30 44 H -4.234177 1.925044 -2.683909 0
M  V30 45 H -5.743476 4.829521 -1.996177 0
M  V30 46 H -4.536722 3.850248 -2.946563 0
M  V30 47 H -4.637546 4.517412 0.011540 0
M  V30 48 H -3.375875 5.022934 -1.228749 0
M  V30 49 H 2.672789 -0.902833 -2.777876 0
M  V30 50 H 2.003642 0.735420 -3.152135 0
M  V30 51 H 2.630083 0.344205 -1.503255 0
M  V30 52 H 1.256550 -1.973241 5.081638 0
M  V30 END ATOM
M  V30 BEGIN BOND
M  V30 1 1 1 2
M  V30 2 1 2 3
M  V30 3 1 3 4
M  V30 4 2 4 5
M  V30 5 1 5 6
M  V30 6 1 6 7
M  V30 7 1 7 8
M  V30 8 2 8 9
M  V30 9 1 9 10
M  V30 10 2 10 11
M  V30 11 1 11 12
M  V30 12 2 12 13
M  V30 13 1 12 14
M  V30 14 1 14 15
M  V30 15 1 15 16
M  V30 16 1 16 17
M  V30 17 1 17 18
M  V30 18 1 18 19
M  V30 19 1 11 20
M  V30 20 1 20 21
M  V30 21 2 20 22
M  V30 22 1 22 23
M  V30 23 1 23 24
M  V30 24 2 6 25
M  V30 25 1 25 26
M  V30 26 2 26 27
M  V30 27 1 27 28
M  V30 28 1 28 29
M  V30 29 1 28 30
M  V30 30 1 28 31
M  V30 31 1 27 4
M  V30 32 1 22 8
M  V30 33 1 19 14
M  V30 34 1 1 32
M  V30 35 1 1 33
M  V30 36 1 1 34
M  V30 37 1 2 35
M  V30 38 1 2 36
M  V30 39 1 3 37
M  V30 40 1 7 38
M  V30 41 1 9 39
M  V30 42 1 10 40
M  V30 43 1 15 41
M  V30 44 1 15 42
M  V30 45 1 16 43
M  V30 46 1 16 44
M  V30 47 1 18 45
M  V30 48 1 18 46
M  V30 49 1 19 47
M  V30 50 1 19 48
M  V30 51 1 24 49
M  V30 52 1 24 50
M  V30 53 1 24 51
M  V30 54 1 26 52
M  V30 END BOND
M  V30 END CTAB
M  END
>  <Dataset>  (257) 
ChEMBL_Kinases

>  <Ligand_Instance>  (257) 
nan

>  <PDB_ID>  (257) 
nan

>  <Standardized_SMILES>  (257) 
CCNc1nc(Nc2ccc(C(=O)N3CCOCC3)c(F)c2OC)ncc1C(F)(F)F

>  <Name>  (257) 
nan

>  <Pocket>  (257) 
nan

>  <ATP_Site>  (257) 
nan

>  <Peripheral>  (257) 
nan

>  <Num_H_Atoms_ProtBoundConf>  (257) 
nan

>  <Num_Resolved_Atoms>  (257) 
nan

>  <Num_Not_Resolved_Atoms>  (257) 
nan

$$$$
CHEMBL3641956
     RDKit          3D

  0  0  0  0  0  0  0  0  0  0999 V3000
M  V30 BEGIN CTAB
M  V30 COUNTS 58 63 0 0 0
M  V30 BEGIN ATOM
M  V30 1 O 3.290605 -0.342280 -0.266866 0
M  V30 2 C 2.421016 -0.154916 0.805895 0 CFG=1
M  V30 3 C 2.488634 -1.314331 1.739715 0
M  V30 4 C 2.446947 -0.717533 3.108071 0
M  V30 5 C 2.887839 0.713671 3.028695 0
M  V30 6 C 2.838899 1.068500 1.587236 0 CFG=2
M  V30 7 N 1.940924 2.192152 1.286645 0
M  V30 8 C 2.153427 3.429990 0.793099 0
M  V30 9 C 3.360304 3.988599 0.433159 0
M  V30 10 N 3.314147 5.247801 -0.034026 0
M  V30 11 C 2.156684 5.945054 -0.151998 0
M  V30 12 C 0.942660 5.399066 0.204038 0
M  V30 13 C 0.983856 4.106879 0.684186 0
M  V30 14 C 0.028485 3.223651 1.137433 0
M  V30 15 C -1.345635 3.312444 1.273397 0
M  V30 16 N -2.081308 2.298754 1.746745 0
M  V30 17 C -1.503484 1.119900 2.120730 0
M  V30 18 N -2.054209 -0.086466 2.627499 0
M  V30 19 C -2.013384 -1.186824 1.722283 0
M  V30 20 C -1.461405 -1.074988 0.468886 0
M  V30 21 C -1.419789 -2.150507 -0.392084 0
M  V30 22 C -1.920585 -3.360016 -0.038271 0
M  V30 23 N -1.907897 -4.522192 -0.856253 0
M  V30 24 C -2.573244 -5.803826 -0.604205 0
M  V30 25 C -3.343434 -6.127393 -1.862283 0
M  V30 26 N -3.447714 -5.042247 -2.791811 0
M  V30 27 C -2.172349 -4.545282 -3.246253 0
M  V30 28 C -1.155498 -4.520523 -2.123129 0
M  V30 29 C -2.474276 -3.468007 1.219511 0
M  V30 30 N -2.500362 -2.401632 2.036184 0
M  V30 31 N -0.163468 1.017548 1.993778 0
M  V30 32 C 0.605461 2.022196 1.519127 0
M  V30 33 H 2.901062 -0.968043 -0.939802 0
M  V30 34 H 1.371727 -0.025832 0.422498 0
M  V30 35 H 3.448882 -1.863467 1.595903 0
M  V30 36 H 1.625753 -1.992487 1.554067 0
M  V30 37 H 1.398298 -0.779529 3.464062 0
M  V30 38 H 3.104071 -1.314976 3.791567 0
M  V30 39 H 3.948147 0.739126 3.407954 0
M  V30 40 H 2.313057 1.381739 3.685495 0
M  V30 41 H 3.837195 1.392985 1.243564 0
M  V30 42 H 4.302725 3.435127 0.523192 0
M  V30 43 H 2.190817 6.950415 -0.534205 0
M  V30 44 H -0.008989 5.907372 0.131066 0
M  V30 45 H -1.874499 4.209798 0.999363 0
M  V30 46 H -2.460377 -0.181012 3.573683 0
M  V30 47 H -1.039924 -0.135356 0.114310 0
M  V30 48 H -0.977577 -2.015206 -1.367084 0
M  V30 49 H -3.237154 -5.726917 0.252929 0
M  V30 50 H -1.810290 -6.605158 -0.476651 0
M  V30 51 H -4.386206 -6.384393 -1.546705 0
M  V30 52 H -2.972251 -7.068156 -2.341443 0
M  V30 53 H -4.194580 -5.081481 -3.475595 0
M  V30 54 H -1.806685 -5.108346 -4.126701 0
M  V30 55 H -2.318570 -3.494152 -3.568287 0
M  V30 56 H -0.405922 -3.745250 -2.192266 0
M  V30 57 H -0.608502 -5.491965 -2.143661 0
M  V30 58 H -2.917449 -4.339930 1.670881 0
M  V30 END ATOM
M  V30 BEGIN BOND
M  V30 1 1 1 2
M  V30 2 1 2 3
M  V30 3 1 3 4
M  V30 4 1 4 5
M  V30 5 1 5 6
M  V30 6 1 6 7
M  V30 7 1 7 8
M  V30 8 2 8 9
M  V30 9 1 9 10
M  V30 10 2 10 11
M  V30 11 1 11 12
M  V30 12 2 12 13
M  V30 13 1 13 14
M  V30 14 2 14 15
M  V30 15 1 15 16
M  V30 16 2 16 17
M  V30 17 1 17 18
M  V30 18 1 18 19
M  V30 19 2 19 20
M  V30 20 1 20 21
M  V30 21 2 21 22
M  V30 22 1 22 23
M  V30 23 1 23 24
M  V30 24 1 24 25
M  V30 25 1 25 26
M  V30 26 1 26 27
M  V30 27 1 27 28
M  V30 28 1 22 29
M  V30 29 2 29 30
M  V30 30 1 17 31
M  V30 31 2 31 32
M  V30 32 1 6 2
M  V30 33 1 32 7
M  V30 34 1 13 8
M  V30 35 1 32 14
M  V30 36 1 30 19
M  V30 37 1 28 23
M  V30 38 1 1 33
M  V30 39 1 2 34 CFG=3
M  V30 40 1 3 35
M  V30 41 1 3 36
M  V30 42 1 4 37
M  V30 43 1 4 38
M  V30 44 1 5 39
M  V30 45 1 5 40
M  V30 46 1 6 41 CFG=3
M  V30 47 1 9 42
M  V30 48 1 11 43
M  V30 49 1 12 44
M  V30 50 1 15 45
M  V30 51 1 18 46
M  V30 52 1 20 47
M  V30 53 1 21 48
M  V30 54 1 24 49
M  V30 55 1 24 50
M  V30 56 1 25 51
M  V30 57 1 25 52
M  V30 58 1 26 53
M  V30 59 1 27 54
M  V30 60 1 27 55
M  V30 61 1 28 56
M  V30 62 1 28 57
M  V30 63 1 29 58
M  V30 END BOND
M  V30 END CTAB
M  END
>  <Dataset>  (258) 
ChEMBL_Kinases

>  <Ligand_Instance>  (258) 
nan

>  <PDB_ID>  (258) 
nan

>  <Standardized_SMILES>  (258) 
O[C@H]1CCC[C@@H]1n1c2cnccc2c2cnc(Nc3ccc(N4CCNCC4)cn3)nc21

>  <Name>  (258) 
nan

>  <Pocket>  (258) 
nan

>  <ATP_Site>  (258) 
nan

>  <Peripheral>  (258) 
nan

>  <Num_H_Atoms_ProtBoundConf>  (258) 
nan

>  <Num_Resolved_Atoms>  (258) 
nan

>  <Num_Not_Resolved_Atoms>  (258) 
nan

$$$$
CHEMBL3641880
     RDKit          3D

  0  0  0  0  0  0  0  0  0  0999 V3000
M  V30 BEGIN CTAB
M  V30 COUNTS 52 54 0 0 0
M  V30 BEGIN ATOM
M  V30 1 C -1.538355 3.091154 1.695853 0
M  V30 2 C -2.358674 2.448958 0.624435 0
M  V30 3 O -2.286471 1.037137 0.604685 0
M  V30 4 C -1.057045 0.440664 0.391808 0
M  V30 5 C 0.147896 1.076707 0.181641 0
M  V30 6 C 1.345888 0.456333 -0.026091 0
M  V30 7 C 2.535461 1.268352 -0.236432 0
M  V30 8 O 3.172460 0.817865 -1.231751 0
M  V30 9 N 2.943306 2.388200 0.528654 0
M  V30 10 C 2.363794 3.046615 1.684335 0
M  V30 11 C 2.120930 4.481213 1.255212 0
M  V30 12 O 3.422746 5.022130 1.120520 0
M  V30 13 C 3.886262 4.516882 -0.113791 0
M  V30 14 C 4.176170 3.029684 0.096713 0
M  V30 15 C 1.389463 -0.918725 -0.032559 0
M  V30 16 C 0.209540 -1.600737 0.172743 0
M  V30 17 C -0.994044 -0.963161 0.381587 0
M  V30 18 N -2.186643 -1.699404 0.584423 0
M  V30 19 C -2.505831 -3.076501 0.635923 0
M  V30 20 N -3.696930 -3.627136 0.818330 0
M  V30 21 C -3.955044 -4.928213 0.856769 0
M  V30 22 C -2.888576 -5.802215 0.692375 0
M  V30 23 C -3.252186 -7.257081 0.749379 0
M  V30 24 F -2.901382 -7.847932 -0.448424 0
M  V30 25 F -2.447930 -7.793347 1.752531 0
M  V30 26 F -4.582315 -7.426033 1.026019 0
M  V30 27 C -1.632629 -5.268747 0.499967 0
M  V30 28 N -0.724572 -6.359759 0.355816 0
M  V30 29 C 0.212442 -7.381455 0.207550 0
M  V30 30 N -1.514733 -3.948595 0.482702 0
M  V30 31 H -0.976881 3.936918 1.265399 0
M  V30 32 H -0.913009 2.376612 2.283108 0
M  V30 33 H -2.262229 3.562251 2.428990 0
M  V30 34 H -2.034472 2.875189 -0.364608 0
M  V30 35 H -3.427178 2.792744 0.707669 0
M  V30 36 H 0.136970 2.154729 0.174219 0
M  V30 37 H 3.144184 3.083757 2.473312 0
M  V30 38 H 1.502605 2.551929 2.122706 0
M  V30 39 H 1.681429 4.555027 0.235289 0
M  V30 40 H 1.490451 5.054707 1.932792 0
M  V30 41 H 3.105050 4.624624 -0.900144 0
M  V30 42 H 4.812570 5.077668 -0.318275 0
M  V30 43 H 4.874365 2.979981 0.967192 0
M  V30 44 H 4.611355 2.586584 -0.817006 0
M  V30 45 H 2.361150 -1.392657 -0.199752 0
M  V30 46 H 0.353588 -2.660193 0.146788 0
M  V30 47 H -3.071402 -1.153533 0.737591 0
M  V30 48 H -5.000315 -5.151974 1.016998 0
M  V30 49 H 0.108688 -5.685159 0.229375 0
M  V30 50 H 0.945833 -7.450041 1.045140 0
M  V30 51 H 0.807032 -7.427186 -0.737722 0
M  V30 52 H -0.288442 -8.411372 0.243703 0
M  V30 END ATOM
M  V30 BEGIN BOND
M  V30 1 1 1 2
M  V30 2 1 2 3
M  V30 3 1 3 4
M  V30 4 2 4 5
M  V30 5 1 5 6
M  V30 6 1 6 7
M  V30 7 2 7 8
M  V30 8 1 7 9
M  V30 9 1 9 10
M  V30 10 1 10 11
M  V30 11 1 11 12
M  V30 12 1 12 13
M  V30 13 1 13 14
M  V30 14 2 6 15
M  V30 15 1 15 16
M  V30 16 2 16 17
M  V30 17 1 17 18
M  V30 18 1 18 19
M  V30 19 2 19 20
M  V30 20 1 20 21
M  V30 21 2 21 22
M  V30 22 1 22 23
M  V30 23 1 23 24
M  V30 24 1 23 25
M  V30 25 1 23 26
M  V30 26 1 22 27
M  V30 27 1 27 28
M  V30 28 1 28 29
M  V30 29 2 27 30
M  V30 30 1 17 4
M  V30 31 1 30 19
M  V30 32 1 14 9
M  V30 33 1 1 31
M  V30 34 1 1 32
M  V30 35 1 1 33
M  V30 36 1 2 34
M  V30 37 1 2 35
M  V30 38 1 5 36
M  V30 39 1 10 37
M  V30 40 1 10 38
M  V30 41 1 11 39
M  V30 42 1 11 40
M  V30 43 1 13 41
M  V30 44 1 13 42
M  V30 45 1 14 43
M  V30 46 1 14 44
M  V30 47 1 15 45
M  V30 48 1 16 46
M  V30 49 1 18 47
M  V30 50 1 21 48
M  V30 51 1 28 49
M  V30 52 1 29 50
M  V30 53 1 29 51
M  V30 54 1 29 52
M  V30 END BOND
M  V30 END CTAB
M  END
>  <Dataset>  (259) 
ChEMBL_Kinases

>  <Ligand_Instance>  (259) 
nan

>  <PDB_ID>  (259) 
nan

>  <Standardized_SMILES>  (259) 
CCOc1cc(C(=O)N2CCOCC2)ccc1Nc1ncc(C(F)(F)F)c(NC)n1

>  <Name>  (259) 
nan

>  <Pocket>  (259) 
nan

>  <ATP_Site>  (259) 
nan

>  <Peripheral>  (259) 
nan

>  <Num_H_Atoms_ProtBoundConf>  (259) 
nan

>  <Num_Resolved_Atoms>  (259) 
nan

>  <Num_Not_Resolved_Atoms>  (259) 
nan

$$$$
CHEMBL3641881
     RDKit          3D

  0  0  0  0  0  0  0  0  0  0999 V3000
M  V30 BEGIN CTAB
M  V30 COUNTS 50 53 0 0 0
M  V30 BEGIN ATOM
M  V30 1 C 1.572089 -6.045851 1.139176 0
M  V30 2 N 1.936657 -6.111402 -0.278477 0
M  V30 3 C 1.371920 -5.191445 -1.202374 0
M  V30 4 N 0.493023 -4.241766 -0.802672 0
M  V30 5 C -0.054455 -3.355337 -1.677233 0
M  V30 6 N -0.966332 -2.402992 -1.137880 0
M  V30 7 C -0.636343 -1.100053 -0.618044 0
M  V30 8 C 0.735944 -0.830460 -0.689853 0
M  V30 9 C 1.250452 0.368797 -0.240036 0
M  V30 10 C 0.354454 1.280171 0.278916 0
M  V30 11 C 0.740731 2.588081 0.793537 0
M  V30 12 O 0.375019 3.721697 0.406581 0
M  V30 13 N 1.638416 2.801182 1.869947 0
M  V30 14 C 1.894571 4.179273 2.232998 0
M  V30 15 C 1.315346 4.378948 3.623217 0
M  V30 16 O 1.161329 3.178338 4.274173 0
M  V30 17 C 2.213271 2.308670 4.120733 0
M  V30 18 C 2.359932 1.816768 2.685897 0
M  V30 19 C -0.999074 1.036156 0.359286 0
M  V30 20 C -1.524783 -0.155823 -0.085857 0
M  V30 21 O -2.803306 -0.666040 -0.131408 0
M  V30 22 C -3.887100 0.087856 0.345350 0
M  V30 23 C -5.192708 -0.124571 -0.347964 0
M  V30 24 C -4.973603 -0.726372 0.988128 0
M  V30 25 N 0.264035 -3.391065 -2.997304 0
M  V30 26 C 1.136392 -4.317667 -3.455045 0
M  V30 27 C 1.675067 -5.203308 -2.543249 0
M  V30 28 Cl 2.804096 -6.400406 -3.143959 0
M  V30 29 H 2.460992 -6.329558 1.747620 0
M  V30 30 H 1.299054 -5.001373 1.414443 0
M  V30 31 H 0.689540 -6.683664 1.350540 0
M  V30 32 H 2.602869 -6.815891 -0.640278 0
M  V30 33 H -1.971756 -2.658157 -1.109824 0
M  V30 34 H 1.463768 -1.521856 -1.090128 0
M  V30 35 H 2.300149 0.629423 -0.271382 0
M  V30 36 H 3.005341 4.345141 2.286668 0
M  V30 37 H 1.498374 4.905887 1.506667 0
M  V30 38 H 0.324896 4.862875 3.456253 0
M  V30 39 H 1.969838 5.070511 4.192007 0
M  V30 40 H 1.988649 1.411744 4.745151 0
M  V30 41 H 3.177651 2.691537 4.524412 0
M  V30 42 H 1.931103 0.811371 2.569162 0
M  V30 43 H 3.424209 1.854741 2.412068 0
M  V30 44 H -1.766857 1.681679 0.745190 0
M  V30 45 H -3.700654 1.094413 0.759574 0
M  V30 46 H -5.230147 -0.766661 -1.250969 0
M  V30 47 H -5.891623 0.743279 -0.355962 0
M  V30 48 H -5.414573 -0.303814 1.897941 0
M  V30 49 H -4.864766 -1.845474 1.018524 0
M  V30 50 H 1.350427 -4.298968 -4.504995 0
M  V30 END ATOM
M  V30 BEGIN BOND
M  V30 1 1 1 2
M  V30 2 1 2 3
M  V30 3 2 3 4
M  V30 4 1 4 5
M  V30 5 1 5 6
M  V30 6 1 6 7
M  V30 7 2 7 8
M  V30 8 1 8 9
M  V30 9 2 9 10
M  V30 10 1 10 11
M  V30 11 2 11 12
M  V30 12 1 11 13
M  V30 13 1 13 14
M  V30 14 1 14 15
M  V30 15 1 15 16
M  V30 16 1 16 17
M  V30 17 1 17 18
M  V30 18 1 10 19
M  V30 19 2 19 20
M  V30 20 1 20 21
M  V30 21 1 21 22
M  V30 22 1 22 23
M  V30 23 1 23 24
M  V30 24 2 5 25
M  V30 25 1 25 26
M  V30 26 2 26 27
M  V30 27 1 27 28
M  V30 28 1 27 3
M  V30 29 1 20 7
M  V30 30 1 24 22
M  V30 31 1 18 13
M  V30 32 1 1 29
M  V30 33 1 1 30
M  V30 34 1 1 31
M  V30 35 1 2 32
M  V30 36 1 6 33
M  V30 37 1 8 34
M  V30 38 1 9 35
M  V30 39 1 14 36
M  V30 40 1 14 37
M  V30 41 1 15 38
M  V30 42 1 15 39
M  V30 43 1 17 40
M  V30 44 1 17 41
M  V30 45 1 18 42
M  V30 46 1 18 43
M  V30 47 1 19 44
M  V30 48 1 22 45
M  V30 49 1 23 46
M  V30 50 1 23 47
M  V30 51 1 24 48
M  V30 52 1 24 49
M  V30 53 1 26 50
M  V30 END BOND
M  V30 END CTAB
M  END
>  <Dataset>  (260) 
ChEMBL_Kinases

>  <Ligand_Instance>  (260) 
nan

>  <PDB_ID>  (260) 
nan

>  <Standardized_SMILES>  (260) 
CNc1nc(Nc2ccc(C(=O)N3CCOCC3)cc2OC2CC2)ncc1Cl

>  <Name>  (260) 
nan

>  <Pocket>  (260) 
nan

>  <ATP_Site>  (260) 
nan

>  <Peripheral>  (260) 
nan

>  <Num_H_Atoms_ProtBoundConf>  (260) 
nan

>  <Num_Resolved_Atoms>  (260) 
nan

>  <Num_Not_Resolved_Atoms>  (260) 
nan

$$$$
CHEMBL3641882
     RDKit          3D

  0  0  0  0  0  0  0  0  0  0999 V3000
M  V30 BEGIN CTAB
M  V30 COUNTS 50 53 0 0 0
M  V30 BEGIN ATOM
M  V30 1 C 1.263055 -5.668754 1.600621 0
M  V30 2 N 1.883606 -5.872945 0.301118 0
M  V30 3 C 1.467482 -5.046981 -0.800606 0
M  V30 4 N 0.522267 -4.102413 -0.639177 0
M  V30 5 C 0.102111 -3.300620 -1.663135 0
M  V30 6 N -0.896824 -2.389196 -1.227926 0
M  V30 7 C -0.676831 -1.049615 -0.737858 0
M  V30 8 C 0.679317 -0.701065 -0.755404 0
M  V30 9 C 1.155596 0.525986 -0.341659 0
M  V30 10 C 0.222273 1.436781 0.107525 0
M  V30 11 C 0.583086 2.771196 0.574327 0
M  V30 12 O 0.277388 3.945762 0.320714 0
M  V30 13 N 1.567074 2.708455 1.618927 0
M  V30 14 C 1.994740 3.983268 2.153571 0
M  V30 15 C 1.420759 4.049851 3.574017 0
M  V30 16 O 1.261722 2.793948 4.113335 0
M  V30 17 C 2.269534 1.908034 3.745126 0
M  V30 18 C 2.240758 1.596015 2.267658 0
M  V30 19 C -1.111162 1.102357 0.127855 0
M  V30 20 C -1.611729 -0.112865 -0.278517 0
M  V30 21 O -2.885451 -0.619186 -0.328807 0
M  V30 22 C -3.974608 0.158995 0.106240 0
M  V30 23 C -5.348030 -0.111995 -0.377329 0
M  V30 24 C -4.975262 -0.598261 0.968454 0
M  V30 25 N 0.645297 -3.442375 -2.907487 0
M  V30 26 C 1.605755 -4.393411 -3.096279 0
M  V30 27 C 2.007657 -5.186284 -2.041543 0
M  V30 28 Br 3.349837 -6.485720 -2.388157 0
M  V30 29 H 2.011841 -5.855854 2.412680 0
M  V30 30 H 0.907770 -4.618431 1.644529 0
M  V30 31 H 0.428532 -6.364406 1.781084 0
M  V30 32 H 2.604279 -6.587129 0.158672 0
M  V30 33 H -1.898226 -2.650270 -1.238626 0
M  V30 34 H 1.473763 -1.373532 -1.098205 0
M  V30 35 H 2.204179 0.786022 -0.358627 0
M  V30 36 H 3.106787 4.010911 2.190509 0
M  V30 37 H 1.649906 4.850271 1.583862 0
M  V30 38 H 0.409707 4.504692 3.462629 0
M  V30 39 H 2.036274 4.713332 4.218452 0
M  V30 40 H 2.073285 0.954406 4.283489 0
M  V30 41 H 3.269635 2.249464 4.031341 0
M  V30 42 H 1.764377 0.615772 2.060814 0
M  V30 43 H 3.277379 1.548686 1.876828 0
M  V30 44 H -1.874043 1.782336 0.469455 0
M  V30 45 H -3.788130 1.201436 0.476914 0
M  V30 46 H -5.484455 -0.798893 -1.224491 0
M  V30 47 H -6.084443 0.725733 -0.372530 0
M  V30 48 H -5.361676 -0.097137 1.875386 0
M  V30 49 H -4.835162 -1.712384 1.052249 0
M  V30 50 H 1.970525 -4.425420 -4.112756 0
M  V30 END ATOM
M  V30 BEGIN BOND
M  V30 1 1 1 2
M  V30 2 1 2 3
M  V30 3 2 3 4
M  V30 4 1 4 5
M  V30 5 1 5 6
M  V30 6 1 6 7
M  V30 7 2 7 8
M  V30 8 1 8 9
M  V30 9 2 9 10
M  V30 10 1 10 11
M  V30 11 2 11 12
M  V30 12 1 11 13
M  V30 13 1 13 14
M  V30 14 1 14 15
M  V30 15 1 15 16
M  V30 16 1 16 17
M  V30 17 1 17 18
M  V30 18 1 10 19
M  V30 19 2 19 20
M  V30 20 1 20 21
M  V30 21 1 21 22
M  V30 22 1 22 23
M  V30 23 1 23 24
M  V30 24 2 5 25
M  V30 25 1 25 26
M  V30 26 2 26 27
M  V30 27 1 27 28
M  V30 28 1 27 3
M  V30 29 1 20 7
M  V30 30 1 24 22
M  V30 31 1 18 13
M  V30 32 1 1 29
M  V30 33 1 1 30
M  V30 34 1 1 31
M  V30 35 1 2 32
M  V30 36 1 6 33
M  V30 37 1 8 34
M  V30 38 1 9 35
M  V30 39 1 14 36
M  V30 40 1 14 37
M  V30 41 1 15 38
M  V30 42 1 15 39
M  V30 43 1 17 40
M  V30 44 1 17 41
M  V30 45 1 18 42
M  V30 46 1 18 43
M  V30 47 1 19 44
M  V30 48 1 22 45
M  V30 49 1 23 46
M  V30 50 1 23 47
M  V30 51 1 24 48
M  V30 52 1 24 49
M  V30 53 1 26 50
M  V30 END BOND
M  V30 END CTAB
M  END
>  <Dataset>  (261) 
ChEMBL_Kinases

>  <Ligand_Instance>  (261) 
nan

>  <PDB_ID>  (261) 
nan

>  <Standardized_SMILES>  (261) 
CNc1nc(Nc2ccc(C(=O)N3CCOCC3)cc2OC2CC2)ncc1Br

>  <Name>  (261) 
nan

>  <Pocket>  (261) 
nan

>  <ATP_Site>  (261) 
nan

>  <Peripheral>  (261) 
nan

>  <Num_H_Atoms_ProtBoundConf>  (261) 
nan

>  <Num_Resolved_Atoms>  (261) 
nan

>  <Num_Not_Resolved_Atoms>  (261) 
nan

$$$$
CHEMBL3641883
     RDKit          3D

  0  0  0  0  0  0  0  0  0  0999 V3000
M  V30 BEGIN CTAB
M  V30 COUNTS 55 57 0 0 0
M  V30 BEGIN ATOM
M  V30 1 C 1.534064 -1.711580 4.911144 0
M  V30 2 O 0.522448 -1.297721 4.041729 0
M  V30 3 C 0.656747 -0.334060 3.056432 0
M  V30 4 C 1.810267 0.383005 2.770257 0
M  V30 5 C 1.815783 1.330176 1.751577 0
M  V30 6 C 3.100041 2.011355 1.540895 0
M  V30 7 O 3.355596 2.880508 2.389450 0
M  V30 8 N 3.669155 1.411468 0.353102 0
M  V30 9 C 3.168997 0.347265 -0.538723 0
M  V30 10 C 3.082332 0.930730 -1.909835 0
M  V30 11 O 3.587410 2.212880 -2.023337 0
M  V30 12 C 4.832225 2.387131 -1.485882 0
M  V30 13 C 4.960599 1.928847 -0.059367 0
M  V30 14 C 0.699819 1.601894 0.988864 0
M  V30 15 C -0.461884 0.896726 1.258175 0
M  V30 16 C -0.446202 -0.038624 2.271713 0
M  V30 17 N -1.658258 -0.725017 2.462528 0
M  V30 18 C -2.897701 -0.562828 1.791435 0
M  V30 19 N -3.950123 0.138384 2.222349 0
M  V30 20 C -5.089096 0.243380 1.510717 0
M  V30 21 C -5.210513 -0.378628 0.293226 0
M  V30 22 Cl -6.664254 -0.287853 -0.687605 0
M  V30 23 C -4.125734 -1.117878 -0.182339 0
M  V30 24 N -4.128824 -1.777018 -1.459138 0
M  V30 25 C -3.255100 -2.592600 -2.239207 0
M  V30 26 C -3.224203 -4.033914 -1.923071 0
M  V30 27 S -2.741620 -4.515544 -0.312744 0
M  V30 28 C -1.120779 -3.899511 0.002950 0
M  V30 29 O -3.667675 -4.099948 0.776709 0
M  V30 30 O -2.603033 -6.048568 -0.252778 0
M  V30 31 N -3.060191 -1.143992 0.614703 0
M  V30 32 H 1.771988 -2.782190 4.677174 0
M  V30 33 H 2.444071 -1.108791 4.879054 0
M  V30 34 H 1.206690 -1.731824 5.974657 0
M  V30 35 H 2.681173 0.186459 3.348505 0
M  V30 36 H 2.221752 -0.063837 -0.154609 0
M  V30 37 H 3.943884 -0.453895 -0.511617 0
M  V30 38 H 3.505631 0.240347 -2.684809 0
M  V30 39 H 2.001643 1.016512 -2.146229 0
M  V30 40 H 5.040126 3.494987 -1.481237 0
M  V30 41 H 5.649761 1.982939 -2.150649 0
M  V30 42 H 5.690227 1.066760 -0.057322 0
M  V30 43 H 5.354469 2.722090 0.609934 0
M  V30 44 H 0.815139 2.343690 0.238436 0
M  V30 45 H -1.340105 1.106990 0.664288 0
M  V30 46 H -1.802796 -1.482910 3.163038 0
M  V30 47 H -5.955134 0.799445 1.830409 0
M  V30 48 H -5.044369 -1.605324 -1.946086 0
M  V30 49 H -2.216054 -2.134895 -2.220351 0
M  V30 50 H -3.538268 -2.498928 -3.317517 0
M  V30 51 H -2.484635 -4.505625 -2.631662 0
M  V30 52 H -4.236820 -4.466182 -2.122742 0
M  V30 53 H -0.704560 -3.346967 -0.881262 0
M  V30 54 H -0.381250 -4.694451 0.263105 0
M  V30 55 H -1.167774 -3.163801 0.830810 0
M  V30 END ATOM
M  V30 BEGIN BOND
M  V30 1 1 1 2
M  V30 2 1 2 3
M  V30 3 2 3 4
M  V30 4 1 4 5
M  V30 5 1 5 6
M  V30 6 2 6 7
M  V30 7 1 6 8
M  V30 8 1 8 9
M  V30 9 1 9 10
M  V30 10 1 10 11
M  V30 11 1 11 12
M  V30 12 1 12 13
M  V30 13 2 5 14
M  V30 14 1 14 15
M  V30 15 2 15 16
M  V30 16 1 16 17
M  V30 17 1 17 18
M  V30 18 2 18 19
M  V30 19 1 19 20
M  V30 20 2 20 21
M  V30 21 1 21 22
M  V30 22 1 21 23
M  V30 23 1 23 24
M  V30 24 1 24 25
M  V30 25 1 25 26
M  V30 26 1 26 27
M  V30 27 1 27 28
M  V30 28 2 27 29
M  V30 29 2 27 30
M  V30 30 2 23 31
M  V30 31 1 16 3
M  V30 32 1 31 18
M  V30 33 1 13 8
M  V30 34 1 1 32
M  V30 35 1 1 33
M  V30 36 1 1 34
M  V30 37 1 4 35
M  V30 38 1 9 36
M  V30 39 1 9 37
M  V30 40 1 10 38
M  V30 41 1 10 39
M  V30 42 1 12 40
M  V30 43 1 12 41
M  V30 44 1 13 42
M  V30 45 1 13 43
M  V30 46 1 14 44
M  V30 47 1 15 45
M  V30 48 1 17 46
M  V30 49 1 20 47
M  V30 50 1 24 48
M  V30 51 1 25 49
M  V30 52 1 25 50
M  V30 53 1 26 51
M  V30 54 1 26 52
M  V30 55 1 28 53
M  V30 56 1 28 54
M  V30 57 1 28 55
M  V30 END BOND
M  V30 END CTAB
M  END
>  <Dataset>  (262) 
ChEMBL_Kinases

>  <Ligand_Instance>  (262) 
nan

>  <PDB_ID>  (262) 
nan

>  <Standardized_SMILES>  (262) 
COc1cc(C(=O)N2CCOCC2)ccc1Nc1ncc(Cl)c(NCCS(C)(=O)=O)n1

>  <Name>  (262) 
nan

>  <Pocket>  (262) 
nan

>  <ATP_Site>  (262) 
nan

>  <Peripheral>  (262) 
nan

>  <Num_H_Atoms_ProtBoundConf>  (262) 
nan

>  <Num_Resolved_Atoms>  (262) 
nan

>  <Num_Not_Resolved_Atoms>  (262) 
nan

$$$$
CHEMBL3641884
     RDKit          3D

  0  0  0  0  0  0  0  0  0  0999 V3000
M  V30 BEGIN CTAB
M  V30 COUNTS 53 55 0 0 0
M  V30 BEGIN ATOM
M  V30 1 C 2.945498 -0.835844 5.547721 0
M  V30 2 N 2.930126 -2.269416 5.689091 0
M  V30 3 C 2.468802 -3.300121 4.831317 0
M  V30 4 N 1.919874 -3.095065 3.619169 0
M  V30 5 C 1.510229 -4.106258 2.854665 0
M  V30 6 N 0.925839 -3.998762 1.567654 0
M  V30 7 C 0.607164 -2.869580 0.767645 0
M  V30 8 C 0.854081 -1.584498 1.234309 0
M  V30 9 C 0.546158 -0.473436 0.459155 0
M  V30 10 O 0.774645 0.832583 0.881483 0
M  V30 11 C 1.345544 1.044093 2.155031 0
M  V30 12 C -0.008464 -0.574497 -0.784634 0
M  V30 13 C -0.371945 0.526302 -1.705304 0
M  V30 14 C -1.616726 1.212133 -1.275331 0
M  V30 15 O -1.888573 0.584828 -0.196732 0
M  V30 16 N -2.349126 2.274570 -1.858127 0
M  V30 17 C -1.873528 2.823873 -3.089524 0
M  V30 18 C -2.616510 4.048694 -3.462059 0
M  V30 19 O -3.796941 4.293135 -2.861087 0
M  V30 20 C -4.430253 3.340193 -2.138897 0
M  V30 21 C -3.523066 2.679748 -1.111809 0
M  V30 22 C -0.251403 -1.851217 -1.240211 0
M  V30 23 C 0.038153 -2.979128 -0.506999 0
M  V30 24 O -0.220932 -4.232841 -1.004010 0
M  V30 25 C -0.788084 -4.361198 -2.286021 0
M  V30 26 N 1.656813 -5.357520 3.321801 0
M  V30 27 C 2.186583 -5.663541 4.503608 0
M  V30 28 C 2.590744 -4.605355 5.251612 0
M  V30 29 Br 3.365633 -4.959436 6.959204 0
M  V30 30 H 2.451922 -0.370851 6.427293 0
M  V30 31 H 3.991402 -0.441084 5.477139 0
M  V30 32 H 2.390659 -0.500151 4.664543 0
M  V30 33 H 3.346975 -2.503115 6.605769 0
M  V30 34 H 0.662151 -4.885031 1.064612 0
M  V30 35 H 1.284548 -1.357713 2.184777 0
M  V30 36 H 1.266373 2.160601 2.316746 0
M  V30 37 H 2.429258 0.761771 2.103178 0
M  V30 38 H 0.844347 0.514205 2.977642 0
M  V30 39 H -0.494426 0.164763 -2.738113 0
M  V30 40 H 0.491979 1.227627 -1.733638 0
M  V30 41 H -0.774636 3.008275 -3.082432 0
M  V30 42 H -2.071631 2.030850 -3.872080 0
M  V30 43 H -2.675083 4.170076 -4.597137 0
M  V30 44 H -1.932655 4.921696 -3.184777 0
M  V30 45 H -5.221615 3.840268 -1.527920 0
M  V30 46 H -4.940221 2.561167 -2.724364 0
M  V30 47 H -4.038563 1.772941 -0.756712 0
M  V30 48 H -3.281017 3.371509 -0.282023 0
M  V30 49 H -0.688730 -2.028846 -2.213187 0
M  V30 50 H -0.167906 -3.843632 -3.061744 0
M  V30 51 H -1.819262 -3.995896 -2.376484 0
M  V30 52 H -0.685502 -5.452293 -2.569017 0
M  V30 53 H 2.287365 -6.683558 4.842813 0
M  V30 END ATOM
M  V30 BEGIN BOND
M  V30 1 1 1 2
M  V30 2 1 2 3
M  V30 3 2 3 4
M  V30 4 1 4 5
M  V30 5 1 5 6
M  V30 6 1 6 7
M  V30 7 2 7 8
M  V30 8 1 8 9
M  V30 9 1 9 10
M  V30 10 1 10 11
M  V30 11 2 9 12
M  V30 12 1 12 13
M  V30 13 1 13 14
M  V30 14 2 14 15
M  V30 15 1 14 16
M  V30 16 1 16 17
M  V30 17 1 17 18
M  V30 18 1 18 19
M  V30 19 1 19 20
M  V30 20 1 20 21
M  V30 21 1 12 22
M  V30 22 2 22 23
M  V30 23 1 23 24
M  V30 24 1 24 25
M  V30 25 2 5 26
M  V30 26 1 26 27
M  V30 27 2 27 28
M  V30 28 1 28 29
M  V30 29 1 28 3
M  V30 30 1 23 7
M  V30 31 1 21 16
M  V30 32 1 1 30
M  V30 33 1 1 31
M  V30 34 1 1 32
M  V30 35 1 2 33
M  V30 36 1 6 34
M  V30 37 1 8 35
M  V30 38 1 11 36
M  V30 39 1 11 37
M  V30 40 1 11 38
M  V30 41 1 13 39
M  V30 42 1 13 40
M  V30 43 1 17 41
M  V30 44 1 17 42
M  V30 45 1 18 43
M  V30 46 1 18 44
M  V30 47 1 20 45
M  V30 48 1 20 46
M  V30 49 1 21 47
M  V30 50 1 21 48
M  V30 51 1 22 49
M  V30 52 1 25 50
M  V30 53 1 25 51
M  V30 54 1 25 52
M  V30 55 1 27 53
M  V30 END BOND
M  V30 END CTAB
M  END
>  <Dataset>  (263) 
ChEMBL_Kinases

>  <Ligand_Instance>  (263) 
nan

>  <PDB_ID>  (263) 
nan

>  <Standardized_SMILES>  (263) 
CNc1nc(Nc2cc(OC)c(CC(=O)N3CCOCC3)cc2OC)ncc1Br

>  <Name>  (263) 
nan

>  <Pocket>  (263) 
nan

>  <ATP_Site>  (263) 
nan

>  <Peripheral>  (263) 
nan

>  <Num_H_Atoms_ProtBoundConf>  (263) 
nan

>  <Num_Resolved_Atoms>  (263) 
nan

>  <Num_Not_Resolved_Atoms>  (263) 
nan

$$$$
CHEMBL3641885
     RDKit          3D

  0  0  0  0  0  0  0  0  0  0999 V3000
M  V30 BEGIN CTAB
M  V30 COUNTS 53 55 0 0 0
M  V30 BEGIN ATOM
M  V30 1 C -0.448596 -4.484324 5.080940 0
M  V30 2 N 0.982145 -4.431978 5.305561 0
M  V30 3 C 1.905119 -4.169918 4.232022 0
M  V30 4 N 1.464417 -3.972124 2.974681 0
M  V30 5 C 2.343003 -3.733044 1.977792 0
M  V30 6 N 1.612980 -3.552129 0.746100 0
M  V30 7 C 1.217603 -2.302939 0.178617 0
M  V30 8 C 1.616042 -1.173760 0.847975 0
M  V30 9 C 1.338553 0.115893 0.450239 0
M  V30 10 O 1.720480 1.279847 1.090182 0
M  V30 11 C 2.474297 1.168075 2.281127 0
M  V30 12 C 0.599399 0.238820 -0.716976 0
M  V30 13 C 0.171237 1.525682 -1.339820 0
M  V30 14 C -0.971881 2.154602 -0.628468 0
M  V30 15 O -0.551818 2.421298 0.551303 0
M  V30 16 N -2.303700 2.444261 -1.077734 0
M  V30 17 C -2.746727 2.117801 -2.405779 0
M  V30 18 C -3.572387 3.233603 -2.942879 0
M  V30 19 O -4.272541 3.934330 -2.027674 0
M  V30 20 C -4.440568 3.455821 -0.771987 0
M  V30 21 C -3.146042 3.076000 -0.083217 0
M  V30 22 C 0.193364 -0.903313 -1.399225 0
M  V30 23 C 0.479501 -2.186012 -0.988510 0
M  V30 24 O 0.141218 -3.389287 -1.563501 0
M  V30 25 C -0.610376 -3.376696 -2.759885 0
M  V30 26 N 3.677885 -3.682789 2.188957 0
M  V30 27 C 4.138136 -3.879509 3.447432 0
M  V30 28 C 3.279824 -4.123033 4.479314 0
M  V30 29 Cl 3.924136 -4.370079 6.081824 0
M  V30 30 H -0.991628 -4.144954 5.991505 0
M  V30 31 H -0.715859 -3.809670 4.241708 0
M  V30 32 H -0.809266 -5.517580 4.860692 0
M  V30 33 H 1.290705 -4.592805 6.273716 0
M  V30 34 H 1.334953 -4.403196 0.201394 0
M  V30 35 H 2.191411 -1.255593 1.761575 0
M  V30 36 H 2.986191 2.151615 2.409142 0
M  V30 37 H 3.284978 0.409397 2.153631 0
M  V30 38 H 1.840659 0.952156 3.165437 0
M  V30 39 H -0.051120 1.387466 -2.413414 0
M  V30 40 H 1.076671 2.173446 -1.314506 0
M  V30 41 H -1.911702 1.827843 -3.075553 0
M  V30 42 H -3.417991 1.217941 -2.317981 0
M  V30 43 H -4.188467 2.920470 -3.830999 0
M  V30 44 H -2.835001 3.961219 -3.409978 0
M  V30 45 H -4.835364 4.322088 -0.156628 0
M  V30 46 H -5.182142 2.651039 -0.676052 0
M  V30 47 H -3.408833 2.270149 0.657658 0
M  V30 48 H -2.663273 3.908989 0.456488 0
M  V30 49 H -0.395499 -0.868008 -2.330694 0
M  V30 50 H -0.341298 -2.574881 -3.459360 0
M  V30 51 H -1.705720 -3.275465 -2.565191 0
M  V30 52 H -0.402696 -4.340428 -3.294092 0
M  V30 53 H 5.221655 -3.820321 3.530694 0
M  V30 END ATOM
M  V30 BEGIN BOND
M  V30 1 1 1 2
M  V30 2 1 2 3
M  V30 3 2 3 4
M  V30 4 1 4 5
M  V30 5 1 5 6
M  V30 6 1 6 7
M  V30 7 2 7 8
M  V30 8 1 8 9
M  V30 9 1 9 10
M  V30 10 1 10 11
M  V30 11 2 9 12
M  V30 12 1 12 13
M  V30 13 1 13 14
M  V30 14 2 14 15
M  V30 15 1 14 16
M  V30 16 1 16 17
M  V30 17 1 17 18
M  V30 18 1 18 19
M  V30 19 1 19 20
M  V30 20 1 20 21
M  V30 21 1 12 22
M  V30 22 2 22 23
M  V30 23 1 23 24
M  V30 24 1 24 25
M  V30 25 2 5 26
M  V30 26 1 26 27
M  V30 27 2 27 28
M  V30 28 1 28 29
M  V30 29 1 28 3
M  V30 30 1 23 7
M  V30 31 1 21 16
M  V30 32 1 1 30
M  V30 33 1 1 31
M  V30 34 1 1 32
M  V30 35 1 2 33
M  V30 36 1 6 34
M  V30 37 1 8 35
M  V30 38 1 11 36
M  V30 39 1 11 37
M  V30 40 1 11 38
M  V30 41 1 13 39
M  V30 42 1 13 40
M  V30 43 1 17 41
M  V30 44 1 17 42
M  V30 45 1 18 43
M  V30 46 1 18 44
M  V30 47 1 20 45
M  V30 48 1 20 46
M  V30 49 1 21 47
M  V30 50 1 21 48
M  V30 51 1 22 49
M  V30 52 1 25 50
M  V30 53 1 25 51
M  V30 54 1 25 52
M  V30 55 1 27 53
M  V30 END BOND
M  V30 END CTAB
M  END
>  <Dataset>  (264) 
ChEMBL_Kinases

>  <Ligand_Instance>  (264) 
nan

>  <PDB_ID>  (264) 
nan

>  <Standardized_SMILES>  (264) 
CNc1nc(Nc2cc(OC)c(CC(=O)N3CCOCC3)cc2OC)ncc1Cl

>  <Name>  (264) 
nan

>  <Pocket>  (264) 
nan

>  <ATP_Site>  (264) 
nan

>  <Peripheral>  (264) 
nan

>  <Num_H_Atoms_ProtBoundConf>  (264) 
nan

>  <Num_Resolved_Atoms>  (264) 
nan

>  <Num_Not_Resolved_Atoms>  (264) 
nan

$$$$
CHEMBL3641886
     RDKit          3D

  0  0  0  0  0  0  0  0  0  0999 V3000
M  V30 BEGIN CTAB
M  V30 COUNTS 49 51 0 0 0
M  V30 BEGIN ATOM
M  V30 1 C -4.113897 -3.954380 4.517527 0
M  V30 2 N -3.935957 -5.274852 3.942128 0
M  V30 3 C -3.167652 -5.416595 2.766616 0
M  V30 4 N -2.569975 -4.388337 2.124672 0
M  V30 5 C -1.829535 -4.572299 0.986018 0
M  V30 6 N -1.249640 -3.433110 0.463670 0
M  V30 7 C -0.624092 -2.296699 -0.025150 0
M  V30 8 C 0.522971 -2.242798 0.800897 0
M  V30 9 C 1.493150 -1.224995 0.694372 0
M  V30 10 C 1.228573 -0.275251 -0.293033 0
M  V30 11 C 2.108631 0.864126 -0.547354 0
M  V30 12 C 1.758185 2.089861 0.143224 0
M  V30 13 O 0.739095 2.179868 0.915714 0
M  V30 14 N 2.373397 3.336460 0.139265 0
M  V30 15 C 1.851316 4.453094 0.900541 0
M  V30 16 C 3.015378 4.991919 1.712752 0
M  V30 17 O 4.002640 5.412994 0.852098 0
M  V30 18 C 4.591284 4.317862 0.214827 0
M  V30 19 C 3.561345 3.548005 -0.624641 0
M  V30 20 C 0.117557 -0.328790 -1.093099 0
M  V30 21 C -0.816856 -1.322246 -0.979468 0
M  V30 22 O -1.992801 -1.585467 -1.654663 0
M  V30 23 C -2.377736 -0.700245 -2.683867 0
M  V30 24 N -1.653054 -5.808346 0.432659 0
M  V30 25 C -2.212101 -6.890194 1.004693 0
M  V30 26 C -2.937798 -6.620623 2.142349 0
M  V30 27 Cl -3.677597 -8.009649 2.910357 0
M  V30 28 H -3.155966 -3.653674 4.992334 0
M  V30 29 H -4.975490 -3.922300 5.205035 0
M  V30 30 H -4.243273 -3.235602 3.669975 0
M  V30 31 H -4.341754 -6.152390 4.338391 0
M  V30 32 H -2.096419 -3.338404 -0.191649 0
M  V30 33 H 0.898661 -2.877797 1.610022 0
M  V30 34 H 2.393264 -1.038003 1.222037 0
M  V30 35 H 2.165860 1.050360 -1.638594 0
M  V30 36 H 3.177876 0.624529 -0.264901 0
M  V30 37 H 0.966550 4.212113 1.503112 0
M  V30 38 H 1.578584 5.282350 0.186783 0
M  V30 39 H 3.306053 4.216076 2.433062 0
M  V30 40 H 2.667069 5.862993 2.316506 0
M  V30 41 H 4.980530 3.674101 1.045296 0
M  V30 42 H 5.462804 4.615898 -0.397146 0
M  V30 43 H 4.064591 2.548984 -0.790330 0
M  V30 44 H 3.435589 4.028129 -1.591962 0
M  V30 45 H -0.174406 0.352356 -1.880272 0
M  V30 46 H -1.958303 -0.960662 -3.664845 0
M  V30 47 H -2.158127 0.368429 -2.449679 0
M  V30 48 H -3.499401 -0.729148 -2.782257 0
M  V30 49 H -2.106221 -7.885103 0.611575 0
M  V30 END ATOM
M  V30 BEGIN BOND
M  V30 1 1 1 2
M  V30 2 1 2 3
M  V30 3 2 3 4
M  V30 4 1 4 5
M  V30 5 1 5 6
M  V30 6 1 6 7
M  V30 7 2 7 8
M  V30 8 1 8 9
M  V30 9 2 9 10
M  V30 10 1 10 11
M  V30 11 1 11 12
M  V30 12 2 12 13
M  V30 13 1 12 14
M  V30 14 1 14 15
M  V30 15 1 15 16
M  V30 16 1 16 17
M  V30 17 1 17 18
M  V30 18 1 18 19
M  V30 19 1 10 20
M  V30 20 2 20 21
M  V30 21 1 21 22
M  V30 22 1 22 23
M  V30 23 2 5 24
M  V30 24 1 24 25
M  V30 25 2 25 26
M  V30 26 1 26 27
M  V30 27 1 26 3
M  V30 28 1 21 7
M  V30 29 1 19 14
M  V30 30 1 1 28
M  V30 31 1 1 29
M  V30 32 1 1 30
M  V30 33 1 2 31
M  V30 34 1 6 32
M  V30 35 1 8 33
M  V30 36 1 9 34
M  V30 37 1 11 35
M  V30 38 1 11 36
M  V30 39 1 15 37
M  V30 40 1 15 38
M  V30 41 1 16 39
M  V30 42 1 16 40
M  V30 43 1 18 41
M  V30 44 1 18 42
M  V30 45 1 19 43
M  V30 46 1 19 44
M  V30 47 1 20 45
M  V30 48 1 23 46
M  V30 49 1 23 47
M  V30 50 1 23 48
M  V30 51 1 25 49
M  V30 END BOND
M  V30 END CTAB
M  END
>  <Dataset>  (265) 
ChEMBL_Kinases

>  <Ligand_Instance>  (265) 
nan

>  <PDB_ID>  (265) 
nan

>  <Standardized_SMILES>  (265) 
CNc1nc(Nc2ccc(CC(=O)N3CCOCC3)cc2OC)ncc1Cl

>  <Name>  (265) 
nan

>  <Pocket>  (265) 
nan

>  <ATP_Site>  (265) 
nan

>  <Peripheral>  (265) 
nan

>  <Num_H_Atoms_ProtBoundConf>  (265) 
nan

>  <Num_Resolved_Atoms>  (265) 
nan

>  <Num_Not_Resolved_Atoms>  (265) 
nan

$$$$
CHEMBL3641896
     RDKit          3D

  0  0  0  0  0  0  0  0  0  0999 V3000
M  V30 BEGIN CTAB
M  V30 COUNTS 45 46 0 0 0
M  V30 BEGIN ATOM
M  V30 1 C 1.828776 -3.816262 1.374075 0
M  V30 2 C 1.687451 -4.583714 0.081847 0
M  V30 3 N 0.393311 -5.186199 -0.066026 0
M  V30 4 C -0.812741 -4.438126 -0.099387 0
M  V30 5 N -0.833042 -3.102969 0.002902 0
M  V30 6 C -1.925137 -2.330743 -0.021077 0
M  V30 7 N -1.961681 -0.918602 0.084426 0
M  V30 8 C -0.886100 -0.008228 0.227777 0
M  V30 9 C 0.441990 -0.362465 0.285496 0
M  V30 10 C 1.513874 0.478081 0.422305 0
M  V30 11 F 2.791480 0.082902 0.473486 0
M  V30 12 C 1.260314 1.830483 0.514171 0
M  V30 13 C 2.262982 2.874525 0.663328 0
M  V30 14 O 2.635306 3.276295 -0.479208 0
M  V30 15 N 2.661623 3.274882 1.978003 0
M  V30 16 C 2.074683 2.648774 3.148332 0
M  V30 17 C 3.650363 4.303966 2.182218 0
M  V30 18 C -0.052052 2.247334 0.462446 0
M  V30 19 C -1.103955 1.371982 0.324142 0
M  V30 20 O -2.404959 1.835681 0.276917 0
M  V30 21 C -2.649374 3.218778 0.371789 0
M  V30 22 N -3.086660 -2.987698 -0.161507 0
M  V30 23 C -3.201220 -4.315764 -0.273614 0
M  V30 24 C -2.033818 -5.045159 -0.240547 0
M  V30 25 C -2.104517 -6.468531 -0.356567 0
M  V30 26 N -2.156885 -7.620815 -0.463956 0
M  V30 27 H 2.393578 -2.875316 1.223658 0
M  V30 28 H 2.366503 -4.459491 2.085029 0
M  V30 29 H 0.840827 -3.606090 1.837639 0
M  V30 30 H 2.510840 -5.291174 -0.027094 0
M  V30 31 H 1.787324 -3.827451 -0.732776 0
M  V30 32 H 0.331024 -6.223522 -0.153572 0
M  V30 33 H -2.918127 -0.455012 0.054477 0
M  V30 34 H 0.730396 -1.400469 0.220301 0
M  V30 35 H 2.747186 1.915311 3.622596 0
M  V30 36 H 1.165450 2.067113 2.846417 0
M  V30 37 H 1.703699 3.412361 3.883181 0
M  V30 38 H 3.789128 4.937422 1.273302 0
M  V30 39 H 4.655517 3.868230 2.387296 0
M  V30 40 H 3.314796 4.915575 3.056858 0
M  V30 41 H -0.315270 3.313008 0.530717 0
M  V30 42 H -3.723835 3.454794 0.301821 0
M  V30 43 H -2.090900 3.809198 -0.380817 0
M  V30 44 H -2.249131 3.560183 1.363203 0
M  V30 45 H -4.200186 -4.746086 -0.383858 0
M  V30 END ATOM
M  V30 BEGIN BOND
M  V30 1 1 1 2
M  V30 2 1 2 3
M  V30 3 1 3 4
M  V30 4 2 4 5
M  V30 5 1 5 6
M  V30 6 1 6 7
M  V30 7 1 7 8
M  V30 8 2 8 9
M  V30 9 1 9 10
M  V30 10 1 10 11
M  V30 11 2 10 12
M  V30 12 1 12 13
M  V30 13 2 13 14
M  V30 14 1 13 15
M  V30 15 1 15 16
M  V30 16 1 15 17
M  V30 17 1 12 18
M  V30 18 2 18 19
M  V30 19 1 19 20
M  V30 20 1 20 21
M  V30 21 2 6 22
M  V30 22 1 22 23
M  V30 23 2 23 24
M  V30 24 1 24 25
M  V30 25 3 25 26
M  V30 26 1 24 4
M  V30 27 1 19 8
M  V30 28 1 1 27
M  V30 29 1 1 28
M  V30 30 1 1 29
M  V30 31 1 2 30
M  V30 32 1 2 31
M  V30 33 1 3 32
M  V30 34 1 7 33
M  V30 35 1 9 34
M  V30 36 1 16 35
M  V30 37 1 16 36
M  V30 38 1 16 37
M  V30 39 1 17 38
M  V30 40 1 17 39
M  V30 41 1 17 40
M  V30 42 1 18 41
M  V30 43 1 21 42
M  V30 44 1 21 43
M  V30 45 1 21 44
M  V30 46 1 23 45
M  V30 END BOND
M  V30 END CTAB
M  END
>  <Dataset>  (266) 
ChEMBL_Kinases

>  <Ligand_Instance>  (266) 
nan

>  <PDB_ID>  (266) 
nan

>  <Standardized_SMILES>  (266) 
CCNc1nc(Nc2cc(F)c(C(=O)N(C)C)cc2OC)ncc1C#N

>  <Name>  (266) 
nan

>  <Pocket>  (266) 
nan

>  <ATP_Site>  (266) 
nan

>  <Peripheral>  (266) 
nan

>  <Num_H_Atoms_ProtBoundConf>  (266) 
nan

>  <Num_Resolved_Atoms>  (266) 
nan

>  <Num_Not_Resolved_Atoms>  (266) 
nan

$$$$
CHEMBL3641888
     RDKit          3D

  0  0  0  0  0  0  0  0  0  0999 V3000
M  V30 BEGIN CTAB
M  V30 COUNTS 56 58 0 0 0
M  V30 BEGIN ATOM
M  V30 1 C 5.361371 -2.867752 2.606443 0
M  V30 2 N 4.852921 -3.742862 1.542057 0
M  V30 3 C 3.458922 -3.905448 1.253624 0
M  V30 4 N 2.574033 -3.202320 2.018703 0
M  V30 5 C 1.252225 -3.298047 1.813868 0
M  V30 6 N 0.179404 -2.665790 2.491819 0
M  V30 7 C -0.332853 -1.372814 2.194289 0
M  V30 8 C 0.235274 -0.594560 1.210986 0
M  V30 9 C -0.262970 0.686982 0.928640 0
M  V30 10 O 0.433179 1.303075 -0.080535 0
M  V30 11 C 1.514360 0.823677 -0.807821 0
M  V30 12 C -1.358837 1.173673 1.666283 0
M  V30 13 C -1.639175 2.549107 1.152540 0
M  V30 14 C -2.315291 2.517547 -0.141089 0
M  V30 15 O -3.520199 2.190807 -0.019003 0
M  V30 16 N -2.851944 2.521913 -1.437752 0
M  V30 17 C -4.170500 2.271429 -1.909774 0
M  V30 18 C -4.060284 1.013621 -2.791259 0
M  V30 19 O -3.411791 1.450975 -3.961524 0
M  V30 20 C -2.106578 1.790681 -3.656569 0
M  V30 21 C -1.954512 2.791914 -2.544512 0
M  V30 22 C -1.901048 0.373028 2.637809 0
M  V30 23 C -1.407406 -0.876773 2.907264 0
M  V30 24 O -2.022343 -1.591421 3.898057 0
M  V30 25 C -3.107147 -1.208784 4.681356 0
M  V30 26 N 0.745579 -4.102846 0.831940 0
M  V30 27 C 1.598387 -4.823291 0.045434 0
M  V30 28 C 2.985212 -4.740803 0.238844 0
M  V30 29 C 3.937192 -5.490348 -0.586223 0
M  V30 30 F 4.680693 -6.316138 0.253774 0
M  V30 31 F 4.791996 -4.672416 -1.309318 0
M  V30 32 F 3.198769 -6.275748 -1.464842 0
M  V30 33 H 4.510228 -2.825640 3.351867 0
M  V30 34 H 6.252136 -3.282655 3.080503 0
M  V30 35 H 5.445670 -1.874014 2.168578 0
M  V30 36 H 5.494525 -4.283403 0.951878 0
M  V30 37 H -0.167865 -3.286539 3.229107 0
M  V30 38 H 1.070475 -1.057738 0.694912 0
M  V30 39 H 2.262591 0.316078 -0.166019 0
M  V30 40 H 2.074865 1.707364 -1.229897 0
M  V30 41 H 1.267495 0.101532 -1.606065 0
M  V30 42 H -2.297883 3.032269 1.920990 0
M  V30 43 H -0.743486 3.177051 1.113362 0
M  V30 44 H -4.964681 2.158062 -1.164509 0
M  V30 45 H -4.436835 3.099928 -2.630281 0
M  V30 46 H -5.064297 0.595587 -3.002905 0
M  V30 47 H -3.419200 0.296644 -2.238327 0
M  V30 48 H -1.632190 2.176179 -4.580277 0
M  V30 49 H -1.569101 0.827780 -3.421661 0
M  V30 50 H -2.158956 3.807183 -2.920859 0
M  V30 51 H -0.897638 2.753808 -2.207693 0
M  V30 52 H -2.724753 0.891469 3.102268 0
M  V30 53 H -2.982535 -0.227696 5.166609 0
M  V30 54 H -4.078802 -1.161993 4.118784 0
M  V30 55 H -3.235545 -1.980370 5.473805 0
M  V30 56 H 1.242647 -5.477021 -0.744838 0
M  V30 END ATOM
M  V30 BEGIN BOND
M  V30 1 1 1 2
M  V30 2 1 2 3
M  V30 3 2 3 4
M  V30 4 1 4 5
M  V30 5 1 5 6
M  V30 6 1 6 7
M  V30 7 2 7 8
M  V30 8 1 8 9
M  V30 9 1 9 10
M  V30 10 1 10 11
M  V30 11 2 9 12
M  V30 12 1 12 13
M  V30 13 1 13 14
M  V30 14 2 14 15
M  V30 15 1 14 16
M  V30 16 1 16 17
M  V30 17 1 17 18
M  V30 18 1 18 19
M  V30 19 1 19 20
M  V30 20 1 20 21
M  V30 21 1 12 22
M  V30 22 2 22 23
M  V30 23 1 23 24
M  V30 24 1 24 25
M  V30 25 2 5 26
M  V30 26 1 26 27
M  V30 27 2 27 28
M  V30 28 1 28 29
M  V30 29 1 29 30
M  V30 30 1 29 31
M  V30 31 1 29 32
M  V30 32 1 28 3
M  V30 33 1 23 7
M  V30 34 1 21 16
M  V30 35 1 1 33
M  V30 36 1 1 34
M  V30 37 1 1 35
M  V30 38 1 2 36
M  V30 39 1 6 37
M  V30 40 1 8 38
M  V30 41 1 11 39
M  V30 42 1 11 40
M  V30 43 1 11 41
M  V30 44 1 13 42
M  V30 45 1 13 43
M  V30 46 1 17 44
M  V30 47 1 17 45
M  V30 48 1 18 46
M  V30 49 1 18 47
M  V30 50 1 20 48
M  V30 51 1 20 49
M  V30 52 1 21 50
M  V30 53 1 21 51
M  V30 54 1 22 52
M  V30 55 1 25 53
M  V30 56 1 25 54
M  V30 57 1 25 55
M  V30 58 1 27 56
M  V30 END BOND
M  V30 END CTAB
M  END
>  <Dataset>  (267) 
ChEMBL_Kinases

>  <Ligand_Instance>  (267) 
nan

>  <PDB_ID>  (267) 
nan

>  <Standardized_SMILES>  (267) 
CNc1nc(Nc2cc(OC)c(CC(=O)N3CCOCC3)cc2OC)ncc1C(F)(F)F

>  <Name>  (267) 
nan

>  <Pocket>  (267) 
nan

>  <ATP_Site>  (267) 
nan

>  <Peripheral>  (267) 
nan

>  <Num_H_Atoms_ProtBoundConf>  (267) 
nan

>  <Num_Resolved_Atoms>  (267) 
nan

>  <Num_Not_Resolved_Atoms>  (267) 
nan

$$$$
CHEMBL3641889
     RDKit          3D

  0  0  0  0  0  0  0  0  0  0999 V3000
M  V30 BEGIN CTAB
M  V30 COUNTS 46 47 0 0 0
M  V30 BEGIN ATOM
M  V30 1 C -0.305175 -5.227176 0.595124 0
M  V30 2 N -0.536977 -5.441525 -0.832916 0
M  V30 3 C -1.267527 -4.440438 -1.542004 0
M  V30 4 N -1.741033 -3.328865 -0.970289 0
M  V30 5 C -2.430227 -2.382104 -1.663538 0
M  V30 6 N -2.862410 -1.286033 -0.902992 0
M  V30 7 C -2.009997 -0.354812 -0.264384 0
M  V30 8 C -0.656587 -0.503197 -0.292446 0
M  V30 9 C 0.321464 0.304238 0.295774 0
M  V30 10 O 1.665496 0.033129 0.186061 0
M  V30 11 C 2.123440 -1.076779 -0.526199 0
M  V30 12 C -0.205903 1.397772 0.994820 0
M  V30 13 C 0.670410 2.317425 1.679808 0
M  V30 14 O 0.122552 3.305309 2.296160 0
M  V30 15 N 2.052200 2.424715 1.860466 0
M  V30 16 C 2.720784 3.437069 2.598325 0
M  V30 17 C 2.382711 3.525858 4.050297 0
M  V30 18 C 2.679410 2.280235 4.840276 0
M  V30 19 N 1.962343 1.113422 4.384744 0
M  V30 20 C -1.561543 1.600152 1.057924 0
M  V30 21 C -2.460858 0.759760 0.452474 0
M  V30 22 Cl -4.176350 1.042836 0.554036 0
M  V30 23 N -2.660554 -2.551915 -2.998916 0
M  V30 24 C -2.221635 -3.640418 -3.659781 0
M  V30 25 C -1.527728 -4.561105 -2.888791 0
M  V30 26 Cl -0.947989 -5.989569 -3.732016 0
M  V30 27 H 0.741407 -5.524646 0.875172 0
M  V30 28 H -0.973411 -5.843187 1.229395 0
M  V30 29 H -0.483461 -4.167623 0.849408 0
M  V30 30 H -0.206547 -6.263465 -1.348495 0
M  V30 31 H -3.888265 -1.145021 -0.799206 0
M  V30 32 H -0.265628 -1.367560 -0.846251 0
M  V30 33 H 1.807817 -1.974553 0.049225 0
M  V30 34 H 1.635796 -1.067901 -1.523212 0
M  V30 35 H 3.224260 -1.134558 -0.593700 0
M  V30 36 H 2.582666 1.665722 1.382824 0
M  V30 37 H 2.472553 4.420994 2.133496 0
M  V30 38 H 3.828535 3.260232 2.531887 0
M  V30 39 H 2.973240 4.342458 4.560948 0
M  V30 40 H 1.320443 3.780243 4.213091 0
M  V30 41 H 2.327023 2.462814 5.882878 0
M  V30 42 H 3.772207 2.090955 4.919431 0
M  V30 43 H 2.327766 0.685073 3.531843 0
M  V30 44 H 0.946945 1.323333 4.389266 0
M  V30 45 H -1.987260 2.441155 1.593311 0
M  V30 46 H -2.396106 -3.788923 -4.715423 0
M  V30 END ATOM
M  V30 BEGIN BOND
M  V30 1 1 1 2
M  V30 2 1 2 3
M  V30 3 2 3 4
M  V30 4 1 4 5
M  V30 5 1 5 6
M  V30 6 1 6 7
M  V30 7 2 7 8
M  V30 8 1 8 9
M  V30 9 1 9 10
M  V30 10 1 10 11
M  V30 11 2 9 12
M  V30 12 1 12 13
M  V30 13 2 13 14
M  V30 14 1 13 15
M  V30 15 1 15 16
M  V30 16 1 16 17
M  V30 17 1 17 18
M  V30 18 1 18 19
M  V30 19 1 12 20
M  V30 20 2 20 21
M  V30 21 1 21 22
M  V30 22 2 5 23
M  V30 23 1 23 24
M  V30 24 2 24 25
M  V30 25 1 25 26
M  V30 26 1 25 3
M  V30 27 1 21 7
M  V30 28 1 1 27
M  V30 29 1 1 28
M  V30 30 1 1 29
M  V30 31 1 2 30
M  V30 32 1 6 31
M  V30 33 1 8 32
M  V30 34 1 11 33
M  V30 35 1 11 34
M  V30 36 1 11 35
M  V30 37 1 15 36
M  V30 38 1 16 37
M  V30 39 1 16 38
M  V30 40 1 17 39
M  V30 41 1 17 40
M  V30 42 1 18 41
M  V30 43 1 18 42
M  V30 44 1 19 43
M  V30 45 1 19 44
M  V30 46 1 20 45
M  V30 47 1 24 46
M  V30 END BOND
M  V30 END CTAB
M  END
>  <Dataset>  (268) 
ChEMBL_Kinases

>  <Ligand_Instance>  (268) 
nan

>  <PDB_ID>  (268) 
nan

>  <Standardized_SMILES>  (268) 
CNc1nc(Nc2cc(OC)c(C(=O)NCCCN)cc2Cl)ncc1Cl

>  <Name>  (268) 
nan

>  <Pocket>  (268) 
nan

>  <ATP_Site>  (268) 
nan

>  <Peripheral>  (268) 
nan

>  <Num_H_Atoms_ProtBoundConf>  (268) 
nan

>  <Num_Resolved_Atoms>  (268) 
nan

>  <Num_Not_Resolved_Atoms>  (268) 
nan

$$$$
CHEMBL3641890
     RDKit          3D

  0  0  0  0  0  0  0  0  0  0999 V3000
M  V30 BEGIN CTAB
M  V30 COUNTS 53 55 0 0 0
M  V30 BEGIN ATOM
M  V30 1 C 0.474286 -2.817965 4.524500 0
M  V30 2 O 1.842432 -2.477933 4.481677 0
M  V30 3 C 1.909517 -1.374195 3.615656 0
M  V30 4 C 3.338526 -0.893659 3.467125 0
M  V30 5 N 4.187343 -1.942664 2.923406 0
M  V30 6 C 3.998385 -2.497714 1.631012 0
M  V30 7 N 3.045558 -2.107630 0.792417 0
M  V30 8 C 2.817116 -2.583163 -0.436781 0
M  V30 9 N 1.806700 -2.157603 -1.333956 0
M  V30 10 C 0.875829 -1.125465 -1.183164 0
M  V30 11 C 0.799021 -0.268775 -0.105170 0
M  V30 12 C -0.103926 0.760822 0.056411 0
M  V30 13 C -1.030848 0.977333 -0.941549 0
M  V30 14 C -1.990379 2.062976 -0.783454 0
M  V30 15 O -2.029931 3.140259 -1.444100 0
M  V30 16 N -2.990204 1.904033 0.215716 0
M  V30 17 C -3.100312 0.729781 1.070167 0
M  V30 18 C -4.457304 0.141448 0.674964 0
M  V30 19 O -5.392925 0.973027 1.304301 0
M  V30 20 C -5.360234 2.256745 0.836750 0
M  V30 21 C -4.026794 2.839375 0.544211 0
M  V30 22 C -1.003194 0.151680 -2.045526 0
M  V30 23 C -0.086054 -0.865313 -2.169083 0
M  V30 24 O -0.109562 -1.661821 -3.304007 0
M  V30 25 C -1.037707 -1.464299 -4.327753 0
M  V30 26 N 3.665129 -3.543690 -0.798686 0
M  V30 27 C 4.664958 -4.037790 -0.071616 0
M  V30 28 C 4.828143 -3.495248 1.172741 0
M  V30 29 Br 6.226920 -4.124259 2.301440 0
M  V30 30 H -0.042306 -1.900362 4.920023 0
M  V30 31 H 0.144951 -2.964584 3.462401 0
M  V30 32 H 0.263045 -3.677562 5.163863 0
M  V30 33 H 1.580307 -1.759179 2.632624 0
M  V30 34 H 1.286510 -0.582926 4.026867 0
M  V30 35 H 3.757659 -0.443034 4.369873 0
M  V30 36 H 3.304125 -0.100183 2.689698 0
M  V30 37 H 4.965199 -2.294511 3.516794 0
M  V30 38 H 1.741683 -2.691146 -2.251048 0
M  V30 39 H 1.485565 -0.370698 0.704837 0
M  V30 40 H -0.120700 1.398979 0.918574 0
M  V30 41 H -2.285102 0.015252 0.914839 0
M  V30 42 H -3.177710 0.991607 2.138537 0
M  V30 43 H -4.632344 0.245613 -0.410315 0
M  V30 44 H -4.591108 -0.886023 1.005690 0
M  V30 45 H -6.058232 2.339925 -0.022543 0
M  V30 46 H -5.837167 2.898552 1.632502 0
M  V30 47 H -3.664143 3.438755 1.424373 0
M  V30 48 H -4.103656 3.571659 -0.287656 0
M  V30 49 H -1.736442 0.337334 -2.815530 0
M  V30 50 H -1.078144 -0.398081 -4.596352 0
M  V30 51 H -2.035105 -1.866192 -4.037398 0
M  V30 52 H -0.636408 -1.994039 -5.232527 0
M  V30 53 H 5.295099 -4.821432 -0.468173 0
M  V30 END ATOM
M  V30 BEGIN BOND
M  V30 1 1 1 2
M  V30 2 1 2 3
M  V30 3 1 3 4
M  V30 4 1 4 5
M  V30 5 1 5 6
M  V30 6 2 6 7
M  V30 7 1 7 8
M  V30 8 1 8 9
M  V30 9 1 9 10
M  V30 10 2 10 11
M  V30 11 1 11 12
M  V30 12 2 12 13
M  V30 13 1 13 14
M  V30 14 2 14 15
M  V30 15 1 14 16
M  V30 16 1 16 17
M  V30 17 1 17 18
M  V30 18 1 18 19
M  V30 19 1 19 20
M  V30 20 1 20 21
M  V30 21 1 13 22
M  V30 22 2 22 23
M  V30 23 1 23 24
M  V30 24 1 24 25
M  V30 25 2 8 26
M  V30 26 1 26 27
M  V30 27 2 27 28
M  V30 28 1 28 29
M  V30 29 1 28 6
M  V30 30 1 23 10
M  V30 31 1 21 16
M  V30 32 1 1 30
M  V30 33 1 1 31
M  V30 34 1 1 32
M  V30 35 1 3 33
M  V30 36 1 3 34
M  V30 37 1 4 35
M  V30 38 1 4 36
M  V30 39 1 5 37
M  V30 40 1 9 38
M  V30 41 1 11 39
M  V30 42 1 12 40
M  V30 43 1 17 41
M  V30 44 1 17 42
M  V30 45 1 18 43
M  V30 46 1 18 44
M  V30 47 1 20 45
M  V30 48 1 20 46
M  V30 49 1 21 47
M  V30 50 1 21 48
M  V30 51 1 22 49
M  V30 52 1 25 50
M  V30 53 1 25 51
M  V30 54 1 25 52
M  V30 55 1 27 53
M  V30 END BOND
M  V30 END CTAB
M  END
>  <Dataset>  (269) 
ChEMBL_Kinases

>  <Ligand_Instance>  (269) 
nan

>  <PDB_ID>  (269) 
nan

>  <Standardized_SMILES>  (269) 
COCCNc1nc(Nc2ccc(C(=O)N3CCOCC3)cc2OC)ncc1Br

>  <Name>  (269) 
nan

>  <Pocket>  (269) 
nan

>  <ATP_Site>  (269) 
nan

>  <Peripheral>  (269) 
nan

>  <Num_H_Atoms_ProtBoundConf>  (269) 
nan

>  <Num_Resolved_Atoms>  (269) 
nan

>  <Num_Not_Resolved_Atoms>  (269) 
nan

$$$$
CHEMBL3641891
     RDKit          3D

  0  0  0  0  0  0  0  0  0  0999 V3000
M  V30 BEGIN CTAB
M  V30 COUNTS 56 58 0 0 0
M  V30 BEGIN ATOM
M  V30 1 C -2.610937 1.563594 -0.489830 0
M  V30 2 O -1.560809 1.155377 0.198422 0
M  V30 3 C -0.568577 0.774618 0.816969 0
M  V30 4 C 0.800714 0.422095 0.615752 0
M  V30 5 C 1.533908 0.025444 1.777059 0
M  V30 6 C 2.791713 0.037532 1.132150 0
M  V30 7 O 3.560598 0.649939 2.005575 0
M  V30 8 N 3.953695 -0.012945 0.399258 0
M  V30 9 C 5.319844 0.429943 0.701727 0
M  V30 10 C 5.203835 1.883327 0.054115 0
M  V30 11 O 4.882966 1.780568 -1.264831 0
M  V30 12 C 3.666594 1.176044 -1.542801 0
M  V30 13 C 3.805755 -0.295652 -1.027935 0
M  V30 14 C 1.133626 -0.077883 3.113730 0
M  V30 15 C -0.222339 0.288879 3.258583 0
M  V30 16 C -0.965882 0.668848 2.190724 0
M  V30 17 N -2.361168 0.950969 2.521404 0
M  V30 18 C -3.155120 -0.086040 3.173917 0
M  V30 19 N -3.833744 -0.794001 3.783946 0
M  V30 20 C -4.472057 -1.857683 4.162785 0
M  V30 21 C -4.044940 -2.690103 3.170030 0
M  V30 22 Cl -4.620474 -4.374722 3.185519 0
M  V30 23 C -3.163087 -2.309866 2.130777 0
M  V30 24 N -2.627004 -3.195089 1.115751 0
M  V30 25 C -1.837440 -3.412094 -0.021791 0
M  V30 26 C -2.127655 -2.852868 -1.358455 0
M  V30 27 C -3.413571 -3.232880 -2.020006 0
M  V30 28 O -1.076177 -3.394573 -2.157569 0
M  V30 29 C -0.250932 -2.519891 -2.750598 0
M  V30 30 N -2.842329 -1.033884 2.292099 0
M  V30 31 H -3.220538 0.716234 -0.888845 0
M  V30 32 H -2.347363 2.180529 -1.421829 0
M  V30 33 H -3.342323 2.216917 0.087602 0
M  V30 34 H 0.950362 0.477344 -0.444266 0
M  V30 35 H 5.553630 0.560397 1.736053 0
M  V30 36 H 6.022915 -0.128930 0.063798 0
M  V30 37 H 4.355370 2.365905 0.601206 0
M  V30 38 H 6.130644 2.431134 0.180791 0
M  V30 39 H 2.935642 1.737133 -0.860192 0
M  V30 40 H 3.361416 1.204996 -2.574269 0
M  V30 41 H 4.737301 -0.660909 -1.432195 0
M  V30 42 H 2.945269 -0.898134 -1.296643 0
M  V30 43 H 2.025750 -0.386059 3.548265 0
M  V30 44 H -0.432070 0.211581 4.318330 0
M  V30 45 H -2.458745 1.877806 2.224239 0
M  V30 46 H -5.132774 -2.078177 4.923551 0
M  V30 47 H -3.009835 -4.139828 1.428842 0
M  V30 48 H -0.750899 -3.030116 0.167564 0
M  V30 49 H -1.649391 -4.516320 -0.180514 0
M  V30 50 H -1.949911 -1.773958 -1.448591 0
M  V30 51 H -3.635970 -4.286234 -1.881432 0
M  V30 52 H -3.261503 -3.069456 -3.164235 0
M  V30 53 H -4.240407 -2.562393 -1.788012 0
M  V30 54 H 0.558729 -3.112084 -3.288052 0
M  V30 55 H 0.299032 -1.866992 -2.053740 0
M  V30 56 H -0.719832 -1.943249 -3.601056 0
M  V30 END ATOM
M  V30 BEGIN BOND
M  V30 1 1 1 2
M  V30 2 1 2 3
M  V30 3 2 3 4
M  V30 4 1 4 5
M  V30 5 1 5 6
M  V30 6 2 6 7
M  V30 7 1 6 8
M  V30 8 1 8 9
M  V30 9 1 9 10
M  V30 10 1 10 11
M  V30 11 1 11 12
M  V30 12 1 12 13
M  V30 13 2 5 14
M  V30 14 1 14 15
M  V30 15 2 15 16
M  V30 16 1 16 17
M  V30 17 1 17 18
M  V30 18 2 18 19
M  V30 19 1 19 20
M  V30 20 2 20 21
M  V30 21 1 21 22
M  V30 22 1 21 23
M  V30 23 1 23 24
M  V30 24 1 24 25
M  V30 25 1 25 26
M  V30 26 1 26 27
M  V30 27 1 26 28
M  V30 28 1 28 29
M  V30 29 2 23 30
M  V30 30 1 16 3
M  V30 31 1 30 18
M  V30 32 1 13 8
M  V30 33 1 1 31
M  V30 34 1 1 32
M  V30 35 1 1 33
M  V30 36 1 4 34
M  V30 37 1 9 35
M  V30 38 1 9 36
M  V30 39 1 10 37
M  V30 40 1 10 38
M  V30 41 1 12 39
M  V30 42 1 12 40
M  V30 43 1 13 41
M  V30 44 1 13 42
M  V30 45 1 14 43
M  V30 46 1 15 44
M  V30 47 1 17 45
M  V30 48 1 20 46
M  V30 49 1 24 47
M  V30 50 1 25 48
M  V30 51 1 25 49
M  V30 52 1 26 50
M  V30 53 1 27 51
M  V30 54 1 27 52
M  V30 55 1 27 53
M  V30 56 1 29 54
M  V30 57 1 29 55
M  V30 58 1 29 56
M  V30 END BOND
M  V30 END CTAB
M  END
>  <Dataset>  (270) 
ChEMBL_Kinases

>  <Ligand_Instance>  (270) 
nan

>  <PDB_ID>  (270) 
nan

>  <Standardized_SMILES>  (270) 
COc1cc(C(=O)N2CCOCC2)ccc1Nc1ncc(Cl)c(NCC(C)OC)n1

>  <Name>  (270) 
nan

>  <Pocket>  (270) 
nan

>  <ATP_Site>  (270) 
nan

>  <Peripheral>  (270) 
nan

>  <Num_H_Atoms_ProtBoundConf>  (270) 
nan

>  <Num_Resolved_Atoms>  (270) 
nan

>  <Num_Not_Resolved_Atoms>  (270) 
nan

$$$$
CHEMBL3641892
     RDKit          3D

  0  0  0  0  0  0  0  0  0  0999 V3000
M  V30 BEGIN CTAB
M  V30 COUNTS 48 50 0 0 0
M  V30 BEGIN ATOM
M  V30 1 C -0.487092 -5.273353 2.453024 0
M  V30 2 N -1.021436 -6.138242 1.406879 0
M  V30 3 C -1.480703 -5.630258 0.161460 0
M  V30 4 N -1.347096 -4.331876 0.059404 0
M  V30 5 C -1.607483 -3.441186 -0.871748 0
M  V30 6 N -1.412876 -2.048154 -0.734306 0
M  V30 7 C -1.227080 -0.715148 -0.618955 0
M  V30 8 C -0.688457 -0.226821 -1.818387 0
M  V30 9 C -0.211508 1.101227 -1.939989 0
M  V30 10 C -0.282892 1.919081 -0.841128 0
M  V30 11 C 0.080690 3.261361 -0.296316 0
M  V30 12 O -0.878000 3.965806 -0.686151 0
M  V30 13 N 1.329406 3.261800 0.459315 0
M  V30 14 C 2.115425 4.159983 1.312441 0
M  V30 15 C 2.034221 3.622227 2.783411 0
M  V30 16 C 1.936465 2.101602 2.786279 0
M  V30 17 O 2.587472 1.576536 3.939726 0
M  V30 18 C 2.629806 1.485770 1.590709 0
M  V30 19 C 2.128237 2.061321 0.303567 0
M  V30 20 C -0.831973 1.448248 0.388844 0
M  V30 21 C -1.310477 0.132597 0.516368 0
M  V30 22 C -1.936409 -0.530990 1.702284 0
M  V30 23 N -2.126975 -3.992871 -1.972829 0
M  V30 24 C -2.364445 -5.283443 -2.126490 0
M  V30 25 C -2.032344 -6.052156 -1.050847 0
M  V30 26 Cl -2.197350 -7.793103 -0.917161 0
M  V30 27 H 0.596232 -5.159185 2.306060 0
M  V30 28 H -0.792232 -5.585240 3.468918 0
M  V30 29 H -0.920081 -4.226771 2.261869 0
M  V30 30 H -0.963566 -7.112055 1.787920 0
M  V30 31 H -1.391218 -2.151272 0.288680 0
M  V30 32 H -0.552430 -0.669128 -2.788765 0
M  V30 33 H 0.211957 1.720990 -2.658045 0
M  V30 34 H 1.748599 5.172540 1.348415 0
M  V30 35 H 3.191364 4.130599 1.018388 0
M  V30 36 H 2.976080 3.892115 3.261037 0
M  V30 37 H 1.198861 4.105444 3.312317 0
M  V30 38 H 0.851785 1.769968 2.778178 0
M  V30 39 H 2.519486 0.604648 3.867283 0
M  V30 40 H 3.748080 1.731527 1.724570 0
M  V30 41 H 2.508202 0.387587 1.605035 0
M  V30 42 H 1.582446 1.257590 -0.219235 0
M  V30 43 H 3.036802 2.299958 -0.336696 0
M  V30 44 H -1.020040 1.841550 1.379416 0
M  V30 45 H -1.198273 -1.042084 2.320855 0
M  V30 46 H -2.789737 -1.171092 1.347812 0
M  V30 47 H -2.414526 0.261694 2.355660 0
M  V30 48 H -2.780892 -5.866554 -2.924348 0
M  V30 END ATOM
M  V30 BEGIN BOND
M  V30 1 1 1 2
M  V30 2 1 2 3
M  V30 3 2 3 4
M  V30 4 1 4 5
M  V30 5 1 5 6
M  V30 6 1 6 7
M  V30 7 2 7 8
M  V30 8 1 8 9
M  V30 9 2 9 10
M  V30 10 1 10 11
M  V30 11 2 11 12
M  V30 12 1 11 13
M  V30 13 1 13 14
M  V30 14 1 14 15
M  V30 15 1 15 16
M  V30 16 1 16 17
M  V30 17 1 16 18
M  V30 18 1 18 19
M  V30 19 1 10 20
M  V30 20 2 20 21
M  V30 21 1 21 22
M  V30 22 2 5 23
M  V30 23 1 23 24
M  V30 24 2 24 25
M  V30 25 1 25 26
M  V30 26 1 25 3
M  V30 27 1 21 7
M  V30 28 1 19 13
M  V30 29 1 1 27
M  V30 30 1 1 28
M  V30 31 1 1 29
M  V30 32 1 2 30
M  V30 33 1 6 31
M  V30 34 1 8 32
M  V30 35 1 9 33
M  V30 36 1 14 34
M  V30 37 1 14 35
M  V30 38 1 15 36
M  V30 39 1 15 37
M  V30 40 1 16 38
M  V30 41 1 17 39
M  V30 42 1 18 40
M  V30 43 1 18 41
M  V30 44 1 19 42
M  V30 45 1 19 43
M  V30 46 1 20 44
M  V30 47 1 22 45
M  V30 48 1 22 46
M  V30 49 1 22 47
M  V30 50 1 24 48
M  V30 END BOND
M  V30 END CTAB
M  END
>  <Dataset>  (271) 
ChEMBL_Kinases

>  <Ligand_Instance>  (271) 
nan

>  <PDB_ID>  (271) 
nan

>  <Standardized_SMILES>  (271) 
CNc1nc(Nc2ccc(C(=O)N3CCC(O)CC3)cc2C)ncc1Cl

>  <Name>  (271) 
nan

>  <Pocket>  (271) 
nan

>  <ATP_Site>  (271) 
nan

>  <Peripheral>  (271) 
nan

>  <Num_H_Atoms_ProtBoundConf>  (271) 
nan

>  <Num_Resolved_Atoms>  (271) 
nan

>  <Num_Not_Resolved_Atoms>  (271) 
nan

$$$$
CHEMBL3641893
     RDKit          3D

  0  0  0  0  0  0  0  0  0  0999 V3000
M  V30 BEGIN CTAB
M  V30 COUNTS 52 54 0 0 0
M  V30 BEGIN ATOM
M  V30 1 C 0.972133 -4.334618 4.738033 0
M  V30 2 C 0.029891 -4.931758 3.714512 0
M  V30 3 N 0.713234 -5.467293 2.582054 0
M  V30 4 C 1.449249 -4.589827 1.718188 0
M  V30 5 N 1.470012 -3.271387 1.960619 0
M  V30 6 C 2.106573 -2.346314 1.227974 0
M  V30 7 N 1.896895 -1.046817 1.762439 0
M  V30 8 C 1.271617 0.004530 1.006350 0
M  V30 9 C 0.916588 -0.233181 -0.328487 0
M  V30 10 C 0.329449 0.719251 -1.120029 0
M  V30 11 C 0.065759 1.975642 -0.604195 0
M  V30 12 C -0.559340 3.060133 -1.378303 0
M  V30 13 O -0.139777 4.221049 -1.553258 0
M  V30 14 N -1.814783 2.747401 -2.017924 0
M  V30 15 C -2.511152 3.732595 -2.798598 0
M  V30 16 C -3.862466 3.923749 -2.100840 0
M  V30 17 O -4.615307 2.787967 -2.161269 0
M  V30 18 C -4.010055 1.604731 -1.859636 0
M  V30 19 C -2.536943 1.523167 -2.000169 0
M  V30 20 C 0.418798 2.201227 0.713239 0
M  V30 21 C 1.006589 1.247045 1.505702 0
M  V30 22 O 1.387483 1.391486 2.823710 0
M  V30 23 C 1.245278 2.547756 3.591617 0
M  V30 24 F 1.756903 2.247925 4.859881 0
M  V30 25 F 2.131235 3.486296 3.036095 0
M  V30 26 F -0.028311 3.040886 3.683328 0
M  V30 27 N 2.795506 -2.805880 0.135127 0
M  V30 28 C 2.797443 -4.118979 -0.139515 0
M  V30 29 C 2.148540 -5.068499 0.604373 0
M  V30 30 C 2.108565 -6.508319 0.351481 0
M  V30 31 F 2.849565 -6.805067 -0.774301 0
M  V30 32 F 2.556668 -7.273374 1.403585 0
M  V30 33 F 0.770148 -6.863860 0.128843 0
M  V30 34 H 0.426645 -4.057228 5.661644 0
M  V30 35 H 1.719115 -5.114389 5.072456 0
M  V30 36 H 1.520724 -3.457282 4.401847 0
M  V30 37 H -0.680230 -4.106448 3.442990 0
M  V30 38 H -0.576618 -5.699953 4.226779 0
M  V30 39 H 0.659065 -6.494692 2.409865 0
M  V30 40 H 2.209001 -0.850920 2.732143 0
M  V30 41 H 1.095290 -1.204478 -0.814176 0
M  V30 42 H 0.049922 0.546730 -2.156382 0
M  V30 43 H -1.956683 4.688265 -2.774207 0
M  V30 44 H -2.668923 3.427392 -3.841771 0
M  V30 45 H -3.705410 4.329183 -1.080730 0
M  V30 46 H -4.395397 4.727612 -2.666371 0
M  V30 47 H -4.430978 0.849479 -2.593001 0
M  V30 48 H -4.321127 1.170294 -0.862303 0
M  V30 49 H -2.107816 0.882099 -1.171569 0
M  V30 50 H -2.201432 0.953407 -2.921903 0
M  V30 51 H 0.259197 3.150126 1.214306 0
M  V30 52 H 3.354009 -4.433405 -1.006551 0
M  V30 END ATOM
M  V30 BEGIN BOND
M  V30 1 1 1 2
M  V30 2 1 2 3
M  V30 3 1 3 4
M  V30 4 2 4 5
M  V30 5 1 5 6
M  V30 6 1 6 7
M  V30 7 1 7 8
M  V30 8 2 8 9
M  V30 9 1 9 10
M  V30 10 2 10 11
M  V30 11 1 11 12
M  V30 12 2 12 13
M  V30 13 1 12 14
M  V30 14 1 14 15
M  V30 15 1 15 16
M  V30 16 1 16 17
M  V30 17 1 17 18
M  V30 18 1 18 19
M  V30 19 1 11 20
M  V30 20 2 20 21
M  V30 21 1 21 22
M  V30 22 1 22 23
M  V30 23 1 23 24
M  V30 24 1 23 25
M  V30 25 1 23 26
M  V30 26 2 6 27
M  V30 27 1 27 28
M  V30 28 2 28 29
M  V30 29 1 29 30
M  V30 30 1 30 31
M  V30 31 1 30 32
M  V30 32 1 30 33
M  V30 33 1 29 4
M  V30 34 1 21 8
M  V30 35 1 19 14
M  V30 36 1 1 34
M  V30 37 1 1 35
M  V30 38 1 1 36
M  V30 39 1 2 37
M  V30 40 1 2 38
M  V30 41 1 3 39
M  V30 42 1 7 40
M  V30 43 1 9 41
M  V30 44 1 10 42
M  V30 45 1 15 43
M  V30 46 1 15 44
M  V30 47 1 16 45
M  V30 48 1 16 46
M  V30 49 1 18 47
M  V30 50 1 18 48
M  V30 51 1 19 49
M  V30 52 1 19 50
M  V30 53 1 20 51
M  V30 54 1 28 52
M  V30 END BOND
M  V30 END CTAB
M  END
>  <Dataset>  (272) 
ChEMBL_Kinases

>  <Ligand_Instance>  (272) 
nan

>  <PDB_ID>  (272) 
nan

>  <Standardized_SMILES>  (272) 
CCNc1nc(Nc2ccc(C(=O)N3CCOCC3)cc2OC(F)(F)F)ncc1C(F)(F)F

>  <Name>  (272) 
nan

>  <Pocket>  (272) 
nan

>  <ATP_Site>  (272) 
nan

>  <Peripheral>  (272) 
nan

>  <Num_H_Atoms_ProtBoundConf>  (272) 
nan

>  <Num_Resolved_Atoms>  (272) 
nan

>  <Num_Not_Resolved_Atoms>  (272) 
nan

$$$$
CHEMBL3641894
     RDKit          3D

  0  0  0  0  0  0  0  0  0  0999 V3000
M  V30 BEGIN CTAB
M  V30 COUNTS 49 51 0 0 0
M  V30 BEGIN ATOM
M  V30 1 C 3.873862 -2.422054 -0.911148 0
M  V30 2 N 3.718204 -3.860255 -0.839974 0
M  V30 3 C 2.530942 -4.574465 -0.503179 0
M  V30 4 N 1.499216 -3.731678 -0.233330 0
M  V30 5 C 0.274266 -4.133182 0.109322 0
M  V30 6 N -0.813347 -3.232095 0.376371 0
M  V30 7 C -0.799466 -1.821137 0.511249 0
M  V30 8 C 0.422157 -1.199294 0.554214 0
M  V30 9 C 0.506295 0.175429 0.677403 0
M  V30 10 C -0.677517 0.885940 0.754194 0
M  V30 11 C -0.653152 2.319219 0.898401 0
M  V30 12 O 0.164648 2.768877 0.025116 0
M  V30 13 N -1.072779 3.494654 1.517251 0
M  V30 14 C -0.467247 4.685132 0.966986 0
M  V30 15 C -0.409492 5.736198 2.050110 0
M  V30 16 O -1.667868 6.135567 2.417332 0
M  V30 17 C -2.610455 5.128751 2.348771 0
M  V30 18 C -2.017729 3.763237 2.615666 0
M  V30 19 C -1.882136 0.227925 0.708103 0
M  V30 20 C -2.021506 -1.131873 0.588182 0
M  V30 21 O -3.259891 -1.746172 0.549338 0
M  V30 22 C -3.992604 -2.179084 1.657958 0
M  V30 23 F -5.172164 -2.727157 1.217176 0
M  V30 24 F -3.388252 -3.117472 2.443263 0
M  V30 25 F -4.356650 -1.065011 2.431291 0
M  V30 26 N 0.039639 -5.445868 0.194980 0
M  V30 27 C 1.018924 -6.344703 -0.058695 0
M  V30 28 C 2.292007 -5.949519 -0.415231 0
M  V30 29 C 3.492347 -6.743916 -0.778697 0
M  V30 30 F 4.582898 -6.514768 -0.002814 0
M  V30 31 F 3.160198 -8.092712 -0.809666 0
M  V30 32 F 3.871668 -6.390253 -2.088222 0
M  V30 33 H 4.087029 -1.959715 0.066981 0
M  V30 34 H 4.736118 -2.205014 -1.578661 0
M  V30 35 H 2.969775 -1.947696 -1.378840 0
M  V30 36 H 4.547678 -4.474108 -1.049561 0
M  V30 37 H -1.759863 -3.702955 0.480491 0
M  V30 38 H 1.392052 -1.620257 0.518504 0
M  V30 39 H 1.403752 0.773734 0.719253 0
M  V30 40 H -1.126372 5.077681 0.147287 0
M  V30 41 H 0.549096 4.503852 0.561183 0
M  V30 42 H 0.154878 5.375814 2.931002 0
M  V30 43 H 0.102035 6.663908 1.655752 0
M  V30 44 H -3.387383 5.323583 3.108218 0
M  V30 45 H -3.029610 5.111951 1.320341 0
M  V30 46 H -1.489473 3.672544 3.560087 0
M  V30 47 H -2.834243 3.035931 2.470128 0
M  V30 48 H -2.834614 0.781287 0.755496 0
M  V30 49 H 0.927027 -7.416250 -0.013783 0
M  V30 END ATOM
M  V30 BEGIN BOND
M  V30 1 1 1 2
M  V30 2 1 2 3
M  V30 3 2 3 4
M  V30 4 1 4 5
M  V30 5 1 5 6
M  V30 6 1 6 7
M  V30 7 2 7 8
M  V30 8 1 8 9
M  V30 9 2 9 10
M  V30 10 1 10 11
M  V30 11 2 11 12
M  V30 12 1 11 13
M  V30 13 1 13 14
M  V30 14 1 14 15
M  V30 15 1 15 16
M  V30 16 1 16 17
M  V30 17 1 17 18
M  V30 18 1 10 19
M  V30 19 2 19 20
M  V30 20 1 20 21
M  V30 21 1 21 22
M  V30 22 1 22 23
M  V30 23 1 22 24
M  V30 24 1 22 25
M  V30 25 2 5 26
M  V30 26 1 26 27
M  V30 27 2 27 28
M  V30 28 1 28 29
M  V30 29 1 29 30
M  V30 30 1 29 31
M  V30 31 1 29 32
M  V30 32 1 28 3
M  V30 33 1 20 7
M  V30 34 1 18 13
M  V30 35 1 1 33
M  V30 36 1 1 34
M  V30 37 1 1 35
M  V30 38 1 2 36
M  V30 39 1 6 37
M  V30 40 1 8 38
M  V30 41 1 9 39
M  V30 42 1 14 40
M  V30 43 1 14 41
M  V30 44 1 15 42
M  V30 45 1 15 43
M  V30 46 1 17 44
M  V30 47 1 17 45
M  V30 48 1 18 46
M  V30 49 1 18 47
M  V30 50 1 19 48
M  V30 51 1 27 49
M  V30 END BOND
M  V30 END CTAB
M  END
>  <Dataset>  (273) 
ChEMBL_Kinases

>  <Ligand_Instance>  (273) 
nan

>  <PDB_ID>  (273) 
nan

>  <Standardized_SMILES>  (273) 
CNc1nc(Nc2ccc(C(=O)N3CCOCC3)cc2OC(F)(F)F)ncc1C(F)(F)F

>  <Name>  (273) 
nan

>  <Pocket>  (273) 
nan

>  <ATP_Site>  (273) 
nan

>  <Peripheral>  (273) 
nan

>  <Num_H_Atoms_ProtBoundConf>  (273) 
nan

>  <Num_Resolved_Atoms>  (273) 
nan

>  <Num_Not_Resolved_Atoms>  (273) 
nan

$$$$
CHEMBL3641895
     RDKit          3D

  0  0  0  0  0  0  0  0  0  0999 V3000
M  V30 BEGIN CTAB
M  V30 COUNTS 52 54 0 0 0
M  V30 BEGIN ATOM
M  V30 1 C 4.284705 -2.409997 1.716603 0
M  V30 2 C 4.389416 -3.562282 2.688419 0
M  V30 3 N 3.337556 -4.509467 2.342575 0
M  V30 4 C 1.956797 -4.179554 2.373097 0
M  V30 5 N 1.646137 -2.930275 2.746308 0
M  V30 6 C 0.379825 -2.486726 2.819797 0
M  V30 7 N -0.171659 -1.234235 3.188066 0
M  V30 8 C -0.364850 -0.119180 2.322567 0
M  V30 9 C 0.060651 -0.282007 1.028086 0
M  V30 10 C -0.059818 0.710317 0.104427 0
M  V30 11 O 0.320684 0.706619 -1.246920 0
M  V30 12 C 0.911051 -0.469457 -1.740953 0
M  V30 13 C -0.621270 1.919011 0.456424 0
M  V30 14 C -0.876060 3.150659 -0.282334 0
M  V30 15 O 0.031161 4.023441 -0.262905 0
M  V30 16 N -2.172109 3.048822 -0.876631 0
M  V30 17 C -3.175592 1.986570 -0.869133 0
M  V30 18 C -3.229668 1.461726 -2.285687 0
M  V30 19 O -3.211326 2.489618 -3.192740 0
M  V30 20 C -3.594513 3.711987 -2.650271 0
M  V30 21 C -2.616836 4.225345 -1.636221 0
M  V30 22 C -1.054665 2.080966 1.778470 0
M  V30 23 C -0.935369 1.078678 2.720976 0
M  V30 24 F -1.326842 1.155224 4.009207 0
M  V30 25 N -0.602187 -3.370468 2.494490 0
M  V30 26 C -0.344026 -4.638620 2.112998 0
M  V30 27 C 0.979119 -5.088736 2.040361 0
M  V30 28 C 1.324458 -6.469946 1.628380 0
M  V30 29 F 0.160006 -7.168047 1.352016 0
M  V30 30 F 1.974741 -7.056222 2.681695 0
M  V30 31 F 2.129841 -6.518138 0.508247 0
M  V30 32 H 5.156059 -2.455566 1.024115 0
M  V30 33 H 3.350782 -2.442737 1.128261 0
M  V30 34 H 4.324142 -1.445698 2.257213 0
M  V30 35 H 4.227793 -3.168681 3.712321 0
M  V30 36 H 5.368585 -4.051582 2.602356 0
M  V30 37 H 3.594943 -5.474852 2.058923 0
M  V30 38 H -0.458087 -1.138515 4.196044 0
M  V30 39 H 0.521926 -1.189986 0.624442 0
M  V30 40 H 0.116844 -1.244901 -1.763635 0
M  V30 41 H 1.333766 -0.291779 -2.739926 0
M  V30 42 H 1.700114 -0.801380 -1.036842 0
M  V30 43 H -4.158580 2.394519 -0.555169 0
M  V30 44 H -2.939597 1.194911 -0.134620 0
M  V30 45 H -4.065270 0.748390 -2.438431 0
M  V30 46 H -2.287860 0.867828 -2.426945 0
M  V30 47 H -3.646501 4.444564 -3.478247 0
M  V30 48 H -4.634696 3.669346 -2.239739 0
M  V30 49 H -1.800464 4.800157 -2.064094 0
M  V30 50 H -3.233979 4.818150 -0.898308 0
M  V30 51 H -1.522380 2.968274 2.235067 0
M  V30 52 H -1.112554 -5.352632 1.851487 0
M  V30 END ATOM
M  V30 BEGIN BOND
M  V30 1 1 1 2
M  V30 2 1 2 3
M  V30 3 1 3 4
M  V30 4 2 4 5
M  V30 5 1 5 6
M  V30 6 1 6 7
M  V30 7 1 7 8
M  V30 8 2 8 9
M  V30 9 1 9 10
M  V30 10 1 10 11
M  V30 11 1 11 12
M  V30 12 2 10 13
M  V30 13 1 13 14
M  V30 14 2 14 15
M  V30 15 1 14 16
M  V30 16 1 16 17
M  V30 17 1 17 18
M  V30 18 1 18 19
M  V30 19 1 19 20
M  V30 20 1 20 21
M  V30 21 1 13 22
M  V30 22 2 22 23
M  V30 23 1 23 24
M  V30 24 2 6 25
M  V30 25 1 25 26
M  V30 26 2 26 27
M  V30 27 1 27 28
M  V30 28 1 28 29
M  V30 29 1 28 30
M  V30 30 1 28 31
M  V30 31 1 27 4
M  V30 32 1 23 8
M  V30 33 1 21 16
M  V30 34 1 1 32
M  V30 35 1 1 33
M  V30 36 1 1 34
M  V30 37 1 2 35
M  V30 38 1 2 36
M  V30 39 1 3 37
M  V30 40 1 7 38
M  V30 41 1 9 39
M  V30 42 1 12 40
M  V30 43 1 12 41
M  V30 44 1 12 42
M  V30 45 1 17 43
M  V30 46 1 17 44
M  V30 47 1 18 45
M  V30 48 1 18 46
M  V30 49 1 20 47
M  V30 50 1 20 48
M  V30 51 1 21 49
M  V30 52 1 21 50
M  V30 53 1 22 51
M  V30 54 1 26 52
M  V30 END BOND
M  V30 END CTAB
M  END
>  <Dataset>  (274) 
ChEMBL_Kinases

>  <Ligand_Instance>  (274) 
nan

>  <PDB_ID>  (274) 
nan

>  <Standardized_SMILES>  (274) 
CCNc1nc(Nc2cc(OC)c(C(=O)N3CCOCC3)cc2F)ncc1C(F)(F)F

>  <Name>  (274) 
nan

>  <Pocket>  (274) 
nan

>  <ATP_Site>  (274) 
nan

>  <Peripheral>  (274) 
nan

>  <Num_H_Atoms_ProtBoundConf>  (274) 
nan

>  <Num_Resolved_Atoms>  (274) 
nan

>  <Num_Not_Resolved_Atoms>  (274) 
nan

$$$$
CHEMBL3641887
     RDKit          3D

  0  0  0  0  0  0  0  0  0  0999 V3000
M  V30 BEGIN CTAB
M  V30 COUNTS 52 54 0 0 0
M  V30 BEGIN ATOM
M  V30 1 C -2.779497 -3.867855 1.446149 0
M  V30 2 N -1.587205 -4.479969 2.038734 0
M  V30 3 C -0.367975 -4.386563 1.288882 0
M  V30 4 N -0.263639 -3.778383 0.097030 0
M  V30 5 C 0.919090 -3.703151 -0.587209 0
M  V30 6 N 0.679431 -2.976425 -1.790443 0
M  V30 7 C 0.696880 -1.563685 -1.536266 0
M  V30 8 C 0.894616 -0.988961 -0.274178 0
M  V30 9 C 0.896110 0.359494 0.020858 0
M  V30 10 C 0.687252 1.239608 -1.000637 0
M  V30 11 C 0.652298 2.653544 -0.603002 0
M  V30 12 C 1.152170 2.870397 0.775640 0
M  V30 13 O 2.283438 2.833839 1.296004 0
M  V30 14 N 0.122409 3.186518 1.731122 0
M  V30 15 C 0.546281 3.436064 3.123221 0
M  V30 16 C 0.027457 2.202153 3.867780 0
M  V30 17 O -0.818453 1.427176 3.117757 0
M  V30 18 C -1.828154 2.080335 2.451863 0
M  V30 19 C -1.346277 3.283445 1.638099 0
M  V30 20 C 0.488380 0.744614 -2.264504 0
M  V30 21 C 0.492509 -0.610984 -2.523747 0
M  V30 22 O 0.287890 -1.072772 -3.797675 0
M  V30 23 C 0.056673 -0.324989 -4.948979 0
M  V30 24 N 2.030301 -4.266305 -0.039405 0
M  V30 25 C 1.939129 -4.880237 1.158293 0
M  V30 26 C 0.770865 -4.964935 1.855910 0
M  V30 27 C 0.726377 -5.646417 3.175714 0
M  V30 28 F 2.011325 -6.102206 3.477652 0
M  V30 29 F 0.380537 -4.736205 4.147498 0
M  V30 30 F -0.117892 -6.731831 3.205625 0
M  V30 31 H -3.370708 -4.598026 0.862392 0
M  V30 32 H -2.491313 -3.018255 0.771827 0
M  V30 33 H -3.478148 -3.493845 2.251804 0
M  V30 34 H -1.608349 -4.959769 2.954162 0
M  V30 35 H 0.500931 -3.225993 -2.780773 0
M  V30 36 H 1.065133 -1.680352 0.558929 0
M  V30 37 H 1.063303 0.652700 1.048495 0
M  V30 38 H 1.339542 3.178675 -1.346809 0
M  V30 39 H -0.324062 3.117751 -0.792122 0
M  V30 40 H 1.623556 3.587973 3.221421 0
M  V30 41 H -0.041642 4.301678 3.503623 0
M  V30 42 H -0.385750 2.476422 4.862982 0
M  V30 43 H 0.937039 1.597046 4.098927 0
M  V30 44 H -2.196729 1.341471 1.671730 0
M  V30 45 H -2.700146 2.314959 3.091409 0
M  V30 46 H -1.635761 4.207580 2.161710 0
M  V30 47 H -1.727780 3.275255 0.623592 0
M  V30 48 H 0.327531 1.481018 -3.050127 0
M  V30 49 H -0.142429 -1.031775 -5.801900 0
M  V30 50 H 0.936403 0.297641 -5.174806 0
M  V30 51 H -0.839139 0.331710 -4.792622 0
M  V30 52 H 2.880537 -5.285720 1.492060 0
M  V30 END ATOM
M  V30 BEGIN BOND
M  V30 1 1 1 2
M  V30 2 1 2 3
M  V30 3 2 3 4
M  V30 4 1 4 5
M  V30 5 1 5 6
M  V30 6 1 6 7
M  V30 7 2 7 8
M  V30 8 1 8 9
M  V30 9 2 9 10
M  V30 10 1 10 11
M  V30 11 1 11 12
M  V30 12 2 12 13
M  V30 13 1 12 14
M  V30 14 1 14 15
M  V30 15 1 15 16
M  V30 16 1 16 17
M  V30 17 1 17 18
M  V30 18 1 18 19
M  V30 19 1 10 20
M  V30 20 2 20 21
M  V30 21 1 21 22
M  V30 22 1 22 23
M  V30 23 2 5 24
M  V30 24 1 24 25
M  V30 25 2 25 26
M  V30 26 1 26 27
M  V30 27 1 27 28
M  V30 28 1 27 29
M  V30 29 1 27 30
M  V30 30 1 26 3
M  V30 31 1 21 7
M  V30 32 1 19 14
M  V30 33 1 1 31
M  V30 34 1 1 32
M  V30 35 1 1 33
M  V30 36 1 2 34
M  V30 37 1 6 35
M  V30 38 1 8 36
M  V30 39 1 9 37
M  V30 40 1 11 38
M  V30 41 1 11 39
M  V30 42 1 15 40
M  V30 43 1 15 41
M  V30 44 1 16 42
M  V30 45 1 16 43
M  V30 46 1 18 44
M  V30 47 1 18 45
M  V30 48 1 19 46
M  V30 49 1 19 47
M  V30 50 1 20 48
M  V30 51 1 23 49
M  V30 52 1 23 50
M  V30 53 1 23 51
M  V30 54 1 25 52
M  V30 END BOND
M  V30 END CTAB
M  END
>  <Dataset>  (275) 
ChEMBL_Kinases

>  <Ligand_Instance>  (275) 
nan

>  <PDB_ID>  (275) 
nan

>  <Standardized_SMILES>  (275) 
CNc1nc(Nc2ccc(CC(=O)N3CCOCC3)cc2OC)ncc1C(F)(F)F

>  <Name>  (275) 
nan

>  <Pocket>  (275) 
nan

>  <ATP_Site>  (275) 
nan

>  <Peripheral>  (275) 
nan

>  <Num_H_Atoms_ProtBoundConf>  (275) 
nan

>  <Num_Resolved_Atoms>  (275) 
nan

>  <Num_Not_Resolved_Atoms>  (275) 
nan

$$$$
CHEMBL3641955
     RDKit          3D

  0  0  0  0  0  0  0  0  0  0999 V3000
M  V30 BEGIN CTAB
M  V30 COUNTS 53 58 0 0 0
M  V30 BEGIN ATOM
M  V30 1 O 3.626267 -4.878719 3.182977 0
M  V30 2 C 4.280552 -5.147926 2.004612 0 CFG=2
M  V30 3 C 5.678534 -4.544317 1.949915 0
M  V30 4 C 5.628539 -3.867465 0.573321 0
M  V30 5 N 4.324298 -3.281646 0.549869 0
M  V30 6 C 3.749991 -2.015848 0.336816 0
M  V30 7 C 4.444666 -0.940436 -0.179447 0
M  V30 8 C 3.798593 0.267280 -0.349214 0
M  V30 9 C 2.452510 0.456608 -0.017173 0
M  V30 10 N 1.768004 1.689843 -0.205992 0
M  V30 11 C 0.414868 1.756644 0.222219 0
M  V30 12 N 0.397397 2.454279 1.387995 0
M  V30 13 C -0.746197 2.695354 2.070134 0
M  V30 14 C -1.907460 2.192876 1.519752 0
M  V30 15 C -3.237559 2.232128 1.918184 0
M  V30 16 C -3.823864 2.811600 3.022853 0
M  V30 17 C -5.182599 2.720133 3.208520 0
M  V30 18 N -5.858656 2.054693 2.275232 0
M  V30 19 C -5.294755 1.489597 1.199747 0
M  V30 20 C -3.939309 1.540418 0.947404 0
M  V30 21 N -3.141618 1.067598 -0.037413 0
M  V30 22 C -3.494803 0.310829 -1.185706 0 CFG=1
M  V30 23 C -3.650198 -1.165092 -0.912265 0
M  V30 24 C -4.980565 -1.496306 -1.502295 0
M  V30 25 O -5.638308 -0.349828 -1.857349 0
M  V30 26 C -4.725347 0.702840 -1.912620 0
M  V30 27 C -1.924616 1.483018 0.343748 0
M  V30 28 N -0.751075 1.278834 -0.285915 0
M  V30 29 N 1.856601 -0.648393 0.480629 0
M  V30 30 N 2.471980 -1.804681 0.643388 0
M  V30 31 C 3.586065 -4.500409 0.828744 0
M  V30 32 H 3.054997 -5.652584 3.460550 0
M  V30 33 H 4.341920 -6.256920 1.872472 0
M  V30 34 H 6.419438 -5.347474 1.999754 0
M  V30 35 H 5.816193 -3.821046 2.769016 0
M  V30 36 H 6.460554 -3.141276 0.481255 0
M  V30 37 H 5.761204 -4.655037 -0.170302 0
M  V30 38 H 5.475290 -1.072152 -0.437391 0
M  V30 39 H 4.356085 1.095895 -0.754027 0
M  V30 40 H 2.309118 2.456377 -0.643134 0
M  V30 41 H -0.840983 3.239553 2.996577 0
M  V30 42 H -3.236309 3.341717 3.753904 0
M  V30 43 H -5.708765 3.149012 4.046430 0
M  V30 44 H -5.931475 0.966978 0.501737 0
M  V30 45 H -2.635600 0.389002 -1.917980 0
M  V30 46 H -2.817371 -1.775101 -1.318016 0
M  V30 47 H -3.638737 -1.316908 0.196556 0
M  V30 48 H -4.774182 -2.073930 -2.437542 0
M  V30 49 H -5.518180 -2.160859 -0.794264 0
M  V30 50 H -4.522501 0.826251 -3.023309 0
M  V30 51 H -5.159652 1.684242 -1.635225 0
M  V30 52 H 3.678527 -5.150608 -0.091196 0
M  V30 53 H 2.514556 -4.302618 0.991067 0
M  V30 END ATOM
M  V30 BEGIN BOND
M  V30 1 1 1 2
M  V30 2 1 2 3
M  V30 3 1 3 4
M  V30 4 1 4 5
M  V30 5 1 5 6
M  V30 6 2 6 7
M  V30 7 1 7 8
M  V30 8 2 8 9
M  V30 9 1 9 10
M  V30 10 1 10 11
M  V30 11 2 11 12
M  V30 12 1 12 13
M  V30 13 2 13 14
M  V30 14 1 14 15
M  V30 15 2 15 16
M  V30 16 1 16 17
M  V30 17 2 17 18
M  V30 18 1 18 19
M  V30 19 2 19 20
M  V30 20 1 20 21
M  V30 21 1 21 22
M  V30 22 1 22 23
M  V30 23 1 23 24
M  V30 24 1 24 25
M  V30 25 1 25 26
M  V30 26 1 21 27
M  V30 27 2 27 28
M  V30 28 1 9 29
M  V30 29 2 29 30
M  V30 30 1 5 31
M  V30 31 1 31 2
M  V30 32 1 30 6
M  V30 33 1 28 11
M  V30 34 1 27 14
M  V30 35 1 20 15
M  V30 36 1 26 22
M  V30 37 1 1 32
M  V30 38 1 2 33 CFG=3
M  V30 39 1 3 34
M  V30 40 1 3 35
M  V30 41 1 4 36
M  V30 42 1 4 37
M  V30 43 1 7 38
M  V30 44 1 8 39
M  V30 45 1 10 40
M  V30 46 1 13 41
M  V30 47 1 16 42
M  V30 48 1 17 43
M  V30 49 1 19 44
M  V30 50 1 22 45 CFG=3
M  V30 51 1 23 46
M  V30 52 1 23 47
M  V30 53 1 24 48
M  V30 54 1 24 49
M  V30 55 1 26 50
M  V30 56 1 26 51
M  V30 57 1 31 52
M  V30 58 1 31 53
M  V30 END BOND
M  V30 END CTAB
M  END
>  <Dataset>  (276) 
ChEMBL_Kinases

>  <Ligand_Instance>  (276) 
nan

>  <PDB_ID>  (276) 
nan

>  <Standardized_SMILES>  (276) 
O[C@@H]1CCN(c2ccc(Nc3ncc4c5ccncc5n([C@H]5CCOC5)c4n3)nn2)C1

>  <Name>  (276) 
nan

>  <Pocket>  (276) 
nan

>  <ATP_Site>  (276) 
nan

>  <Peripheral>  (276) 
nan

>  <Num_H_Atoms_ProtBoundConf>  (276) 
nan

>  <Num_Resolved_Atoms>  (276) 
nan

>  <Num_Not_Resolved_Atoms>  (276) 
nan

$$$$
CHEMBL3641954
     RDKit          3D

  0  0  0  0  0  0  0  0  0  0999 V3000
M  V30 BEGIN CTAB
M  V30 COUNTS 54 59 0 0 0
M  V30 BEGIN ATOM
M  V30 1 O 3.595552 -5.891522 -1.560996 0
M  V30 2 C 4.880003 -5.342998 -1.484456 0 CFG=2
M  V30 3 C 5.137520 -5.002548 -0.023135 0
M  V30 4 C 5.273869 -3.497558 -0.094345 0
M  V30 5 N 4.422763 -3.057091 -1.178338 0
M  V30 6 C 3.407975 -2.090533 -1.313543 0
M  V30 7 C 2.924727 -1.405490 -0.226346 0
M  V30 8 C 1.935520 -0.453910 -0.372213 0
M  V30 9 C 1.435786 -0.200061 -1.642530 0
M  V30 10 N 0.401073 0.791207 -1.828159 0
M  V30 11 C -0.084214 1.445578 -0.665546 0
M  V30 12 N 0.449499 2.481774 0.050926 0
M  V30 13 C -0.179115 2.971604 1.129000 0
M  V30 14 C -1.382406 2.438573 1.540071 0
M  V30 15 C -2.278354 2.676799 2.558268 0
M  V30 16 C -2.216286 3.632743 3.581935 0
M  V30 17 C -3.263929 3.652287 4.480885 0
M  V30 18 N -4.307042 2.792041 4.385435 0
M  V30 19 C -4.369863 1.870292 3.399702 0
M  V30 20 C -3.350799 1.797104 2.464745 0
M  V30 21 N -3.123699 1.006182 1.385143 0
M  V30 22 C -3.998701 -0.036216 0.927604 0 CFG=1
M  V30 23 C -4.137571 -1.205264 1.834150 0
M  V30 24 C -5.620395 -1.421883 1.889820 0
M  V30 25 O -6.279719 -0.366339 1.341525 0
M  V30 26 C -5.401182 0.448193 0.672826 0
M  V30 27 C -1.940906 1.387495 0.826065 0
M  V30 28 N -1.278394 0.914488 -0.260377 0
M  V30 29 N 1.948302 -0.901522 -2.665572 0
M  V30 30 C 2.906224 -1.832984 -2.572000 0
M  V30 31 C 4.946950 -3.979988 -2.184294 0
M  V30 32 H 2.960517 -5.313195 -1.030610 0
M  V30 33 H 5.585690 -6.063949 -1.894617 0
M  V30 34 H 6.096028 -5.472174 0.282783 0
M  V30 35 H 4.351612 -5.357746 0.645692 0
M  V30 36 H 5.060220 -3.024925 0.874176 0
M  V30 37 H 6.351384 -3.301742 -0.359024 0
M  V30 38 H 3.353469 -1.646313 0.741432 0
M  V30 39 H 1.558378 0.086983 0.506698 0
M  V30 40 H 0.091263 0.943360 -2.813365 0
M  V30 41 H 0.272099 3.787367 1.669656 0
M  V30 42 H -1.407384 4.329785 3.689299 0
M  V30 43 H -3.332289 4.344970 5.319218 0
M  V30 44 H -5.211394 1.198250 3.347096 0
M  V30 45 H -3.592494 -0.425867 -0.046814 0
M  V30 46 H -3.634076 -2.122279 1.443151 0
M  V30 47 H -3.703514 -0.982085 2.837291 0
M  V30 48 H -5.871657 -2.326100 1.293844 0
M  V30 49 H -5.934288 -1.626511 2.928867 0
M  V30 50 H -5.501254 1.539051 0.937066 0
M  V30 51 H -5.653855 0.402720 -0.408768 0
M  V30 52 H 3.231236 -2.332883 -3.497865 0
M  V30 53 H 4.350511 -4.020978 -3.098718 0
M  V30 54 H 6.017568 -3.759644 -2.354038 0
M  V30 END ATOM
M  V30 BEGIN BOND
M  V30 1 1 1 2
M  V30 2 1 2 3
M  V30 3 1 3 4
M  V30 4 1 4 5
M  V30 5 1 5 6
M  V30 6 2 6 7
M  V30 7 1 7 8
M  V30 8 2 8 9
M  V30 9 1 9 10
M  V30 10 1 10 11
M  V30 11 2 11 12
M  V30 12 1 12 13
M  V30 13 2 13 14
M  V30 14 1 14 15
M  V30 15 2 15 16
M  V30 16 1 16 17
M  V30 17 2 17 18
M  V30 18 1 18 19
M  V30 19 2 19 20
M  V30 20 1 20 21
M  V30 21 1 21 22
M  V30 22 1 22 23
M  V30 23 1 23 24
M  V30 24 1 24 25
M  V30 25 1 25 26
M  V30 26 1 21 27
M  V30 27 2 27 28
M  V30 28 1 9 29
M  V30 29 2 29 30
M  V30 30 1 5 31
M  V30 31 1 31 2
M  V30 32 1 30 6
M  V30 33 1 28 11
M  V30 34 1 27 14
M  V30 35 1 20 15
M  V30 36 1 26 22
M  V30 37 1 1 32
M  V30 38 1 2 33 CFG=3
M  V30 39 1 3 34
M  V30 40 1 3 35
M  V30 41 1 4 36
M  V30 42 1 4 37
M  V30 43 1 7 38
M  V30 44 1 8 39
M  V30 45 1 10 40
M  V30 46 1 13 41
M  V30 47 1 16 42
M  V30 48 1 17 43
M  V30 49 1 19 44
M  V30 50 1 22 45 CFG=3
M  V30 51 1 23 46
M  V30 52 1 23 47
M  V30 53 1 24 48
M  V30 54 1 24 49
M  V30 55 1 26 50
M  V30 56 1 26 51
M  V30 57 1 30 52
M  V30 58 1 31 53
M  V30 59 1 31 54
M  V30 END BOND
M  V30 END CTAB
M  END
>  <Dataset>  (277) 
ChEMBL_Kinases

>  <Ligand_Instance>  (277) 
nan

>  <PDB_ID>  (277) 
nan

>  <Standardized_SMILES>  (277) 
O[C@@H]1CCN(c2ccc(Nc3ncc4c5ccncc5n([C@H]5CCOC5)c4n3)nc2)C1

>  <Name>  (277) 
nan

>  <Pocket>  (277) 
nan

>  <ATP_Site>  (277) 
nan

>  <Peripheral>  (277) 
nan

>  <Num_H_Atoms_ProtBoundConf>  (277) 
nan

>  <Num_Resolved_Atoms>  (277) 
nan

>  <Num_Not_Resolved_Atoms>  (277) 
nan

$$$$
CHEMBL3641953
     RDKit          3D

  0  0  0  0  0  0  0  0  0  0999 V3000
M  V30 BEGIN CTAB
M  V30 COUNTS 63 68 0 0 0
M  V30 BEGIN ATOM
M  V30 1 C 7.004582 0.339663 3.474913 0
M  V30 2 N 5.628931 -0.113677 3.567156 0
M  V30 3 C 5.457997 -0.695336 4.885524 0
M  V30 4 C 4.748797 1.042738 3.479046 0
M  V30 5 C 4.923067 1.783732 2.185901 0
M  V30 6 C 4.389221 1.102325 0.977507 0
M  V30 7 N 3.184995 0.336460 1.180169 0
M  V30 8 C 2.092096 0.403101 0.301312 0
M  V30 9 C 0.910853 -0.294902 0.422783 0
M  V30 10 C -0.066606 -0.116364 -0.529588 0
M  V30 11 C 0.048319 0.721807 -1.613941 0
M  V30 12 N -0.919676 0.943003 -2.620610 0
M  V30 13 C -2.203259 0.350569 -2.725089 0
M  V30 14 N -3.003266 0.673795 -3.751607 0
M  V30 15 C -4.231532 0.183744 -3.959515 0
M  V30 16 C -4.750074 -0.722729 -3.076886 0
M  V30 17 C -5.951553 -1.406751 -2.996968 0
M  V30 18 C -7.071688 -1.404885 -3.809663 0
M  V30 19 C -8.145361 -2.212640 -3.466075 0
M  V30 20 N -8.046974 -2.964282 -2.352676 0
M  V30 21 C -6.955086 -2.962429 -1.565548 0
M  V30 22 C -5.839636 -2.183985 -1.838276 0
M  V30 23 N -4.629332 -1.958443 -1.275986 0
M  V30 24 C -4.175597 -2.589724 -0.073186 0 CFG=1
M  V30 25 C -2.863003 -3.331398 -0.216851 0
M  V30 26 C -2.431231 -3.353060 1.254319 0
M  V30 27 O -2.871749 -2.189991 1.823917 0
M  V30 28 C -3.800337 -1.604179 1.007913 0
M  V30 29 C -3.951614 -1.074494 -2.011837 0
M  V30 30 N -2.733043 -0.538044 -1.875348 0
M  V30 31 N 1.225924 1.366218 -1.663352 0
M  V30 32 N 2.181489 1.216059 -0.766273 0
M  V30 33 C 3.246755 -0.486530 2.371968 0
M  V30 34 C 3.334957 0.489365 3.552818 0
M  V30 35 H 7.134941 1.283128 4.012679 0
M  V30 36 H 7.328057 0.400024 2.407965 0
M  V30 37 H 7.622268 -0.437744 4.008186 0
M  V30 38 H 5.395819 0.066906 5.668734 0
M  V30 39 H 6.362066 -1.348193 5.063752 0
M  V30 40 H 4.604254 -1.394568 4.957311 0
M  V30 41 H 4.914340 1.757090 4.312615 0
M  V30 42 H 4.466997 2.797620 2.294023 0
M  V30 43 H 6.033430 1.937323 2.051010 0
M  V30 44 H 5.167341 0.399764 0.592357 0
M  V30 45 H 4.248008 1.888579 0.185960 0
M  V30 46 H 0.794897 -0.953594 1.256615 0
M  V30 47 H -0.957158 -0.677300 -0.389372 0
M  V30 48 H -0.656683 1.620225 -3.371113 0
M  V30 49 H -4.815906 0.496541 -4.815706 0
M  V30 50 H -7.084526 -0.777689 -4.688939 0
M  V30 51 H -9.044269 -2.240307 -4.077665 0
M  V30 52 H -6.899815 -3.574711 -0.676552 0
M  V30 53 H -4.907248 -3.283798 0.343388 0
M  V30 54 H -2.995714 -4.360494 -0.610358 0
M  V30 55 H -2.128633 -2.733552 -0.784257 0
M  V30 56 H -2.993749 -4.195542 1.718205 0
M  V30 57 H -1.344020 -3.537962 1.358532 0
M  V30 58 H -4.686087 -1.297203 1.623080 0
M  V30 59 H -3.361900 -0.669943 0.602987 0
M  V30 60 H 2.370258 -1.111138 2.532268 0
M  V30 61 H 4.195548 -1.066468 2.304215 0
M  V30 62 H 3.182288 0.012004 4.518852 0
M  V30 63 H 2.662365 1.319697 3.325549 0
M  V30 END ATOM
M  V30 BEGIN BOND
M  V30 1 1 1 2
M  V30 2 1 2 3
M  V30 3 1 2 4
M  V30 4 1 4 5
M  V30 5 1 5 6
M  V30 6 1 6 7
M  V30 7 1 7 8
M  V30 8 2 8 9
M  V30 9 1 9 10
M  V30 10 2 10 11
M  V30 11 1 11 12
M  V30 12 1 12 13
M  V30 13 2 13 14
M  V30 14 1 14 15
M  V30 15 2 15 16
M  V30 16 1 16 17
M  V30 17 2 17 18
M  V30 18 1 18 19
M  V30 19 2 19 20
M  V30 20 1 20 21
M  V30 21 2 21 22
M  V30 22 1 22 23
M  V30 23 1 23 24
M  V30 24 1 24 25
M  V30 25 1 25 26
M  V30 26 1 26 27
M  V30 27 1 27 28
M  V30 28 1 23 29
M  V30 29 2 29 30
M  V30 30 1 11 31
M  V30 31 2 31 32
M  V30 32 1 7 33
M  V30 33 1 33 34
M  V30 34 1 34 4
M  V30 35 1 32 8
M  V30 36 1 30 13
M  V30 37 1 29 16
M  V30 38 1 22 17
M  V30 39 1 28 24
M  V30 40 1 1 35
M  V30 41 1 1 36
M  V30 42 1 1 37
M  V30 43 1 3 38
M  V30 44 1 3 39
M  V30 45 1 3 40
M  V30 46 1 4 41
M  V30 47 1 5 42
M  V30 48 1 5 43
M  V30 49 1 6 44
M  V30 50 1 6 45
M  V30 51 1 9 46
M  V30 52 1 10 47
M  V30 53 1 12 48
M  V30 54 1 15 49
M  V30 55 1 18 50
M  V30 56 1 19 51
M  V30 57 1 21 52
M  V30 58 1 24 53 CFG=1
M  V30 59 1 25 54
M  V30 60 1 25 55
M  V30 61 1 26 56
M  V30 62 1 26 57
M  V30 63 1 28 58
M  V30 64 1 28 59
M  V30 65 1 33 60
M  V30 66 1 33 61
M  V30 67 1 34 62
M  V30 68 1 34 63
M  V30 END BOND
M  V30 END CTAB
M  END
>  <Dataset>  (278) 
ChEMBL_Kinases

>  <Ligand_Instance>  (278) 
nan

>  <PDB_ID>  (278) 
nan

>  <Standardized_SMILES>  (278) 
CN(C)C1CCN(c2ccc(Nc3ncc4c5ccncc5n([C@H]5CCOC5)c4n3)nn2)CC1

>  <Name>  (278) 
nan

>  <Pocket>  (278) 
nan

>  <ATP_Site>  (278) 
nan

>  <Peripheral>  (278) 
nan

>  <Num_H_Atoms_ProtBoundConf>  (278) 
nan

>  <Num_Resolved_Atoms>  (278) 
nan

>  <Num_Not_Resolved_Atoms>  (278) 
nan

$$$$
CHEMBL3641952
     RDKit          3D

  0  0  0  0  0  0  0  0  0  0999 V3000
M  V30 BEGIN CTAB
M  V30 COUNTS 64 69 0 0 0
M  V30 BEGIN ATOM
M  V30 1 C 4.915170 0.227264 4.953069 0
M  V30 2 N 4.862650 1.527550 4.336033 0
M  V30 3 C 4.727746 2.526552 5.354373 0
M  V30 4 C 3.752100 1.504787 3.398270 0
M  V30 5 C 2.510656 1.218117 4.157585 0
M  V30 6 C 1.287880 1.962811 3.690986 0
M  V30 7 N 1.460562 2.468406 2.347776 0
M  V30 8 C 0.750317 2.069687 1.189295 0
M  V30 9 C -0.248298 1.123219 1.187794 0
M  V30 10 C -0.920052 0.756351 0.037596 0
M  V30 11 C -0.612785 1.333409 -1.179415 0
M  V30 12 N -1.295588 0.966118 -2.375677 0
M  V30 13 C -2.310747 -0.031054 -2.229663 0
M  V30 14 N -3.583064 0.326355 -1.968022 0
M  V30 15 C -4.579292 -0.565011 -1.820287 0
M  V30 16 C -4.251533 -1.913216 -1.949060 0
M  V30 17 C -5.071347 -3.021466 -1.846029 0
M  V30 18 C -6.426265 -3.148729 -1.592364 0
M  V30 19 C -6.928246 -4.431361 -1.558725 0
M  V30 20 N -6.138652 -5.520511 -1.763442 0
M  V30 21 C -4.814046 -5.371168 -2.010232 0
M  V30 22 C -4.246516 -4.092548 -2.056585 0
M  V30 23 N -2.970628 -3.660103 -2.280210 0
M  V30 24 C -1.846677 -4.499733 -2.536867 0 CFG=1
M  V30 25 C -1.186113 -4.249517 -3.867136 0
M  V30 26 C 0.261481 -4.609855 -3.565988 0
M  V30 27 O 0.310161 -5.052155 -2.263157 0
M  V30 28 C -0.716463 -4.376852 -1.568373 0
M  V30 29 C -2.945234 -2.317350 -2.219465 0
M  V30 30 N -2.012931 -1.357498 -2.351503 0
M  V30 31 N 0.372335 2.261677 -1.154819 0
M  V30 32 C 1.031241 2.624168 -0.037959 0
M  V30 33 C 2.502752 3.468268 2.382781 0
M  V30 34 C 3.792078 2.711831 2.558434 0
M  V30 35 H 5.867503 0.014906 5.472257 0
M  V30 36 H 4.728407 -0.610085 4.249019 0
M  V30 37 H 4.105380 0.133060 5.733259 0
M  V30 38 H 4.060671 3.350045 5.089250 0
M  V30 39 H 4.341056 2.056049 6.294632 0
M  V30 40 H 5.718643 2.947763 5.603896 0
M  V30 41 H 3.958212 0.612606 2.761838 0
M  V30 42 H 2.242734 0.139460 4.150097 0
M  V30 43 H 2.638910 1.469525 5.232331 0
M  V30 44 H 1.059921 2.830102 4.380150 0
M  V30 45 H 0.362210 1.358272 3.716611 0
M  V30 46 H -0.546580 0.629173 2.085665 0
M  V30 47 H -1.710945 -0.004095 0.082671 0
M  V30 48 H -0.999141 1.451101 -3.245722 0
M  V30 49 H -5.583289 -0.215354 -1.610418 0
M  V30 50 H -7.057792 -2.304180 -1.429963 0
M  V30 51 H -7.993061 -4.542221 -1.360313 0
M  V30 52 H -4.130540 -6.200075 -2.181787 0
M  V30 53 H -2.146223 -5.576824 -2.546614 0
M  V30 54 H -1.203219 -3.204814 -4.179898 0
M  V30 55 H -1.594224 -4.922944 -4.640318 0
M  V30 56 H 0.600181 -5.357519 -4.297604 0
M  V30 57 H 0.947737 -3.746508 -3.646610 0
M  V30 58 H -0.397800 -3.360308 -1.330279 0
M  V30 59 H -0.885312 -5.014146 -0.659351 0
M  V30 60 H 1.784033 3.377119 -0.209608 0
M  V30 61 H 2.344586 4.201680 3.229260 0
M  V30 62 H 2.584651 4.084332 1.485961 0
M  V30 63 H 4.171339 2.491609 1.537724 0
M  V30 64 H 4.509770 3.468449 2.968562 0
M  V30 END ATOM
M  V30 BEGIN BOND
M  V30 1 1 1 2
M  V30 2 1 2 3
M  V30 3 1 2 4
M  V30 4 1 4 5
M  V30 5 1 5 6
M  V30 6 1 6 7
M  V30 7 1 7 8
M  V30 8 2 8 9
M  V30 9 1 9 10
M  V30 10 2 10 11
M  V30 11 1 11 12
M  V30 12 1 12 13
M  V30 13 2 13 14
M  V30 14 1 14 15
M  V30 15 2 15 16
M  V30 16 1 16 17
M  V30 17 2 17 18
M  V30 18 1 18 19
M  V30 19 2 19 20
M  V30 20 1 20 21
M  V30 21 2 21 22
M  V30 22 1 22 23
M  V30 23 1 23 24
M  V30 24 1 24 25
M  V30 25 1 25 26
M  V30 26 1 26 27
M  V30 27 1 27 28
M  V30 28 1 23 29
M  V30 29 2 29 30
M  V30 30 1 11 31
M  V30 31 2 31 32
M  V30 32 1 7 33
M  V30 33 1 33 34
M  V30 34 1 34 4
M  V30 35 1 32 8
M  V30 36 1 30 13
M  V30 37 1 29 16
M  V30 38 1 22 17
M  V30 39 1 28 24
M  V30 40 1 1 35
M  V30 41 1 1 36
M  V30 42 1 1 37
M  V30 43 1 3 38
M  V30 44 1 3 39
M  V30 45 1 3 40
M  V30 46 1 4 41
M  V30 47 1 5 42
M  V30 48 1 5 43
M  V30 49 1 6 44
M  V30 50 1 6 45
M  V30 51 1 9 46
M  V30 52 1 10 47
M  V30 53 1 12 48
M  V30 54 1 15 49
M  V30 55 1 18 50
M  V30 56 1 19 51
M  V30 57 1 21 52
M  V30 58 1 24 53 CFG=3
M  V30 59 1 25 54
M  V30 60 1 25 55
M  V30 61 1 26 56
M  V30 62 1 26 57
M  V30 63 1 28 58
M  V30 64 1 28 59
M  V30 65 1 32 60
M  V30 66 1 33 61
M  V30 67 1 33 62
M  V30 68 1 34 63
M  V30 69 1 34 64
M  V30 END BOND
M  V30 END CTAB
M  END
>  <Dataset>  (279) 
ChEMBL_Kinases

>  <Ligand_Instance>  (279) 
nan

>  <PDB_ID>  (279) 
nan

>  <Standardized_SMILES>  (279) 
CN(C)C1CCN(c2ccc(Nc3ncc4c5ccncc5n([C@H]5CCOC5)c4n3)nc2)CC1

>  <Name>  (279) 
nan

>  <Pocket>  (279) 
nan

>  <ATP_Site>  (279) 
nan

>  <Peripheral>  (279) 
nan

>  <Num_H_Atoms_ProtBoundConf>  (279) 
nan

>  <Num_Resolved_Atoms>  (279) 
nan

>  <Num_Not_Resolved_Atoms>  (279) 
nan

$$$$
CHEMBL3641951
     RDKit          3D

  0  0  0  0  0  0  0  0  0  0999 V3000
M  V30 BEGIN CTAB
M  V30 COUNTS 64 69 0 0 0
M  V30 BEGIN ATOM
M  V30 1 C 7.544589 1.007731 2.419994 0
M  V30 2 N 6.494063 0.081515 2.138647 0
M  V30 3 C 5.312561 0.627493 1.562759 0
M  V30 4 C 5.518073 1.318800 0.234489 0
M  V30 5 C 4.399755 2.289351 -0.055864 0
M  V30 6 N 3.149463 1.903225 0.506472 0
M  V30 7 C 1.925462 1.659543 -0.171478 0
M  V30 8 C 1.758277 1.763524 -1.536702 0
M  V30 9 C 0.557102 1.519544 -2.176537 0
M  V30 10 C -0.542248 1.149554 -1.404408 0
M  V30 11 N -1.842542 0.868360 -1.969022 0
M  V30 12 C -2.921211 0.496551 -1.116905 0
M  V30 13 N -3.844537 1.307517 -0.525959 0
M  V30 14 C -4.802367 0.779421 0.256250 0
M  V30 15 C -4.902663 -0.576569 0.498919 0
M  V30 16 C -5.753395 -1.391363 1.236503 0
M  V30 17 C -6.857475 -1.083818 2.024861 0
M  V30 18 C -7.443086 -2.184005 2.599714 0
M  V30 19 N -7.038694 -3.450805 2.454141 0
M  V30 20 C -5.954267 -3.715355 1.675030 0
M  V30 21 C -5.306616 -2.663416 1.059725 0
M  V30 22 N -4.219117 -2.674258 0.247178 0
M  V30 23 C -3.404394 -3.763249 -0.225330 0 CFG=1
M  V30 24 C -3.138976 -3.776914 -1.671710 0
M  V30 25 C -1.715345 -4.298268 -1.847202 0
M  V30 26 C -1.293304 -4.779970 -0.475935 0
M  V30 27 C -2.051109 -3.810290 0.424415 0 CFG=1
M  V30 28 O -1.408153 -2.584399 0.336962 0
M  V30 29 C -3.947581 -1.389875 -0.115309 0
M  V30 30 N -3.016758 -0.821622 -0.882360 0
M  V30 31 N -0.381312 1.045387 -0.051070 0
M  V30 32 C 0.803684 1.290462 0.538875 0
M  V30 33 C 3.201578 1.757762 1.947098 0
M  V30 34 C 4.600330 1.630237 2.450963 0
M  V30 35 H 7.253427 1.903740 2.986291 0
M  V30 36 H 8.136324 1.231037 1.494044 0
M  V30 37 H 8.281725 0.468337 3.078834 0
M  V30 38 H 6.213191 -0.394098 3.024404 0
M  V30 39 H 4.601110 -0.195577 1.397250 0
M  V30 40 H 5.578480 0.537758 -0.541457 0
M  V30 41 H 6.466333 1.891973 0.200444 0
M  V30 42 H 4.654301 3.301199 0.325991 0
M  V30 43 H 4.309310 2.385631 -1.155022 0
M  V30 44 H 2.579823 2.044163 -2.151749 0
M  V30 45 H 0.430853 1.602087 -3.245972 0
M  V30 46 H -1.902897 0.962344 -3.010893 0
M  V30 47 H -5.517410 1.443543 0.709344 0
M  V30 48 H -7.175285 -0.073602 2.137242 0
M  V30 49 H -8.321617 -2.029816 3.238785 0
M  V30 50 H -5.595751 -4.722744 1.531529 0
M  V30 51 H -3.923727 -4.697811 0.068919 0
M  V30 52 H -3.819107 -4.493019 -2.190741 0
M  V30 53 H -3.201385 -2.835474 -2.206176 0
M  V30 54 H -1.660399 -5.062877 -2.628232 0
M  V30 55 H -1.007542 -3.473889 -2.111180 0
M  V30 56 H -1.611080 -5.814862 -0.335249 0
M  V30 57 H -0.208833 -4.645063 -0.314806 0
M  V30 58 H -2.051075 -4.199507 1.457745 0
M  V30 59 H -0.526028 -2.665347 -0.079311 0
M  V30 60 H 0.785068 1.170140 1.609314 0
M  V30 61 H 2.705922 0.766510 2.154290 0
M  V30 62 H 2.610294 2.539259 2.462828 0
M  V30 63 H 5.092343 2.630444 2.327234 0
M  V30 64 H 4.554309 1.308342 3.512810 0
M  V30 END ATOM
M  V30 BEGIN BOND
M  V30 1 1 1 2
M  V30 2 1 2 3
M  V30 3 1 3 4
M  V30 4 1 4 5
M  V30 5 1 5 6
M  V30 6 1 6 7
M  V30 7 2 7 8
M  V30 8 1 8 9
M  V30 9 2 9 10
M  V30 10 1 10 11
M  V30 11 1 11 12
M  V30 12 2 12 13
M  V30 13 1 13 14
M  V30 14 2 14 15
M  V30 15 1 15 16
M  V30 16 2 16 17
M  V30 17 1 17 18
M  V30 18 2 18 19
M  V30 19 1 19 20
M  V30 20 2 20 21
M  V30 21 1 21 22
M  V30 22 1 22 23
M  V30 23 1 23 24
M  V30 24 1 24 25
M  V30 25 1 25 26
M  V30 26 1 26 27
M  V30 27 1 27 28
M  V30 28 1 22 29
M  V30 29 2 29 30
M  V30 30 1 10 31
M  V30 31 2 31 32
M  V30 32 1 6 33
M  V30 33 1 33 34
M  V30 34 1 34 3
M  V30 35 1 32 7
M  V30 36 1 30 12
M  V30 37 1 29 15
M  V30 38 1 21 16
M  V30 39 1 27 23
M  V30 40 1 1 35
M  V30 41 1 1 36
M  V30 42 1 1 37
M  V30 43 1 2 38
M  V30 44 1 3 39
M  V30 45 1 4 40
M  V30 46 1 4 41
M  V30 47 1 5 42
M  V30 48 1 5 43
M  V30 49 1 8 44
M  V30 50 1 9 45
M  V30 51 1 11 46
M  V30 52 1 14 47
M  V30 53 1 17 48
M  V30 54 1 18 49
M  V30 55 1 20 50
M  V30 56 1 23 51 CFG=1
M  V30 57 1 24 52
M  V30 58 1 24 53
M  V30 59 1 25 54
M  V30 60 1 25 55
M  V30 61 1 26 56
M  V30 62 1 26 57
M  V30 63 1 27 58 CFG=1
M  V30 64 1 28 59
M  V30 65 1 32 60
M  V30 66 1 33 61
M  V30 67 1 33 62
M  V30 68 1 34 63
M  V30 69 1 34 64
M  V30 END BOND
M  V30 END CTAB
M  END
>  <Dataset>  (280) 
ChEMBL_Kinases

>  <Ligand_Instance>  (280) 
nan

>  <PDB_ID>  (280) 
nan

>  <Standardized_SMILES>  (280) 
CNC1CCN(c2ccc(Nc3ncc4c5ccncc5n([C@H]5CCC[C@H]5O)c4n3)nc2)CC1

>  <Name>  (280) 
nan

>  <Pocket>  (280) 
nan

>  <ATP_Site>  (280) 
nan

>  <Peripheral>  (280) 
nan

>  <Num_H_Atoms_ProtBoundConf>  (280) 
nan

>  <Num_Resolved_Atoms>  (280) 
nan

>  <Num_Not_Resolved_Atoms>  (280) 
nan

$$$$
CHEMBL3641950
     RDKit          3D

  0  0  0  0  0  0  0  0  0  0999 V3000
M  V30 BEGIN CTAB
M  V30 COUNTS 53 58 0 0 0
M  V30 BEGIN ATOM
M  V30 1 O 3.578260 -5.949655 -2.146759 0
M  V30 2 C 4.753268 -5.482955 -1.544443 0 CFG=2
M  V30 3 C 4.499608 -5.335732 -0.044753 0
M  V30 4 C 4.781462 -3.853052 0.150106 0
M  V30 5 N 4.301861 -3.227716 -1.041404 0
M  V30 6 C 3.416917 -2.154599 -1.228805 0
M  V30 7 C 2.840790 -1.605192 -0.105166 0
M  V30 8 C 1.953672 -0.533728 -0.210482 0
M  V30 9 C 1.679742 -0.050494 -1.477687 0
M  V30 10 N 0.777443 1.049966 -1.637409 0
M  V30 11 C 0.201128 1.582352 -0.450520 0
M  V30 12 N 0.745089 2.536218 0.335886 0
M  V30 13 C 0.121054 2.981374 1.442140 0
M  V30 14 C -1.106416 2.488417 1.832253 0
M  V30 15 C -2.038693 2.657552 2.836702 0
M  V30 16 C -1.983012 3.518650 3.913552 0
M  V30 17 C -3.070093 3.494974 4.796746 0
M  V30 18 N -4.103160 2.644507 4.555598 0
M  V30 19 C -4.135783 1.810643 3.494954 0
M  V30 20 C -3.086596 1.793751 2.590726 0
M  V30 21 N -2.881990 1.066334 1.470197 0
M  V30 22 C -3.707774 0.080818 0.876279 0 CFG=2
M  V30 23 C -5.084564 0.530685 0.497117 0
M  V30 24 C -5.918900 -0.674778 0.821519 0
M  V30 25 O -5.013203 -1.726813 0.943485 0
M  V30 26 C -3.956861 -1.156536 1.680010 0
M  V30 27 C -1.666289 1.512057 1.029707 0
M  V30 28 N -0.997477 1.101815 -0.068359 0
M  V30 29 N 2.264931 -0.613410 -2.580904 0
M  V30 30 N 3.110743 -1.644235 -2.406945 0
M  V30 31 C 5.019803 -4.057295 -2.020484 0
M  V30 32 H 2.873326 -5.260248 -2.108368 0
M  V30 33 H 5.597888 -6.167064 -1.745152 0
M  V30 34 H 3.453738 -5.596618 0.186147 0
M  V30 35 H 5.230517 -5.958055 0.508101 0
M  V30 36 H 4.345471 -3.463643 1.083716 0
M  V30 37 H 5.906909 -3.759936 0.188306 0
M  V30 38 H 3.001218 -1.921830 0.908253 0
M  V30 39 H 1.482096 -0.079088 0.667111 0
M  V30 40 H 0.583399 1.407662 -2.595627 0
M  V30 41 H 0.550444 3.743404 2.075577 0
M  V30 42 H -1.123887 4.186575 4.063173 0
M  V30 43 H -3.077854 4.150334 5.658626 0
M  V30 44 H -4.992264 1.161826 3.366520 0
M  V30 45 H -3.226685 -0.266068 -0.074328 0
M  V30 46 H -5.187649 0.730279 -0.594908 0
M  V30 47 H -5.413309 1.451189 1.012156 0
M  V30 48 H -6.695337 -0.896274 0.062169 0
M  V30 49 H -6.446171 -0.599809 1.792816 0
M  V30 50 H -4.217156 -1.012055 2.727120 0
M  V30 51 H -3.108850 -1.882483 1.544005 0
M  V30 52 H 6.104904 -3.851872 -1.914080 0
M  V30 53 H 4.650356 -3.914130 -3.046584 0
M  V30 END ATOM
M  V30 BEGIN BOND
M  V30 1 1 1 2
M  V30 2 1 2 3
M  V30 3 1 3 4
M  V30 4 1 4 5
M  V30 5 1 5 6
M  V30 6 2 6 7
M  V30 7 1 7 8
M  V30 8 2 8 9
M  V30 9 1 9 10
M  V30 10 1 10 11
M  V30 11 2 11 12
M  V30 12 1 12 13
M  V30 13 2 13 14
M  V30 14 1 14 15
M  V30 15 2 15 16
M  V30 16 1 16 17
M  V30 17 2 17 18
M  V30 18 1 18 19
M  V30 19 2 19 20
M  V30 20 1 20 21
M  V30 21 1 21 22
M  V30 22 1 22 23
M  V30 23 1 23 24
M  V30 24 1 24 25
M  V30 25 1 25 26
M  V30 26 1 21 27
M  V30 27 2 27 28
M  V30 28 1 9 29
M  V30 29 2 29 30
M  V30 30 1 5 31
M  V30 31 1 31 2
M  V30 32 1 30 6
M  V30 33 1 28 11
M  V30 34 1 27 14
M  V30 35 1 20 15
M  V30 36 1 26 22
M  V30 37 1 1 32
M  V30 38 1 2 33 CFG=1
M  V30 39 1 3 34
M  V30 40 1 3 35
M  V30 41 1 4 36
M  V30 42 1 4 37
M  V30 43 1 7 38
M  V30 44 1 8 39
M  V30 45 1 10 40
M  V30 46 1 13 41
M  V30 47 1 16 42
M  V30 48 1 17 43
M  V30 49 1 19 44
M  V30 50 1 22 45 CFG=3
M  V30 51 1 23 46
M  V30 52 1 23 47
M  V30 53 1 24 48
M  V30 54 1 24 49
M  V30 55 1 26 50
M  V30 56 1 26 51
M  V30 57 1 31 52
M  V30 58 1 31 53
M  V30 END BOND
M  V30 END CTAB
M  END
>  <Dataset>  (281) 
ChEMBL_Kinases

>  <Ligand_Instance>  (281) 
nan

>  <PDB_ID>  (281) 
nan

>  <Standardized_SMILES>  (281) 
O[C@@H]1CCN(c2ccc(Nc3ncc4c5ccncc5n([C@@H]5CCOC5)c4n3)nn2)C1

>  <Name>  (281) 
nan

>  <Pocket>  (281) 
nan

>  <ATP_Site>  (281) 
nan

>  <Peripheral>  (281) 
nan

>  <Num_H_Atoms_ProtBoundConf>  (281) 
nan

>  <Num_Resolved_Atoms>  (281) 
nan

>  <Num_Not_Resolved_Atoms>  (281) 
nan

$$$$
CHEMBL3641949
     RDKit          3D

  0  0  0  0  0  0  0  0  0  0999 V3000
M  V30 BEGIN CTAB
M  V30 COUNTS 63 68 0 0 0
M  V30 BEGIN ATOM
M  V30 1 C 2.042175 3.257442 4.943082 0
M  V30 2 N 0.613272 3.084205 4.949349 0
M  V30 3 C 0.267986 2.108586 5.950410 0
M  V30 4 C -0.006831 4.368787 5.158600 0
M  V30 5 C 0.407655 5.268300 4.042557 0
M  V30 6 C -0.428074 5.014408 2.839010 0
M  V30 7 N -1.150521 3.759101 2.883497 0
M  V30 8 C -0.935208 2.652950 2.017461 0
M  V30 9 C -1.604274 1.447042 2.029542 0
M  V30 10 C -1.248900 0.491583 1.102962 0
M  V30 11 C -0.265356 0.649640 0.154258 0
M  V30 12 N 0.132438 -0.301297 -0.814144 0
M  V30 13 C -0.398609 -1.599634 -1.000928 0
M  V30 14 N -1.378614 -2.189506 -0.307013 0
M  V30 15 C -1.867131 -3.410620 -0.493870 0
M  V30 16 C -1.325764 -4.174617 -1.503519 0
M  V30 17 C -1.503655 -5.430113 -2.037559 0
M  V30 18 C -2.408017 -6.412654 -1.649165 0
M  V30 19 C -2.390006 -7.601231 -2.351348 0
M  V30 20 N -1.514052 -7.780621 -3.377674 0
M  V30 21 C -0.650663 -6.804839 -3.726773 0
M  V30 22 C -0.596457 -5.586732 -3.083729 0
M  V30 23 N 0.137540 -4.466970 -3.213811 0
M  V30 24 C 1.175187 -4.259403 -4.188087 0 CFG=2
M  V30 25 C 0.725590 -4.489741 -5.594417 0
M  V30 26 C 1.810591 -5.350265 -6.155809 0
M  V30 27 O 2.577840 -5.851539 -5.135638 0
M  V30 28 C 2.383250 -5.118354 -3.992570 0
M  V30 29 C -0.319027 -3.624857 -2.248670 0
M  V30 30 N 0.094099 -2.381876 -1.969790 0
M  V30 31 N 0.333827 1.850948 0.213376 0
M  V30 32 N 0.023265 2.792955 1.084818 0
M  V30 33 C -2.127553 3.814973 3.954323 0
M  V30 34 C -1.513833 4.259000 5.254992 0
M  V30 35 H 2.362797 4.190594 5.464633 0
M  V30 36 H 2.470273 3.233612 3.917152 0
M  V30 37 H 2.534447 2.411887 5.478379 0
M  V30 38 H -0.033546 2.580917 6.894713 0
M  V30 39 H 1.122089 1.405767 6.161625 0
M  V30 40 H -0.592478 1.507330 5.547158 0
M  V30 41 H 0.342539 4.738710 6.146521 0
M  V30 42 H 0.345077 6.346966 4.297610 0
M  V30 43 H 1.464814 5.054043 3.800309 0
M  V30 44 H 0.209293 5.066239 1.927640 0
M  V30 45 H -1.177577 5.830191 2.715705 0
M  V30 46 H -2.368745 1.324782 2.767209 0
M  V30 47 H -1.795679 -0.430216 1.149592 0
M  V30 48 H 0.901763 -0.007023 -1.457751 0
M  V30 49 H -2.650703 -3.824977 0.093909 0
M  V30 50 H -3.084202 -6.234257 -0.834028 0
M  V30 51 H -3.069463 -8.392731 -2.090244 0
M  V30 52 H 0.024145 -7.000305 -4.550358 0
M  V30 53 H 1.507030 -3.195717 -4.128841 0
M  V30 54 H -0.295767 -4.900354 -5.691824 0
M  V30 55 H 0.705644 -3.546677 -6.212881 0
M  V30 56 H 2.500857 -4.770152 -6.826737 0
M  V30 57 H 1.432934 -6.169354 -6.801319 0
M  V30 58 H 2.266511 -5.757755 -3.079775 0
M  V30 59 H 3.313658 -4.521034 -3.818848 0
M  V30 60 H -2.898562 4.578292 3.692678 0
M  V30 61 H -2.640679 2.843941 4.091897 0
M  V30 62 H -1.738229 3.498701 6.021043 0
M  V30 63 H -1.905878 5.220963 5.611400 0
M  V30 END ATOM
M  V30 BEGIN BOND
M  V30 1 1 1 2
M  V30 2 1 2 3
M  V30 3 1 2 4
M  V30 4 1 4 5
M  V30 5 1 5 6
M  V30 6 1 6 7
M  V30 7 1 7 8
M  V30 8 2 8 9
M  V30 9 1 9 10
M  V30 10 2 10 11
M  V30 11 1 11 12
M  V30 12 1 12 13
M  V30 13 2 13 14
M  V30 14 1 14 15
M  V30 15 2 15 16
M  V30 16 1 16 17
M  V30 17 2 17 18
M  V30 18 1 18 19
M  V30 19 2 19 20
M  V30 20 1 20 21
M  V30 21 2 21 22
M  V30 22 1 22 23
M  V30 23 1 23 24
M  V30 24 1 24 25
M  V30 25 1 25 26
M  V30 26 1 26 27
M  V30 27 1 27 28
M  V30 28 1 23 29
M  V30 29 2 29 30
M  V30 30 1 11 31
M  V30 31 2 31 32
M  V30 32 1 7 33
M  V30 33 1 33 34
M  V30 34 1 34 4
M  V30 35 1 32 8
M  V30 36 1 30 13
M  V30 37 1 29 16
M  V30 38 1 22 17
M  V30 39 1 28 24
M  V30 40 1 1 35
M  V30 41 1 1 36
M  V30 42 1 1 37
M  V30 43 1 3 38
M  V30 44 1 3 39
M  V30 45 1 3 40
M  V30 46 1 4 41
M  V30 47 1 5 42
M  V30 48 1 5 43
M  V30 49 1 6 44
M  V30 50 1 6 45
M  V30 51 1 9 46
M  V30 52 1 10 47
M  V30 53 1 12 48
M  V30 54 1 15 49
M  V30 55 1 18 50
M  V30 56 1 19 51
M  V30 57 1 21 52
M  V30 58 1 24 53 CFG=3
M  V30 59 1 25 54
M  V30 60 1 25 55
M  V30 61 1 26 56
M  V30 62 1 26 57
M  V30 63 1 28 58
M  V30 64 1 28 59
M  V30 65 1 33 60
M  V30 66 1 33 61
M  V30 67 1 34 62
M  V30 68 1 34 63
M  V30 END BOND
M  V30 END CTAB
M  END
>  <Dataset>  (282) 
ChEMBL_Kinases

>  <Ligand_Instance>  (282) 
nan

>  <PDB_ID>  (282) 
nan

>  <Standardized_SMILES>  (282) 
CN(C)C1CCN(c2ccc(Nc3ncc4c5ccncc5n([C@@H]5CCOC5)c4n3)nn2)CC1

>  <Name>  (282) 
nan

>  <Pocket>  (282) 
nan

>  <ATP_Site>  (282) 
nan

>  <Peripheral>  (282) 
nan

>  <Num_H_Atoms_ProtBoundConf>  (282) 
nan

>  <Num_Resolved_Atoms>  (282) 
nan

>  <Num_Not_Resolved_Atoms>  (282) 
nan

$$$$
CHEMBL3641948
     RDKit          3D

  0  0  0  0  0  0  0  0  0  0999 V3000
M  V30 BEGIN CTAB
M  V30 COUNTS 64 69 0 0 0
M  V30 BEGIN ATOM
M  V30 1 C 3.420566 4.588667 4.975626 0
M  V30 2 N 2.057440 4.788037 5.381706 0
M  V30 3 C 1.783411 3.903918 6.506877 0
M  V30 4 C 1.188319 4.455603 4.295163 0
M  V30 5 C -0.263880 4.625236 4.592437 0
M  V30 6 C -1.100650 4.028190 3.485741 0
M  V30 7 N -0.312655 3.886059 2.280997 0
M  V30 8 C -0.277309 2.717397 1.475369 0
M  V30 9 C -1.080284 1.626544 1.710064 0
M  V30 10 C -0.963524 0.538663 0.870895 0
M  V30 11 C -0.104749 0.434883 -0.200575 0
M  V30 12 N 0.031547 -0.673515 -1.073230 0
M  V30 13 C -0.672988 -1.902256 -1.037005 0
M  V30 14 N -1.618918 -2.247733 -0.156316 0
M  V30 15 C -2.286389 -3.407469 -0.116353 0
M  V30 16 C -1.979107 -4.350401 -1.072314 0
M  V30 17 C -2.384105 -5.609288 -1.400098 0
M  V30 18 C -3.344410 -6.368827 -0.765030 0
M  V30 19 C -3.602293 -7.631033 -1.266160 0
M  V30 20 N -2.911350 -8.054950 -2.338926 0
M  V30 21 C -1.976661 -7.297483 -2.945299 0
M  V30 22 C -1.655107 -6.025728 -2.512323 0
M  V30 23 N -0.803938 -5.031667 -2.871365 0
M  V30 24 C 0.103581 -5.142099 -3.997316 0 CFG=2
M  V30 25 C -0.557079 -5.458637 -5.284894 0
M  V30 26 C 0.289404 -6.582243 -5.843232 0
M  V30 27 O 1.041051 -7.103505 -4.813044 0
M  V30 28 C 1.170235 -6.175357 -3.813064 0
M  V30 29 C -1.009030 -4.022480 -1.992253 0
M  V30 30 N -0.392722 -2.835009 -1.955138 0
M  V30 31 N 0.653962 1.530367 -0.380832 0
M  V30 32 C 0.580413 2.615459 0.406113 0
M  V30 33 C 0.426809 5.098335 2.011136 0
M  V30 34 C 1.493962 5.324417 3.086314 0
M  V30 35 H 3.963172 5.561622 4.790803 0
M  V30 36 H 3.455524 3.942143 4.073971 0
M  V30 37 H 4.032756 4.079256 5.741725 0
M  V30 38 H 1.268672 4.455745 7.309382 0
M  V30 39 H 2.733628 3.536534 6.943578 0
M  V30 40 H 1.164431 3.034783 6.209580 0
M  V30 41 H 1.372098 3.387245 4.015745 0
M  V30 42 H -0.492720 5.717141 4.718233 0
M  V30 43 H -0.534378 4.181486 5.587324 0
M  V30 44 H -1.482345 3.059042 3.886383 0
M  V30 45 H -1.987914 4.677524 3.271567 0
M  V30 46 H -1.788693 1.609461 2.525436 0
M  V30 47 H -1.612485 -0.293423 1.092252 0
M  V30 48 H 0.749646 -0.557412 -1.840762 0
M  V30 49 H -3.038771 -3.625226 0.620960 0
M  V30 50 H -3.890084 -6.018556 0.091167 0
M  V30 51 H -4.355327 -8.267528 -0.793897 0
M  V30 52 H -1.450622 -7.682708 -3.802492 0
M  V30 53 H 0.624443 -4.147023 -4.115979 0
M  V30 54 H -0.473374 -4.634417 -6.028949 0
M  V30 55 H -1.631830 -5.703634 -5.205713 0
M  V30 56 H -0.392928 -7.422314 -6.166232 0
M  V30 57 H 0.926592 -6.297325 -6.683046 0
M  V30 58 H 2.193284 -5.727244 -3.759848 0
M  V30 59 H 1.065520 -6.718658 -2.837809 0
M  V30 60 H 1.266346 3.394223 0.108967 0
M  V30 61 H -0.300199 5.937657 2.020576 0
M  V30 62 H 0.945642 5.132909 1.055041 0
M  V30 63 H 2.516225 5.169783 2.686391 0
M  V30 64 H 1.420608 6.391444 3.375685 0
M  V30 END ATOM
M  V30 BEGIN BOND
M  V30 1 1 1 2
M  V30 2 1 2 3
M  V30 3 1 2 4
M  V30 4 1 4 5
M  V30 5 1 5 6
M  V30 6 1 6 7
M  V30 7 1 7 8
M  V30 8 2 8 9
M  V30 9 1 9 10
M  V30 10 2 10 11
M  V30 11 1 11 12
M  V30 12 1 12 13
M  V30 13 2 13 14
M  V30 14 1 14 15
M  V30 15 2 15 16
M  V30 16 1 16 17
M  V30 17 2 17 18
M  V30 18 1 18 19
M  V30 19 2 19 20
M  V30 20 1 20 21
M  V30 21 2 21 22
M  V30 22 1 22 23
M  V30 23 1 23 24
M  V30 24 1 24 25
M  V30 25 1 25 26
M  V30 26 1 26 27
M  V30 27 1 27 28
M  V30 28 1 23 29
M  V30 29 2 29 30
M  V30 30 1 11 31
M  V30 31 2 31 32
M  V30 32 1 7 33
M  V30 33 1 33 34
M  V30 34 1 34 4
M  V30 35 1 32 8
M  V30 36 1 30 13
M  V30 37 1 29 16
M  V30 38 1 22 17
M  V30 39 1 28 24
M  V30 40 1 1 35
M  V30 41 1 1 36
M  V30 42 1 1 37
M  V30 43 1 3 38
M  V30 44 1 3 39
M  V30 45 1 3 40
M  V30 46 1 4 41
M  V30 47 1 5 42
M  V30 48 1 5 43
M  V30 49 1 6 44
M  V30 50 1 6 45
M  V30 51 1 9 46
M  V30 52 1 10 47
M  V30 53 1 12 48
M  V30 54 1 15 49
M  V30 55 1 18 50
M  V30 56 1 19 51
M  V30 57 1 21 52
M  V30 58 1 24 53 CFG=3
M  V30 59 1 25 54
M  V30 60 1 25 55
M  V30 61 1 26 56
M  V30 62 1 26 57
M  V30 63 1 28 58
M  V30 64 1 28 59
M  V30 65 1 32 60
M  V30 66 1 33 61
M  V30 67 1 33 62
M  V30 68 1 34 63
M  V30 69 1 34 64
M  V30 END BOND
M  V30 END CTAB
M  END
>  <Dataset>  (283) 
ChEMBL_Kinases

>  <Ligand_Instance>  (283) 
nan

>  <PDB_ID>  (283) 
nan

>  <Standardized_SMILES>  (283) 
CN(C)C1CCN(c2ccc(Nc3ncc4c5ccncc5n([C@@H]5CCOC5)c4n3)nc2)CC1

>  <Name>  (283) 
nan

>  <Pocket>  (283) 
nan

>  <ATP_Site>  (283) 
nan

>  <Peripheral>  (283) 
nan

>  <Num_H_Atoms_ProtBoundConf>  (283) 
nan

>  <Num_Resolved_Atoms>  (283) 
nan

>  <Num_Not_Resolved_Atoms>  (283) 
nan

$$$$
CHEMBL3641947
     RDKit          3D

  0  0  0  0  0  0  0  0  0  0999 V3000
M  V30 BEGIN CTAB
M  V30 COUNTS 52 56 0 0 0
M  V30 BEGIN ATOM
M  V30 1 C 1.424875 -1.620631 1.186606 0
M  V30 2 C 2.773425 -1.224373 1.749442 0 CFG=2
M  V30 3 C 2.676247 -1.493969 3.256743 0
M  V30 4 O 2.409393 -2.844773 3.464396 0
M  V30 5 N 3.064964 0.168450 1.507949 0
M  V30 6 C 4.245895 0.725108 1.767950 0
M  V30 7 C 5.468269 0.308217 2.278786 0
M  V30 8 N 6.518715 1.150087 2.425701 0
M  V30 9 C 6.449630 2.451536 2.085838 0
M  V30 10 C 5.264337 2.940656 1.569846 0
M  V30 11 C 4.184149 2.065615 1.421050 0
M  V30 12 C 2.899229 2.235123 0.949490 0
M  V30 13 C 2.302472 3.381705 0.470689 0
M  V30 14 N 1.023972 3.297612 0.063061 0
M  V30 15 C 0.308600 2.158934 0.100592 0
M  V30 16 N -1.042021 2.132107 -0.345053 0
M  V30 17 C -1.852250 0.962996 -0.331849 0
M  V30 18 C -3.156623 0.973348 -0.771084 0
M  V30 19 C -3.967144 -0.142306 -0.770933 0
M  V30 20 C -3.374461 -1.292507 -0.292579 0
M  V30 21 N -4.126910 -2.498304 -0.251308 0
M  V30 22 C -5.503245 -2.703894 -0.663183 0
M  V30 23 C -5.314489 -3.919274 -1.577203 0
M  V30 24 C -4.167039 -4.672633 -0.937651 0 CFG=1
M  V30 25 O -3.142113 -4.767916 -1.900801 0
M  V30 26 C -3.669506 -3.794715 0.218188 0
M  V30 27 N -2.099914 -1.301996 0.136425 0
M  V30 28 N -1.353786 -0.201012 0.118318 0
M  V30 29 N 0.911342 1.051058 0.571978 0
M  V30 30 C 2.193243 1.057733 0.999580 0
M  V30 31 H 0.667402 -1.096035 1.836906 0
M  V30 32 H 1.287503 -1.280418 0.143052 0
M  V30 33 H 1.231327 -2.702063 1.319132 0
M  V30 34 H 3.605390 -1.846583 1.365191 0
M  V30 35 H 1.809017 -0.939237 3.690433 0
M  V30 36 H 3.568201 -1.166826 3.805368 0
M  V30 37 H 2.948569 -3.430217 2.856511 0
M  V30 38 H 5.577255 -0.728275 2.567464 0
M  V30 39 H 7.328769 3.076492 2.228238 0
M  V30 40 H 5.178743 3.972476 1.290180 0
M  V30 41 H 2.849811 4.314849 0.426907 0
M  V30 42 H -1.471086 3.013409 -0.703228 0
M  V30 43 H -3.531121 1.929691 -1.129257 0
M  V30 44 H -4.965041 -0.074103 -1.121739 0
M  V30 45 H -6.116174 -3.015473 0.202776 0
M  V30 46 H -5.949434 -1.858329 -1.200175 0
M  V30 47 H -5.005977 -3.464958 -2.564113 0
M  V30 48 H -6.218912 -4.527961 -1.663882 0
M  V30 49 H -4.444038 -5.676611 -0.571826 0
M  V30 50 H -3.611637 -5.007076 -2.751010 0
M  V30 51 H -2.575504 -3.874171 0.288964 0
M  V30 52 H -4.147976 -4.097106 1.166813 0
M  V30 END ATOM
M  V30 BEGIN BOND
M  V30 1 1 1 2
M  V30 2 1 2 3
M  V30 3 1 3 4
M  V30 4 1 2 5
M  V30 5 1 5 6
M  V30 6 2 6 7
M  V30 7 1 7 8
M  V30 8 2 8 9
M  V30 9 1 9 10
M  V30 10 2 10 11
M  V30 11 1 11 12
M  V30 12 2 12 13
M  V30 13 1 13 14
M  V30 14 2 14 15
M  V30 15 1 15 16
M  V30 16 1 16 17
M  V30 17 2 17 18
M  V30 18 1 18 19
M  V30 19 2 19 20
M  V30 20 1 20 21
M  V30 21 1 21 22
M  V30 22 1 22 23
M  V30 23 1 23 24
M  V30 24 1 24 25
M  V30 25 1 24 26
M  V30 26 1 20 27
M  V30 27 2 27 28
M  V30 28 1 15 29
M  V30 29 2 29 30
M  V30 30 1 30 5
M  V30 31 1 11 6
M  V30 32 1 30 12
M  V30 33 1 28 17
M  V30 34 1 26 21
M  V30 35 1 1 31
M  V30 36 1 1 32
M  V30 37 1 1 33
M  V30 38 1 2 34 CFG=3
M  V30 39 1 3 35
M  V30 40 1 3 36
M  V30 41 1 4 37
M  V30 42 1 7 38
M  V30 43 1 9 39
M  V30 44 1 10 40
M  V30 45 1 13 41
M  V30 46 1 16 42
M  V30 47 1 18 43
M  V30 48 1 19 44
M  V30 49 1 22 45
M  V30 50 1 22 46
M  V30 51 1 23 47
M  V30 52 1 23 48
M  V30 53 1 24 49 CFG=1
M  V30 54 1 25 50
M  V30 55 1 26 51
M  V30 56 1 26 52
M  V30 END BOND
M  V30 END CTAB
M  END
>  <Dataset>  (284) 
ChEMBL_Kinases

>  <Ligand_Instance>  (284) 
nan

>  <PDB_ID>  (284) 
nan

>  <Standardized_SMILES>  (284) 
C[C@H](CO)n1c2cnccc2c2cnc(Nc3ccc(N4CC[C@@H](O)C4)nn3)nc21

>  <Name>  (284) 
nan

>  <Pocket>  (284) 
nan

>  <ATP_Site>  (284) 
nan

>  <Peripheral>  (284) 
nan

>  <Num_H_Atoms_ProtBoundConf>  (284) 
nan

>  <Num_Resolved_Atoms>  (284) 
nan

>  <Num_Not_Resolved_Atoms>  (284) 
nan

$$$$
CHEMBL3641946
     RDKit          3D

  0  0  0  0  0  0  0  0  0  0999 V3000
M  V30 BEGIN CTAB
M  V30 COUNTS 59 63 0 0 0
M  V30 BEGIN ATOM
M  V30 1 C 2.863022 -1.113781 4.193342 0
M  V30 2 C 2.797095 -0.660069 2.779486 0 CFG=2
M  V30 3 C 3.565831 -1.547225 1.825111 0
M  V30 4 O 4.905138 -1.642612 2.097261 0
M  V30 5 N 3.193183 0.740614 2.592136 0
M  V30 6 C 4.259964 1.378002 3.101946 0
M  V30 7 C 5.277770 0.984977 3.912885 0
M  V30 8 N 6.239539 1.822133 4.287343 0
M  V30 9 C 6.278976 3.111869 3.895634 0
M  V30 10 C 5.278693 3.584085 3.070753 0
M  V30 11 C 4.291654 2.696617 2.695641 0
M  V30 12 C 3.186911 2.886180 1.892117 0
M  V30 13 C 2.635173 3.930988 1.182589 0
M  V30 14 N 1.506655 3.743900 0.485176 0
M  V30 15 C 0.845064 2.576268 0.419488 0
M  V30 16 N -0.343919 2.465136 -0.343308 0
M  V30 17 C -1.162729 1.324268 -0.520175 0
M  V30 18 C -0.960592 0.077397 0.024601 0
M  V30 19 C -1.787477 -1.003432 -0.177407 0
M  V30 20 C -2.891913 -0.834902 -0.975817 0
M  V30 21 N -3.845802 -1.840261 -1.288261 0
M  V30 22 C -5.021920 -1.698214 -2.125009 0
M  V30 23 C -4.870887 -2.538823 -3.392090 0
M  V30 24 N -3.809653 -3.514031 -3.238652 0
M  V30 25 C -3.887300 -4.212163 -1.976538 0
M  V30 26 C -5.105536 -5.087060 -1.864587 0
M  V30 27 C -2.672075 -5.129143 -1.914988 0
M  V30 28 C -3.816970 -3.211303 -0.820879 0
M  V30 29 N -3.071166 0.376499 -1.493564 0
M  V30 30 N -2.263429 1.397172 -1.284661 0
M  V30 31 N 1.425482 1.598219 1.126631 0
M  V30 32 C 2.535662 1.678062 1.846458 0
M  V30 33 H 3.002881 -0.191681 4.830707 0
M  V30 34 H 1.894713 -1.517269 4.501764 0
M  V30 35 H 3.715652 -1.782437 4.417415 0
M  V30 36 H 1.741144 -0.729041 2.444423 0
M  V30 37 H 3.465469 -1.064723 0.816056 0
M  V30 38 H 3.106474 -2.548064 1.725578 0
M  V30 39 H 5.326144 -2.476454 1.838938 0
M  V30 40 H 5.329381 -0.019297 4.273025 0
M  V30 41 H 7.044884 3.831724 4.176291 0
M  V30 42 H 5.223811 4.603591 2.703268 0
M  V30 43 H 3.123659 4.895242 1.198143 0
M  V30 44 H -0.655022 3.338412 -0.838645 0
M  V30 45 H -0.102825 -0.086401 0.655745 0
M  V30 46 H -1.612910 -1.972817 0.257982 0
M  V30 47 H -5.225484 -0.668274 -2.441843 0
M  V30 48 H -5.950693 -2.067236 -1.639327 0
M  V30 49 H -5.790258 -3.052675 -3.681376 0
M  V30 50 H -4.562821 -1.883980 -4.240150 0
M  V30 51 H -2.899315 -3.022554 -3.273655 0
M  V30 52 H -4.929624 -5.984362 -1.235223 0
M  V30 53 H -5.961693 -4.553919 -1.408504 0
M  V30 54 H -5.348477 -5.493776 -2.882124 0
M  V30 55 H -1.779821 -4.612000 -1.556524 0
M  V30 56 H -2.458362 -5.466720 -2.953353 0
M  V30 57 H -2.914734 -6.053678 -1.336335 0
M  V30 58 H -4.730663 -3.335520 -0.182509 0
M  V30 59 H -2.957085 -3.440398 -0.172881 0
M  V30 END ATOM
M  V30 BEGIN BOND
M  V30 1 1 1 2
M  V30 2 1 2 3
M  V30 3 1 3 4
M  V30 4 1 2 5
M  V30 5 1 5 6
M  V30 6 2 6 7
M  V30 7 1 7 8
M  V30 8 2 8 9
M  V30 9 1 9 10
M  V30 10 2 10 11
M  V30 11 1 11 12
M  V30 12 2 12 13
M  V30 13 1 13 14
M  V30 14 2 14 15
M  V30 15 1 15 16
M  V30 16 1 16 17
M  V30 17 2 17 18
M  V30 18 1 18 19
M  V30 19 2 19 20
M  V30 20 1 20 21
M  V30 21 1 21 22
M  V30 22 1 22 23
M  V30 23 1 23 24
M  V30 24 1 24 25
M  V30 25 1 25 26
M  V30 26 1 25 27
M  V30 27 1 25 28
M  V30 28 1 20 29
M  V30 29 2 29 30
M  V30 30 1 15 31
M  V30 31 2 31 32
M  V30 32 1 32 5
M  V30 33 1 11 6
M  V30 34 1 32 12
M  V30 35 1 30 17
M  V30 36 1 28 21
M  V30 37 1 1 33
M  V30 38 1 1 34
M  V30 39 1 1 35
M  V30 40 1 2 36 CFG=3
M  V30 41 1 3 37
M  V30 42 1 3 38
M  V30 43 1 4 39
M  V30 44 1 7 40
M  V30 45 1 9 41
M  V30 46 1 10 42
M  V30 47 1 13 43
M  V30 48 1 16 44
M  V30 49 1 18 45
M  V30 50 1 19 46
M  V30 51 1 22 47
M  V30 52 1 22 48
M  V30 53 1 23 49
M  V30 54 1 23 50
M  V30 55 1 24 51
M  V30 56 1 26 52
M  V30 57 1 26 53
M  V30 58 1 26 54
M  V30 59 1 27 55
M  V30 60 1 27 56
M  V30 61 1 27 57
M  V30 62 1 28 58
M  V30 63 1 28 59
M  V30 END BOND
M  V30 END CTAB
M  END
>  <Dataset>  (285) 
ChEMBL_Kinases

>  <Ligand_Instance>  (285) 
nan

>  <PDB_ID>  (285) 
nan

>  <Standardized_SMILES>  (285) 
C[C@H](CO)n1c2cnccc2c2cnc(Nc3ccc(N4CCNC(C)(C)C4)nn3)nc21

>  <Name>  (285) 
nan

>  <Pocket>  (285) 
nan

>  <ATP_Site>  (285) 
nan

>  <Peripheral>  (285) 
nan

>  <Num_H_Atoms_ProtBoundConf>  (285) 
nan

>  <Num_Resolved_Atoms>  (285) 
nan

>  <Num_Not_Resolved_Atoms>  (285) 
nan

$$$$
CHEMBL3641945
     RDKit          3D

  0  0  0  0  0  0  0  0  0  0999 V3000
M  V30 BEGIN CTAB
M  V30 COUNTS 56 60 0 0 0
M  V30 BEGIN ATOM
M  V30 1 C 2.514295 -1.430345 2.011157 0
M  V30 2 C 3.507788 -0.420169 2.547135 0 CFG=2
M  V30 3 C 3.183249 -0.018580 3.964458 0
M  V30 4 O 1.933753 0.556199 4.093146 0
M  V30 5 N 3.489471 0.728054 1.665706 0
M  V30 6 C 4.528060 1.298734 1.033007 0
M  V30 7 C 5.882889 1.026420 0.996004 0
M  V30 8 N 6.714261 1.786499 0.255377 0
M  V30 9 C 6.266198 2.831967 -0.472110 0
M  V30 10 C 4.921162 3.124622 -0.452535 0
M  V30 11 C 4.030484 2.358344 0.303625 0
M  V30 12 C 2.673461 2.386033 0.531401 0
M  V30 13 C 1.718627 3.250276 0.036189 0
M  V30 14 N 0.417264 3.110445 0.382650 0
M  V30 15 C 0.082849 2.110121 1.219368 0
M  V30 16 N -1.204017 1.725459 1.738306 0
M  V30 17 C -2.005672 0.712257 1.184473 0
M  V30 18 C -3.268141 0.324089 1.658390 0
M  V30 19 C -3.897103 -0.703823 0.986468 0
M  V30 20 C -3.349776 -1.347045 -0.101354 0
M  V30 21 N -3.964755 -2.405553 -0.814615 0
M  V30 22 C -5.262223 -2.963413 -0.618930 0
M  V30 23 C -5.647793 -3.771051 -1.842015 0
M  V30 24 N -4.743931 -4.840680 -2.149951 0
M  V30 25 C -3.435233 -4.547047 -1.629301 0 CFG=1
M  V30 26 C -2.335789 -5.364522 -2.209946 0
M  V30 27 C -3.230673 -3.046955 -1.888197 0
M  V30 28 N -2.145288 -0.894938 -0.464940 0
M  V30 29 N -1.486716 0.080213 0.127891 0
M  V30 30 N 1.021808 1.280367 1.690775 0
M  V30 31 C 2.327994 1.362403 1.387713 0
M  V30 32 H 2.643756 -1.490556 0.921027 0
M  V30 33 H 2.618298 -2.417988 2.501458 0
M  V30 34 H 1.505669 -1.003960 2.213928 0
M  V30 35 H 4.518670 -0.862658 2.538972 0
M  V30 36 H 3.209696 -0.920952 4.608768 0
M  V30 37 H 3.934368 0.721470 4.318377 0
M  V30 38 H 1.314948 -0.013705 4.607244 0
M  V30 39 H 6.275940 0.192787 1.568398 0
M  V30 40 H 6.914631 3.451058 -1.069497 0
M  V30 41 H 4.536782 3.970436 -1.036196 0
M  V30 42 H 1.921561 4.071739 -0.638348 0
M  V30 43 H -1.416613 2.332681 2.584309 0
M  V30 44 H -3.653916 0.847484 2.501577 0
M  V30 45 H -4.886358 -1.027328 1.335685 0
M  V30 46 H -5.399606 -3.525908 0.325256 0
M  V30 47 H -6.020730 -2.129549 -0.575736 0
M  V30 48 H -5.742406 -3.060217 -2.687655 0
M  V30 49 H -6.691109 -4.174223 -1.696981 0
M  V30 50 H -4.730228 -5.021648 -3.193956 0
M  V30 51 H -3.484557 -4.725435 -0.515481 0
M  V30 52 H -1.741752 -4.839190 -2.985233 0
M  V30 53 H -1.608666 -5.607787 -1.399601 0
M  V30 54 H -2.752339 -6.323487 -2.576539 0
M  V30 55 H -2.151770 -2.787657 -1.860177 0
M  V30 56 H -3.727265 -2.759655 -2.836100 0
M  V30 END ATOM
M  V30 BEGIN BOND
M  V30 1 1 1 2
M  V30 2 1 2 3
M  V30 3 1 3 4
M  V30 4 1 2 5
M  V30 5 1 5 6
M  V30 6 2 6 7
M  V30 7 1 7 8
M  V30 8 2 8 9
M  V30 9 1 9 10
M  V30 10 2 10 11
M  V30 11 1 11 12
M  V30 12 2 12 13
M  V30 13 1 13 14
M  V30 14 2 14 15
M  V30 15 1 15 16
M  V30 16 1 16 17
M  V30 17 2 17 18
M  V30 18 1 18 19
M  V30 19 2 19 20
M  V30 20 1 20 21
M  V30 21 1 21 22
M  V30 22 1 22 23
M  V30 23 1 23 24
M  V30 24 1 24 25
M  V30 25 1 25 26
M  V30 26 1 25 27
M  V30 27 1 20 28
M  V30 28 2 28 29
M  V30 29 1 15 30
M  V30 30 2 30 31
M  V30 31 1 31 5
M  V30 32 1 11 6
M  V30 33 1 31 12
M  V30 34 1 29 17
M  V30 35 1 27 21
M  V30 36 1 1 32
M  V30 37 1 1 33
M  V30 38 1 1 34
M  V30 39 1 2 35 CFG=1
M  V30 40 1 3 36
M  V30 41 1 3 37
M  V30 42 1 4 38
M  V30 43 1 7 39
M  V30 44 1 9 40
M  V30 45 1 10 41
M  V30 46 1 13 42
M  V30 47 1 16 43
M  V30 48 1 18 44
M  V30 49 1 19 45
M  V30 50 1 22 46
M  V30 51 1 22 47
M  V30 52 1 23 48
M  V30 53 1 23 49
M  V30 54 1 24 50
M  V30 55 1 25 51 CFG=1
M  V30 56 1 26 52
M  V30 57 1 26 53
M  V30 58 1 26 54
M  V30 59 1 27 55
M  V30 60 1 27 56
M  V30 END BOND
M  V30 END CTAB
M  END
>  <Dataset>  (286) 
ChEMBL_Kinases

>  <Ligand_Instance>  (286) 
nan

>  <PDB_ID>  (286) 
nan

>  <Standardized_SMILES>  (286) 
C[C@H](CO)n1c2cnccc2c2cnc(Nc3ccc(N4CCN[C@@H](C)C4)nn3)nc21

>  <Name>  (286) 
nan

>  <Pocket>  (286) 
nan

>  <ATP_Site>  (286) 
nan

>  <Peripheral>  (286) 
nan

>  <Num_H_Atoms_ProtBoundConf>  (286) 
nan

>  <Num_Resolved_Atoms>  (286) 
nan

>  <Num_Not_Resolved_Atoms>  (286) 
nan

$$$$
CHEMBL3641944
     RDKit          3D

  0  0  0  0  0  0  0  0  0  0999 V3000
M  V30 BEGIN CTAB
M  V30 COUNTS 59 63 0 0 0
M  V30 BEGIN ATOM
M  V30 1 C 3.308540 -0.214258 4.983034 0
M  V30 2 N 3.275011 -1.292289 4.077700 0
M  V30 3 C 4.375207 -2.146045 3.943591 0
M  V30 4 C 5.663549 -1.561254 3.463364 0
M  V30 5 C 5.679488 -1.323824 1.944163 0
M  V30 6 N 4.358238 -1.494720 1.401165 0
M  V30 7 C 3.480739 -0.596924 0.773530 0
M  V30 8 C 3.787876 0.594808 0.186790 0
M  V30 9 C 2.801645 1.379620 -0.370192 0
M  V30 10 C 1.482149 0.990064 -0.352180 0
M  V30 11 N 0.366246 1.674309 -0.900495 0
M  V30 12 C -0.991560 1.278452 -0.830051 0
M  V30 13 N -1.666667 2.159296 -0.034075 0
M  V30 14 C -2.996586 2.008814 0.210081 0
M  V30 15 C -3.706465 0.967870 -0.333419 0
M  V30 16 C -4.998088 0.552113 -0.281585 0
M  V30 17 C -6.123583 1.035105 0.352206 0
M  V30 18 C -7.318259 0.355657 0.192536 0
M  V30 19 N -7.402963 -0.769561 -0.571229 0
M  V30 20 C -6.280618 -1.229933 -1.188603 0
M  V30 21 C -5.064902 -0.590449 -1.061854 0
M  V30 22 N -3.830254 -0.867530 -1.581668 0
M  V30 23 C -3.587150 -2.009044 -2.427597 0 CFG=2
M  V30 24 C -2.178162 -2.510066 -2.334685 0
M  V30 25 C -4.034501 -1.790440 -3.865175 0
M  V30 26 O -3.383762 -0.730991 -4.455312 0
M  V30 27 C -3.002154 0.090504 -1.133255 0
M  V30 28 N -1.695122 0.243614 -1.370512 0
M  V30 29 N 1.218424 -0.200616 0.241344 0
M  V30 30 N 2.165028 -0.953396 0.774693 0
M  V30 31 C 3.989068 -2.905439 1.593329 0
M  V30 32 C 4.004412 -3.296388 3.033495 0
M  V30 33 H 4.280731 0.231832 5.180495 0
M  V30 34 H 2.761693 -0.536527 5.920122 0
M  V30 35 H 2.655932 0.604479 4.584053 0
M  V30 36 H 2.367662 -1.798520 4.067098 0
M  V30 37 H 4.585136 -2.623910 4.940218 0
M  V30 38 H 6.458071 -2.329671 3.654388 0
M  V30 39 H 5.981756 -0.666779 4.030224 0
M  V30 40 H 6.111655 -0.312324 1.800228 0
M  V30 41 H 6.351742 -2.031121 1.418079 0
M  V30 42 H 4.807754 0.890131 0.177072 0
M  V30 43 H 2.992462 2.325440 -0.843670 0
M  V30 44 H 0.564288 2.571475 -1.412457 0
M  V30 45 H -3.562894 2.693034 0.840709 0
M  V30 46 H -6.046372 1.943334 0.966019 0
M  V30 47 H -8.205671 0.753520 0.702764 0
M  V30 48 H -6.354259 -2.110621 -1.784319 0
M  V30 49 H -4.254413 -2.842679 -2.052324 0
M  V30 50 H -1.527347 -2.148226 -3.151654 0
M  V30 51 H -1.788151 -2.242253 -1.320954 0
M  V30 52 H -2.187515 -3.609515 -2.357243 0
M  V30 53 H -5.115686 -1.518874 -3.832543 0
M  V30 54 H -3.947459 -2.742872 -4.405792 0
M  V30 55 H -3.432813 0.039333 -3.823241 0
M  V30 56 H 4.705004 -3.525406 0.977067 0
M  V30 57 H 3.007170 -3.058721 1.103514 0
M  V30 58 H 4.762074 -4.104056 3.192506 0
M  V30 59 H 3.003497 -3.712499 3.360055 0
M  V30 END ATOM
M  V30 BEGIN BOND
M  V30 1 1 1 2
M  V30 2 1 2 3
M  V30 3 1 3 4
M  V30 4 1 4 5
M  V30 5 1 5 6
M  V30 6 1 6 7
M  V30 7 2 7 8
M  V30 8 1 8 9
M  V30 9 2 9 10
M  V30 10 1 10 11
M  V30 11 1 11 12
M  V30 12 2 12 13
M  V30 13 1 13 14
M  V30 14 2 14 15
M  V30 15 1 15 16
M  V30 16 2 16 17
M  V30 17 1 17 18
M  V30 18 2 18 19
M  V30 19 1 19 20
M  V30 20 2 20 21
M  V30 21 1 21 22
M  V30 22 1 22 23
M  V30 23 1 23 24
M  V30 24 1 23 25
M  V30 25 1 25 26
M  V30 26 1 22 27
M  V30 27 2 27 28
M  V30 28 1 10 29
M  V30 29 2 29 30
M  V30 30 1 6 31
M  V30 31 1 31 32
M  V30 32 1 32 3
M  V30 33 1 30 7
M  V30 34 1 28 12
M  V30 35 1 27 15
M  V30 36 1 21 16
M  V30 37 1 1 33
M  V30 38 1 1 34
M  V30 39 1 1 35
M  V30 40 1 2 36
M  V30 41 1 3 37
M  V30 42 1 4 38
M  V30 43 1 4 39
M  V30 44 1 5 40
M  V30 45 1 5 41
M  V30 46 1 8 42
M  V30 47 1 9 43
M  V30 48 1 11 44
M  V30 49 1 14 45
M  V30 50 1 17 46
M  V30 51 1 18 47
M  V30 52 1 20 48
M  V30 53 1 23 49 CFG=1
M  V30 54 1 24 50
M  V30 55 1 24 51
M  V30 56 1 24 52
M  V30 57 1 25 53
M  V30 58 1 25 54
M  V30 59 1 26 55
M  V30 60 1 31 56
M  V30 61 1 31 57
M  V30 62 1 32 58
M  V30 63 1 32 59
M  V30 END BOND
M  V30 END CTAB
M  END
>  <Dataset>  (287) 
ChEMBL_Kinases

>  <Ligand_Instance>  (287) 
nan

>  <PDB_ID>  (287) 
nan

>  <Standardized_SMILES>  (287) 
CNC1CCN(c2ccc(Nc3ncc4c5ccncc5n([C@H](C)CO)c4n3)nn2)CC1

>  <Name>  (287) 
nan

>  <Pocket>  (287) 
nan

>  <ATP_Site>  (287) 
nan

>  <Peripheral>  (287) 
nan

>  <Num_H_Atoms_ProtBoundConf>  (287) 
nan

>  <Num_Resolved_Atoms>  (287) 
nan

>  <Num_Not_Resolved_Atoms>  (287) 
nan

$$$$
CHEMBL3641943
     RDKit          3D

  0  0  0  0  0  0  0  0  0  0999 V3000
M  V30 BEGIN CTAB
M  V30 COUNTS 62 66 0 0 0
M  V30 BEGIN ATOM
M  V30 1 C 5.205578 4.256217 2.790106 0
M  V30 2 C 3.825001 4.470936 2.208629 0 CFG=2
M  V30 3 C 2.815002 4.298241 3.323572 0
M  V30 4 O 2.866672 3.040198 3.900659 0
M  V30 5 N 3.582397 3.541755 1.124947 0
M  V30 6 C 4.324305 3.370877 0.045757 0
M  V30 7 C 5.503042 3.961501 -0.422472 0
M  V30 8 N 6.155312 3.676929 -1.573987 0
M  V30 9 C 5.608084 2.709235 -2.367669 0
M  V30 10 C 4.458783 2.066572 -2.009621 0
M  V30 11 C 3.860714 2.421181 -0.818516 0
M  V30 12 C 2.700589 1.946477 -0.212260 0
M  V30 13 C 1.754192 0.983381 -0.569779 0
M  V30 14 N 0.691108 0.737797 0.248488 0
M  V30 15 C 0.581660 1.454201 1.414310 0
M  V30 16 N -0.570645 1.129964 2.203205 0
M  V30 17 C -1.484883 0.156047 1.717658 0
M  V30 18 C -2.612227 -0.219529 2.425556 0
M  V30 19 C -3.480593 -1.158576 1.926765 0
M  V30 20 C -3.245338 -1.748070 0.705116 0
M  V30 21 N -3.983460 -2.729649 -0.010617 0
M  V30 22 C -3.736145 -3.169601 -1.369953 0
M  V30 23 C -3.082293 -4.528257 -1.280686 0
M  V30 24 C -3.534359 -5.293279 -0.089776 0
M  V30 25 N -3.519436 -6.737399 -0.252480 0
M  V30 26 C -4.426364 -7.223088 -1.251044 0
M  V30 27 C -2.183382 -7.197318 -0.638255 0
M  V30 28 C -4.970466 -4.927469 0.299120 0
M  V30 29 C -5.126228 -3.449782 0.581429 0
M  V30 30 N -2.125931 -1.343997 0.053370 0
M  V30 31 N -1.286142 -0.440875 0.528062 0
M  V30 32 N 1.498397 2.356931 1.717801 0
M  V30 33 C 2.564206 2.644849 0.957850 0
M  V30 34 H 5.630410 3.253741 2.510309 0
M  V30 35 H 5.915403 5.064500 2.518124 0
M  V30 36 H 5.164654 4.301381 3.911143 0
M  V30 37 H 3.721127 5.523183 1.846231 0
M  V30 38 H 3.051301 5.040620 4.098085 0
M  V30 39 H 1.818455 4.520004 2.882589 0
M  V30 40 H 3.761067 2.652751 3.829205 0
M  V30 41 H 6.005639 4.748222 0.151686 0
M  V30 42 H 5.998873 2.354329 -3.327472 0
M  V30 43 H 3.974855 1.292222 -2.591709 0
M  V30 44 H 1.943320 0.488537 -1.502997 0
M  V30 45 H -0.807846 1.557138 3.131092 0
M  V30 46 H -2.839905 0.217074 3.389275 0
M  V30 47 H -4.387409 -1.519086 2.395273 0
M  V30 48 H -3.087672 -2.443320 -1.911609 0
M  V30 49 H -4.699529 -3.209671 -1.908057 0
M  V30 50 H -1.984560 -4.294363 -1.116061 0
M  V30 51 H -3.104486 -5.069647 -2.244947 0
M  V30 52 H -2.916016 -5.067192 0.815797 0
M  V30 53 H -5.468939 -7.323793 -0.874461 0
M  V30 54 H -4.109663 -8.252749 -1.530394 0
M  V30 55 H -4.365883 -6.625128 -2.177182 0
M  V30 56 H -2.186805 -7.624313 -1.686618 0
M  V30 57 H -1.527798 -6.287661 -0.748699 0
M  V30 58 H -1.785590 -7.957523 0.043913 0
M  V30 59 H -5.687154 -5.295511 -0.476445 0
M  V30 60 H -5.177832 -5.497072 1.225122 0
M  V30 61 H -6.059270 -3.125247 0.072013 0
M  V30 62 H -5.217078 -3.300070 1.655219 0
M  V30 END ATOM
M  V30 BEGIN BOND
M  V30 1 1 1 2
M  V30 2 1 2 3
M  V30 3 1 3 4
M  V30 4 1 2 5
M  V30 5 1 5 6
M  V30 6 2 6 7
M  V30 7 1 7 8
M  V30 8 2 8 9
M  V30 9 1 9 10
M  V30 10 2 10 11
M  V30 11 1 11 12
M  V30 12 2 12 13
M  V30 13 1 13 14
M  V30 14 2 14 15
M  V30 15 1 15 16
M  V30 16 1 16 17
M  V30 17 2 17 18
M  V30 18 1 18 19
M  V30 19 2 19 20
M  V30 20 1 20 21
M  V30 21 1 21 22
M  V30 22 1 22 23
M  V30 23 1 23 24
M  V30 24 1 24 25
M  V30 25 1 25 26
M  V30 26 1 25 27
M  V30 27 1 24 28
M  V30 28 1 28 29
M  V30 29 1 20 30
M  V30 30 2 30 31
M  V30 31 1 15 32
M  V30 32 2 32 33
M  V30 33 1 33 5
M  V30 34 1 11 6
M  V30 35 1 33 12
M  V30 36 1 31 17
M  V30 37 1 29 21
M  V30 38 1 1 34
M  V30 39 1 1 35
M  V30 40 1 1 36
M  V30 41 1 2 37 CFG=3
M  V30 42 1 3 38
M  V30 43 1 3 39
M  V30 44 1 4 40
M  V30 45 1 7 41
M  V30 46 1 9 42
M  V30 47 1 10 43
M  V30 48 1 13 44
M  V30 49 1 16 45
M  V30 50 1 18 46
M  V30 51 1 19 47
M  V30 52 1 22 48
M  V30 53 1 22 49
M  V30 54 1 23 50
M  V30 55 1 23 51
M  V30 56 1 24 52
M  V30 57 1 26 53
M  V30 58 1 26 54
M  V30 59 1 26 55
M  V30 60 1 27 56
M  V30 61 1 27 57
M  V30 62 1 27 58
M  V30 63 1 28 59
M  V30 64 1 28 60
M  V30 65 1 29 61
M  V30 66 1 29 62
M  V30 END BOND
M  V30 END CTAB
M  END
>  <Dataset>  (288) 
ChEMBL_Kinases

>  <Ligand_Instance>  (288) 
nan

>  <PDB_ID>  (288) 
nan

>  <Standardized_SMILES>  (288) 
C[C@H](CO)n1c2cnccc2c2cnc(Nc3ccc(N4CCC(N(C)C)CC4)nn3)nc21

>  <Name>  (288) 
nan

>  <Pocket>  (288) 
nan

>  <ATP_Site>  (288) 
nan

>  <Peripheral>  (288) 
nan

>  <Num_H_Atoms_ProtBoundConf>  (288) 
nan

>  <Num_Resolved_Atoms>  (288) 
nan

>  <Num_Not_Resolved_Atoms>  (288) 
nan

$$$$
CHEMBL3641942
     RDKit          3D

  0  0  0  0  0  0  0  0  0  0999 V3000
M  V30 BEGIN CTAB
M  V30 COUNTS 53 57 0 0 0
M  V30 BEGIN ATOM
M  V30 1 C 1.679630 -1.566288 1.051326 0
M  V30 2 C 2.486992 -0.867687 2.114097 0 CFG=2
M  V30 3 C 1.747491 -1.013348 3.439403 0
M  V30 4 O 0.467225 -0.427087 3.342824 0
M  V30 5 N 2.710200 0.504366 1.781911 0
M  V30 6 C 3.812803 1.173643 2.161010 0
M  V30 7 C 4.937822 0.833516 2.886249 0
M  V30 8 N 5.952644 1.703947 3.150988 0
M  V30 9 C 5.880917 2.985578 2.687934 0
M  V30 10 C 4.782566 3.401873 1.952020 0
M  V30 11 C 3.778116 2.477616 1.710741 0
M  V30 12 C 2.569169 2.591161 1.014766 0
M  V30 13 C 2.014280 3.667041 0.356606 0
M  V30 14 N 0.818505 3.468903 -0.229117 0
M  V30 15 C 0.186536 2.261019 -0.173706 0
M  V30 16 N -1.093526 2.080284 -0.811049 0
M  V30 17 C -1.783511 0.829394 -0.772741 0
M  V30 18 C -3.010500 0.718849 -1.404358 0
M  V30 19 C -3.603561 -0.523251 -1.316134 0
M  V30 20 C -3.009992 -1.565061 -0.647983 0
M  V30 21 N -3.523377 -2.877273 -0.493205 0
M  V30 22 C -2.846671 -3.955786 0.232245 0
M  V30 23 C -3.187754 -5.307599 -0.324430 0
M  V30 24 N -3.435646 -5.275440 -1.749422 0
M  V30 25 C -4.465460 -4.346603 -2.119626 0
M  V30 26 C -4.785603 -3.358790 -1.021166 0
M  V30 27 N -1.823476 -1.345598 -0.074472 0
M  V30 28 N -1.191934 -0.184708 -0.114849 0
M  V30 29 N 0.730704 1.190996 0.476669 0
M  V30 30 C 1.944475 1.361594 1.081303 0
M  V30 31 H 2.084199 -2.562710 0.849257 0
M  V30 32 H 1.732880 -0.944418 0.135203 0
M  V30 33 H 0.621668 -1.681685 1.404527 0
M  V30 34 H 3.441798 -1.410084 2.229318 0
M  V30 35 H 2.321120 -0.628616 4.289707 0
M  V30 36 H 1.552447 -2.090801 3.617402 0
M  V30 37 H -0.136224 -0.823896 4.022579 0
M  V30 38 H 5.052513 -0.167880 3.280033 0
M  V30 39 H 6.712566 3.648947 2.921384 0
M  V30 40 H 4.750263 4.408390 1.601410 0
M  V30 41 H 2.512378 4.623629 0.311433 0
M  V30 42 H -1.509683 2.899696 -1.309010 0
M  V30 43 H -3.488555 1.522799 -1.930895 0
M  V30 44 H -4.558308 -0.724882 -1.769349 0
M  V30 45 H -3.266998 -3.909382 1.263333 0
M  V30 46 H -1.757616 -3.805111 0.260252 0
M  V30 47 H -2.302433 -5.956722 -0.156365 0
M  V30 48 H -4.029836 -5.788342 0.230085 0
M  V30 49 H -2.555297 -5.175782 -2.275892 0
M  V30 50 H -5.403071 -4.882801 -2.367327 0
M  V30 51 H -4.172971 -3.776400 -3.016385 0
M  V30 52 H -5.358696 -3.859141 -0.215455 0
M  V30 53 H -5.395146 -2.564051 -1.495477 0
M  V30 END ATOM
M  V30 BEGIN BOND
M  V30 1 1 1 2
M  V30 2 1 2 3
M  V30 3 1 3 4
M  V30 4 1 2 5
M  V30 5 1 5 6
M  V30 6 2 6 7
M  V30 7 1 7 8
M  V30 8 2 8 9
M  V30 9 1 9 10
M  V30 10 2 10 11
M  V30 11 1 11 12
M  V30 12 2 12 13
M  V30 13 1 13 14
M  V30 14 2 14 15
M  V30 15 1 15 16
M  V30 16 1 16 17
M  V30 17 2 17 18
M  V30 18 1 18 19
M  V30 19 2 19 20
M  V30 20 1 20 21
M  V30 21 1 21 22
M  V30 22 1 22 23
M  V30 23 1 23 24
M  V30 24 1 24 25
M  V30 25 1 25 26
M  V30 26 1 20 27
M  V30 27 2 27 28
M  V30 28 1 15 29
M  V30 29 2 29 30
M  V30 30 1 30 5
M  V30 31 1 11 6
M  V30 32 1 30 12
M  V30 33 1 28 17
M  V30 34 1 26 21
M  V30 35 1 1 31
M  V30 36 1 1 32
M  V30 37 1 1 33
M  V30 38 1 2 34 CFG=1
M  V30 39 1 3 35
M  V30 40 1 3 36
M  V30 41 1 4 37
M  V30 42 1 7 38
M  V30 43 1 9 39
M  V30 44 1 10 40
M  V30 45 1 13 41
M  V30 46 1 16 42
M  V30 47 1 18 43
M  V30 48 1 19 44
M  V30 49 1 22 45
M  V30 50 1 22 46
M  V30 51 1 23 47
M  V30 52 1 23 48
M  V30 53 1 24 49
M  V30 54 1 25 50
M  V30 55 1 25 51
M  V30 56 1 26 52
M  V30 57 1 26 53
M  V30 END BOND
M  V30 END CTAB
M  END
>  <Dataset>  (289) 
ChEMBL_Kinases

>  <Ligand_Instance>  (289) 
nan

>  <PDB_ID>  (289) 
nan

>  <Standardized_SMILES>  (289) 
C[C@H](CO)n1c2cnccc2c2cnc(Nc3ccc(N4CCNCC4)nn3)nc21

>  <Name>  (289) 
nan

>  <Pocket>  (289) 
nan

>  <ATP_Site>  (289) 
nan

>  <Peripheral>  (289) 
nan

>  <Num_H_Atoms_ProtBoundConf>  (289) 
nan

>  <Num_Resolved_Atoms>  (289) 
nan

>  <Num_Not_Resolved_Atoms>  (289) 
nan

$$$$
CHEMBL3641941
     RDKit          3D

  0  0  0  0  0  0  0  0  0  0999 V3000
M  V30 BEGIN CTAB
M  V30 COUNTS 60 64 0 0 0
M  V30 BEGIN ATOM
M  V30 1 C 4.094963 1.946977 -0.133876 0
M  V30 2 C 4.111602 0.931528 0.989674 0 CFG=2
M  V30 3 C 3.654089 -0.418456 0.492829 0
M  V30 4 O 4.531964 -0.802880 -0.515953 0
M  V30 5 N 3.361238 1.390730 2.141284 0
M  V30 6 C 3.713986 1.444571 3.423587 0
M  V30 7 C 4.864802 1.103450 4.095941 0
M  V30 8 N 4.894946 1.281867 5.420487 0
M  V30 9 C 3.857479 1.774846 6.114409 0
M  V30 10 C 2.630026 2.158051 5.537944 0
M  V30 11 C 2.685395 1.940803 4.151590 0
M  V30 12 C 1.631915 2.209711 3.268561 0
M  V30 13 C 0.338363 2.717131 3.454976 0
M  V30 14 N -0.435043 2.840760 2.364077 0
M  V30 15 C 0.016118 2.487714 1.121678 0
M  V30 16 N -0.872651 2.622854 0.030198 0
M  V30 17 C -1.383268 1.378257 -0.424362 0
M  V30 18 C -0.996373 0.164710 0.112080 0
M  V30 19 C -1.419622 -1.102431 -0.226191 0
M  V30 20 C -2.373701 -1.134656 -1.254702 0
M  V30 21 N -2.823942 -2.443140 -1.661103 0
M  V30 22 C -1.997598 -3.074435 -2.701568 0
M  V30 23 C -1.911057 -4.573845 -2.523683 0
M  V30 24 N -2.523561 -4.974709 -1.272290 0
M  V30 25 C -3.897126 -4.566493 -1.287846 0
M  V30 26 C -4.526394 -4.910689 -2.620603 0
M  V30 27 C -4.698597 -5.249963 -0.187454 0
M  V30 28 C -3.994608 -3.078732 -1.095959 0
M  V30 29 C -2.777796 0.061437 -1.807324 0
M  V30 30 N -2.316484 1.259155 -1.422752 0
M  V30 31 N 1.270611 1.993578 0.919658 0
M  V30 32 C 2.083346 1.855012 2.011191 0
M  V30 33 H 4.671843 2.840910 0.184979 0
M  V30 34 H 4.675654 1.491065 -0.984587 0
M  V30 35 H 3.107010 2.152955 -0.536152 0
M  V30 36 H 5.199106 0.784575 1.255103 0
M  V30 37 H 3.820424 -1.191740 1.299946 0
M  V30 38 H 2.637654 -0.450749 0.108146 0
M  V30 39 H 4.009543 -1.298214 -1.188512 0
M  V30 40 H 5.687685 0.710012 3.552569 0
M  V30 41 H 3.994170 1.874767 7.183723 0
M  V30 42 H 1.806228 2.551057 6.102945 0
M  V30 43 H -0.019577 2.997877 4.451332 0
M  V30 44 H -1.201830 3.457517 -0.476852 0
M  V30 45 H -0.260103 0.163746 0.910847 0
M  V30 46 H -1.065127 -1.990531 0.241160 0
M  V30 47 H -2.442847 -2.823095 -3.662232 0
M  V30 48 H -0.997028 -2.595604 -2.634016 0
M  V30 49 H -2.302292 -5.059630 -3.410487 0
M  V30 50 H -0.818000 -4.827854 -2.470646 0
M  V30 51 H -1.979534 -4.484279 -0.515693 0
M  V30 52 H -4.108790 -5.870314 -3.009395 0
M  V30 53 H -5.617875 -5.079230 -2.417157 0
M  V30 54 H -4.462287 -4.069460 -3.327905 0
M  V30 55 H -4.272521 -5.050990 0.808180 0
M  V30 56 H -4.695130 -6.356094 -0.313673 0
M  V30 57 H -5.720700 -4.811639 -0.227628 0
M  V30 58 H -4.013281 -2.878099 0.005050 0
M  V30 59 H -4.944251 -2.753791 -1.574646 0
M  V30 60 H -3.524488 -0.010846 -2.604024 0
M  V30 END ATOM
M  V30 BEGIN BOND
M  V30 1 1 1 2
M  V30 2 1 2 3
M  V30 3 1 3 4
M  V30 4 1 2 5
M  V30 5 1 5 6
M  V30 6 2 6 7
M  V30 7 1 7 8
M  V30 8 2 8 9
M  V30 9 1 9 10
M  V30 10 2 10 11
M  V30 11 1 11 12
M  V30 12 2 12 13
M  V30 13 1 13 14
M  V30 14 2 14 15
M  V30 15 1 15 16
M  V30 16 1 16 17
M  V30 17 2 17 18
M  V30 18 1 18 19
M  V30 19 2 19 20
M  V30 20 1 20 21
M  V30 21 1 21 22
M  V30 22 1 22 23
M  V30 23 1 23 24
M  V30 24 1 24 25
M  V30 25 1 25 26
M  V30 26 1 25 27
M  V30 27 1 25 28
M  V30 28 1 20 29
M  V30 29 2 29 30
M  V30 30 1 15 31
M  V30 31 2 31 32
M  V30 32 1 32 5
M  V30 33 1 11 6
M  V30 34 1 32 12
M  V30 35 1 30 17
M  V30 36 1 28 21
M  V30 37 1 1 33
M  V30 38 1 1 34
M  V30 39 1 1 35
M  V30 40 1 2 36 CFG=1
M  V30 41 1 3 37
M  V30 42 1 3 38
M  V30 43 1 4 39
M  V30 44 1 7 40
M  V30 45 1 9 41
M  V30 46 1 10 42
M  V30 47 1 13 43
M  V30 48 1 16 44
M  V30 49 1 18 45
M  V30 50 1 19 46
M  V30 51 1 22 47
M  V30 52 1 22 48
M  V30 53 1 23 49
M  V30 54 1 23 50
M  V30 55 1 24 51
M  V30 56 1 26 52
M  V30 57 1 26 53
M  V30 58 1 26 54
M  V30 59 1 27 55
M  V30 60 1 27 56
M  V30 61 1 27 57
M  V30 62 1 28 58
M  V30 63 1 28 59
M  V30 64 1 29 60
M  V30 END BOND
M  V30 END CTAB
M  END
>  <Dataset>  (290) 
ChEMBL_Kinases

>  <Ligand_Instance>  (290) 
nan

>  <PDB_ID>  (290) 
nan

>  <Standardized_SMILES>  (290) 
C[C@H](CO)n1c2cnccc2c2cnc(Nc3ccc(N4CCNC(C)(C)C4)cn3)nc21

>  <Name>  (290) 
nan

>  <Pocket>  (290) 
nan

>  <ATP_Site>  (290) 
nan

>  <Peripheral>  (290) 
nan

>  <Num_H_Atoms_ProtBoundConf>  (290) 
nan

>  <Num_Resolved_Atoms>  (290) 
nan

>  <Num_Not_Resolved_Atoms>  (290) 
nan

$$$$
CHEMBL3641923
     RDKit          3D

  0  0  0  0  0  0  0  0  0  0999 V3000
M  V30 BEGIN CTAB
M  V30 COUNTS 63 68 0 0 0
M  V30 BEGIN ATOM
M  V30 1 C 6.774527 -0.176108 2.945360 0
M  V30 2 N 6.070745 1.039686 3.249763 0
M  V30 3 C 4.999437 1.322142 2.348627 0
M  V30 4 C 5.424507 1.509424 0.910070 0
M  V30 5 C 4.478696 2.444017 0.173787 0
M  V30 6 N 3.137921 2.299349 0.713313 0
M  V30 7 C 1.981244 1.919866 -0.039649 0
M  V30 8 C 1.905640 1.899489 -1.418459 0
M  V30 9 C 0.731840 1.500723 -2.059380 0
M  V30 10 C -0.385236 1.115625 -1.346350 0
M  V30 11 N -1.624998 0.714550 -1.961614 0
M  V30 12 C -2.670692 0.315179 -1.045963 0
M  V30 13 N -3.493109 1.152202 -0.344783 0
M  V30 14 C -4.433277 0.655953 0.478502 0
M  V30 15 C -4.489112 -0.728839 0.547566 0
M  V30 16 C -5.321436 -1.551465 1.284527 0
M  V30 17 C -6.331787 -1.286466 2.160983 0
M  V30 18 C -6.990247 -2.371803 2.752870 0
M  V30 19 N -6.632435 -3.639018 2.461419 0
M  V30 20 C -5.636433 -3.920421 1.597500 0
M  V30 21 C -4.962335 -2.853846 0.992551 0
M  V30 22 N -3.949279 -2.862377 0.111046 0
M  V30 23 C -3.293313 -4.013774 -0.449763 0 CFG=1
M  V30 24 C -3.774241 -4.340122 -1.841820 0
M  V30 25 C -2.535017 -4.599393 -2.660705 0
M  V30 26 C -1.401954 -3.913287 -1.945439 0
M  V30 27 C -1.801062 -3.937424 -0.494058 0 CFG=1
M  V30 28 O -1.263809 -2.882473 0.243641 0
M  V30 29 C -3.661577 -1.572125 -0.158598 0
M  V30 30 N -2.738749 -1.023996 -0.967538 0
M  V30 31 N -0.229744 1.162747 -0.014689 0
M  V30 32 N 0.868296 1.536021 0.612630 0
M  V30 33 C 2.950526 2.572948 2.143253 0
M  V30 34 C 4.322689 2.611777 2.769101 0
M  V30 35 H 7.451266 -0.404450 3.807233 0
M  V30 36 H 7.411324 -0.077382 2.046245 0
M  V30 37 H 6.070527 -1.024646 2.821599 0
M  V30 38 H 5.677696 0.978609 4.208191 0
M  V30 39 H 4.201303 0.528202 2.432856 0
M  V30 40 H 5.497700 0.514559 0.454136 0
M  V30 41 H 6.431690 1.961470 0.914866 0
M  V30 42 H 4.835063 3.473918 0.223476 0
M  V30 43 H 4.453735 2.069003 -0.870252 0
M  V30 44 H 2.772551 2.200412 -1.982246 0
M  V30 45 H 0.691459 1.493376 -3.151815 0
M  V30 46 H -1.623447 0.759294 -3.020431 0
M  V30 47 H -5.058066 1.325132 1.010873 0
M  V30 48 H -6.660733 -0.315254 2.432864 0
M  V30 49 H -7.795580 -2.282035 3.452869 0
M  V30 50 H -5.329466 -4.945484 1.345823 0
M  V30 51 H -3.557969 -4.894938 0.178035 0
M  V30 52 H -4.367195 -5.299668 -1.879509 0
M  V30 53 H -4.438206 -3.571767 -2.285808 0
M  V30 54 H -2.301049 -5.691952 -2.752527 0
M  V30 55 H -2.646154 -4.229031 -3.693984 0
M  V30 56 H -0.477692 -4.537779 -2.101900 0
M  V30 57 H -1.195156 -2.908879 -2.306843 0
M  V30 58 H -1.332875 -4.874364 -0.059204 0
M  V30 59 H -0.317875 -2.823466 -0.028249 0
M  V30 60 H 2.531783 3.598927 2.182817 0
M  V30 61 H 2.317657 1.792302 2.597371 0
M  V30 62 H 4.212413 2.641604 3.882836 0
M  V30 63 H 4.863605 3.512959 2.413267 0
M  V30 END ATOM
M  V30 BEGIN BOND
M  V30 1 1 1 2
M  V30 2 1 2 3
M  V30 3 1 3 4
M  V30 4 1 4 5
M  V30 5 1 5 6
M  V30 6 1 6 7
M  V30 7 2 7 8
M  V30 8 1 8 9
M  V30 9 2 9 10
M  V30 10 1 10 11
M  V30 11 1 11 12
M  V30 12 2 12 13
M  V30 13 1 13 14
M  V30 14 2 14 15
M  V30 15 1 15 16
M  V30 16 2 16 17
M  V30 17 1 17 18
M  V30 18 2 18 19
M  V30 19 1 19 20
M  V30 20 2 20 21
M  V30 21 1 21 22
M  V30 22 1 22 23
M  V30 23 1 23 24
M  V30 24 1 24 25
M  V30 25 1 25 26
M  V30 26 1 26 27
M  V30 27 1 27 28
M  V30 28 1 22 29
M  V30 29 2 29 30
M  V30 30 1 10 31
M  V30 31 2 31 32
M  V30 32 1 6 33
M  V30 33 1 33 34
M  V30 34 1 34 3
M  V30 35 1 32 7
M  V30 36 1 30 12
M  V30 37 1 29 15
M  V30 38 1 21 16
M  V30 39 1 27 23
M  V30 40 1 1 35
M  V30 41 1 1 36
M  V30 42 1 1 37
M  V30 43 1 2 38
M  V30 44 1 3 39
M  V30 45 1 4 40
M  V30 46 1 4 41
M  V30 47 1 5 42
M  V30 48 1 5 43
M  V30 49 1 8 44
M  V30 50 1 9 45
M  V30 51 1 11 46
M  V30 52 1 14 47
M  V30 53 1 17 48
M  V30 54 1 18 49
M  V30 55 1 20 50
M  V30 56 1 23 51 CFG=1
M  V30 57 1 24 52
M  V30 58 1 24 53
M  V30 59 1 25 54
M  V30 60 1 25 55
M  V30 61 1 26 56
M  V30 62 1 26 57
M  V30 63 1 27 58 CFG=1
M  V30 64 1 28 59
M  V30 65 1 33 60
M  V30 66 1 33 61
M  V30 67 1 34 62
M  V30 68 1 34 63
M  V30 END BOND
M  V30 END CTAB
M  END
>  <Dataset>  (291) 
ChEMBL_Kinases

>  <Ligand_Instance>  (291) 
nan

>  <PDB_ID>  (291) 
nan

>  <Standardized_SMILES>  (291) 
CNC1CCN(c2ccc(Nc3ncc4c5ccncc5n([C@H]5CCC[C@H]5O)c4n3)nn2)CC1

>  <Name>  (291) 
nan

>  <Pocket>  (291) 
nan

>  <ATP_Site>  (291) 
nan

>  <Peripheral>  (291) 
nan

>  <Num_H_Atoms_ProtBoundConf>  (291) 
nan

>  <Num_Resolved_Atoms>  (291) 
nan

>  <Num_Not_Resolved_Atoms>  (291) 
nan

$$$$
CHEMBL3641924
     RDKit          3D

  0  0  0  0  0  0  0  0  0  0999 V3000
M  V30 BEGIN CTAB
M  V30 COUNTS 63 68 0 0 0
M  V30 BEGIN ATOM
M  V30 1 C 4.391410 1.140174 5.370320 0
M  V30 2 C 3.787906 -0.207979 5.009568 0
M  V30 3 C 4.495732 -1.286874 5.808399 0
M  V30 4 C 4.032992 -0.440313 3.541772 0
M  V30 5 N 2.762761 -0.680184 2.883557 0
M  V30 6 C 2.315791 0.001836 1.720194 0
M  V30 7 C 3.080628 0.802359 0.902928 0
M  V30 8 C 2.570760 1.442843 -0.208118 0
M  V30 9 C 1.219749 1.285385 -0.536995 0
M  V30 10 N 0.602389 1.916243 -1.682735 0
M  V30 11 C -0.807888 1.624887 -1.815595 0
M  V30 12 N -1.724530 2.620064 -1.935299 0
M  V30 13 C -3.046797 2.365329 -2.042995 0
M  V30 14 C -3.415594 1.033959 -2.024757 0
M  V30 15 C -4.677804 0.446653 -2.108816 0
M  V30 16 C -5.920740 1.063869 -2.236844 0
M  V30 17 C -7.044696 0.270038 -2.296136 0
M  V30 18 N -6.908881 -1.056186 -2.229875 0
M  V30 19 C -5.685932 -1.616306 -2.105644 0
M  V30 20 C -4.502281 -0.903597 -2.038121 0
M  V30 21 N -3.194388 -1.192146 -1.915210 0
M  V30 22 C -2.661343 -2.502279 -1.818866 0 CFG=1
M  V30 23 C -3.306923 -3.348486 -2.929799 0
M  V30 24 C -2.134936 -3.851875 -3.793162 0
M  V30 25 C -1.090310 -2.745157 -3.542209 0
M  V30 26 C -1.235132 -2.731497 -2.025102 0 CFG=1
M  V30 27 O -0.304308 -2.034316 -1.351201 0
M  V30 28 C -2.533045 -0.020622 -1.906295 0
M  V30 29 N -1.258230 0.381445 -1.808283 0
M  V30 30 N 0.538460 0.493745 0.301920 0
M  V30 31 N 1.022354 -0.116520 1.359372 0
M  V30 32 C 1.985699 -1.715694 3.534838 0
M  V30 33 C 1.638357 -1.310052 4.930000 0
M  V30 34 N 2.384356 -0.153137 5.315857 0
M  V30 35 H 3.691221 1.725357 6.002299 0
M  V30 36 H 4.692831 1.713415 4.457080 0
M  V30 37 H 5.321628 1.021056 5.971616 0
M  V30 38 H 4.148985 -1.198073 6.857298 0
M  V30 39 H 5.590417 -1.127528 5.767484 0
M  V30 40 H 4.193098 -2.270760 5.386796 0
M  V30 41 H 4.638706 -1.379298 3.390580 0
M  V30 42 H 4.589665 0.418990 3.075867 0
M  V30 43 H 4.130098 0.913938 1.167484 0
M  V30 44 H 3.171803 2.066304 -0.842185 0
M  V30 45 H 1.243089 2.498412 -2.270140 0
M  V30 46 H -3.771235 3.161622 -2.135781 0
M  V30 47 H -6.031801 2.118929 -2.289604 0
M  V30 48 H -8.040424 0.693453 -2.392899 0
M  V30 49 H -5.657498 -2.694015 -2.052604 0
M  V30 50 H -2.990953 -2.941047 -0.845197 0
M  V30 51 H -3.850498 -4.190187 -2.486467 0
M  V30 52 H -3.893520 -2.735637 -3.637646 0
M  V30 53 H -1.734573 -4.789954 -3.341019 0
M  V30 54 H -2.386467 -3.947243 -4.846003 0
M  V30 55 H -1.520278 -1.840080 -4.019157 0
M  V30 56 H -0.097258 -3.030414 -3.891300 0
M  V30 57 H -1.062836 -3.823087 -1.749469 0
M  V30 58 H 0.458000 -2.595659 -1.008034 0
M  V30 59 H 2.590588 -2.660090 3.573724 0
M  V30 60 H 1.060906 -1.954075 2.940565 0
M  V30 61 H 1.715094 -2.145394 5.656866 0
M  V30 62 H 0.546259 -1.035034 4.944738 0
M  V30 63 H 2.223905 0.117923 6.308733 0
M  V30 END ATOM
M  V30 BEGIN BOND
M  V30 1 1 1 2
M  V30 2 1 2 3
M  V30 3 1 2 4
M  V30 4 1 4 5
M  V30 5 1 5 6
M  V30 6 2 6 7
M  V30 7 1 7 8
M  V30 8 2 8 9
M  V30 9 1 9 10
M  V30 10 1 10 11
M  V30 11 2 11 12
M  V30 12 1 12 13
M  V30 13 2 13 14
M  V30 14 1 14 15
M  V30 15 2 15 16
M  V30 16 1 16 17
M  V30 17 2 17 18
M  V30 18 1 18 19
M  V30 19 2 19 20
M  V30 20 1 20 21
M  V30 21 1 21 22
M  V30 22 1 22 23
M  V30 23 1 23 24
M  V30 24 1 24 25
M  V30 25 1 25 26
M  V30 26 1 26 27
M  V30 27 1 21 28
M  V30 28 2 28 29
M  V30 29 1 9 30
M  V30 30 2 30 31
M  V30 31 1 5 32
M  V30 32 1 32 33
M  V30 33 1 33 34
M  V30 34 1 34 2
M  V30 35 1 31 6
M  V30 36 1 29 11
M  V30 37 1 28 14
M  V30 38 1 20 15
M  V30 39 1 26 22
M  V30 40 1 1 35
M  V30 41 1 1 36
M  V30 42 1 1 37
M  V30 43 1 3 38
M  V30 44 1 3 39
M  V30 45 1 3 40
M  V30 46 1 4 41
M  V30 47 1 4 42
M  V30 48 1 7 43
M  V30 49 1 8 44
M  V30 50 1 10 45
M  V30 51 1 13 46
M  V30 52 1 16 47
M  V30 53 1 17 48
M  V30 54 1 19 49
M  V30 55 1 22 50 CFG=1
M  V30 56 1 23 51
M  V30 57 1 23 52
M  V30 58 1 24 53
M  V30 59 1 24 54
M  V30 60 1 25 55
M  V30 61 1 25 56
M  V30 62 1 26 57 CFG=1
M  V30 63 1 27 58
M  V30 64 1 32 59
M  V30 65 1 32 60
M  V30 66 1 33 61
M  V30 67 1 33 62
M  V30 68 1 34 63
M  V30 END BOND
M  V30 END CTAB
M  END
>  <Dataset>  (292) 
ChEMBL_Kinases

>  <Ligand_Instance>  (292) 
nan

>  <PDB_ID>  (292) 
nan

>  <Standardized_SMILES>  (292) 
CC1(C)CN(c2ccc(Nc3ncc4c5ccncc5n([C@H]5CCC[C@H]5O)c4n3)nn2)CCN1

>  <Name>  (292) 
nan

>  <Pocket>  (292) 
nan

>  <ATP_Site>  (292) 
nan

>  <Peripheral>  (292) 
nan

>  <Num_H_Atoms_ProtBoundConf>  (292) 
nan

>  <Num_Resolved_Atoms>  (292) 
nan

>  <Num_Not_Resolved_Atoms>  (292) 
nan

$$$$
CHEMBL3641925
     RDKit          3D

  0  0  0  0  0  0  0  0  0  0999 V3000
M  V30 BEGIN CTAB
M  V30 COUNTS 56 61 0 0 0
M  V30 BEGIN ATOM
M  V30 1 O 1.980423 -3.567987 6.912460 0
M  V30 2 C 2.229426 -4.559958 5.969508 0 CFG=2
M  V30 3 C 3.691755 -4.739420 5.651550 0
M  V30 4 C 3.792184 -4.606233 4.144695 0
M  V30 5 N 2.663376 -3.808776 3.767305 0
M  V30 6 C 2.560402 -2.803650 2.783135 0
M  V30 7 C 3.605945 -2.453524 1.956617 0
M  V30 8 C 3.560139 -1.483027 0.981403 0
M  V30 9 C 2.329397 -0.829629 0.861326 0
M  V30 10 N 2.127263 0.207651 -0.124587 0
M  V30 11 C 0.962763 0.983019 -0.393142 0
M  V30 12 N 1.012412 2.143120 0.309186 0
M  V30 13 C 0.015262 3.058679 0.227776 0
M  V30 14 C -1.012795 2.710517 -0.603875 0
M  V30 15 C -2.191742 3.393867 -0.926868 0
M  V30 16 C -2.726733 4.617154 -0.543355 0
M  V30 17 C -3.932537 5.093233 -1.000955 0
M  V30 18 N -4.586038 4.298366 -1.859440 0
M  V30 19 C -4.155145 3.104348 -2.289616 0
M  V30 20 C -2.922031 2.626665 -1.816041 0
M  V30 21 N -2.227890 1.472672 -2.061171 0
M  V30 22 C -2.637889 0.412637 -2.921107 0 CFG=1
M  V30 23 C -1.651291 -0.212181 -3.799874 0
M  V30 24 C -1.864865 -1.727063 -3.769026 0
M  V30 25 C -3.284209 -1.797116 -3.245025 0
M  V30 26 C -3.221893 -0.768148 -2.133975 0 CFG=1
M  V30 27 O -2.300583 -1.176187 -1.194871 0
M  V30 28 C -1.112805 1.548341 -1.337980 0
M  V30 29 N -0.091183 0.684892 -1.212036 0
M  V30 30 N 1.286884 -1.165330 1.672196 0
M  V30 31 N 1.425905 -2.123435 2.592868 0
M  V30 32 C 1.606139 -4.263664 4.632601 0
M  V30 33 H 1.395442 -2.849978 6.596504 0
M  V30 34 H 1.782722 -5.499191 6.375726 0
M  V30 35 H 3.973715 -5.782481 5.925595 0
M  V30 36 H 4.340688 -4.008416 6.188195 0
M  V30 37 H 3.738122 -5.603015 3.654547 0
M  V30 38 H 4.736789 -4.064420 3.881404 0
M  V30 39 H 4.573772 -2.961229 2.044466 0
M  V30 40 H 4.388403 -1.221670 0.343062 0
M  V30 41 H 2.956716 0.432198 -0.737360 0
M  V30 42 H -0.044787 4.002469 0.736393 0
M  V30 43 H -2.117498 5.177850 0.152818 0
M  V30 44 H -4.335511 6.042064 -0.696481 0
M  V30 45 H -4.748191 2.512166 -2.993432 0
M  V30 46 H -3.500550 0.765121 -3.541721 0
M  V30 47 H -1.819220 0.069308 -4.879666 0
M  V30 48 H -0.582146 -0.070044 -3.578710 0
M  V30 49 H -1.761130 -2.189537 -4.766076 0
M  V30 50 H -1.220322 -2.208812 -2.996412 0
M  V30 51 H -3.578862 -2.790904 -2.883994 0
M  V30 52 H -3.956019 -1.394484 -4.028088 0
M  V30 53 H -4.220464 -0.529998 -1.722563 0
M  V30 54 H -2.328692 -2.147531 -1.048281 0
M  V30 55 H 0.791598 -3.535618 4.657114 0
M  V30 56 H 1.228884 -5.219545 4.210126 0
M  V30 END ATOM
M  V30 BEGIN BOND
M  V30 1 1 1 2
M  V30 2 1 2 3
M  V30 3 1 3 4
M  V30 4 1 4 5
M  V30 5 1 5 6
M  V30 6 2 6 7
M  V30 7 1 7 8
M  V30 8 2 8 9
M  V30 9 1 9 10
M  V30 10 1 10 11
M  V30 11 2 11 12
M  V30 12 1 12 13
M  V30 13 2 13 14
M  V30 14 1 14 15
M  V30 15 2 15 16
M  V30 16 1 16 17
M  V30 17 2 17 18
M  V30 18 1 18 19
M  V30 19 2 19 20
M  V30 20 1 20 21
M  V30 21 1 21 22
M  V30 22 1 22 23
M  V30 23 1 23 24
M  V30 24 1 24 25
M  V30 25 1 25 26
M  V30 26 1 26 27
M  V30 27 1 21 28
M  V30 28 2 28 29
M  V30 29 1 9 30
M  V30 30 2 30 31
M  V30 31 1 5 32
M  V30 32 1 32 2
M  V30 33 1 31 6
M  V30 34 1 29 11
M  V30 35 1 28 14
M  V30 36 1 20 15
M  V30 37 1 26 22
M  V30 38 1 1 33
M  V30 39 1 2 34 CFG=1
M  V30 40 1 3 35
M  V30 41 1 3 36
M  V30 42 1 4 37
M  V30 43 1 4 38
M  V30 44 1 7 39
M  V30 45 1 8 40
M  V30 46 1 10 41
M  V30 47 1 13 42
M  V30 48 1 16 43
M  V30 49 1 17 44
M  V30 50 1 19 45
M  V30 51 1 22 46 CFG=3
M  V30 52 1 23 47
M  V30 53 1 23 48
M  V30 54 1 24 49
M  V30 55 1 24 50
M  V30 56 1 25 51
M  V30 57 1 25 52
M  V30 58 1 26 53 CFG=1
M  V30 59 1 27 54
M  V30 60 1 32 55
M  V30 61 1 32 56
M  V30 END BOND
M  V30 END CTAB
M  END
>  <Dataset>  (293) 
ChEMBL_Kinases

>  <Ligand_Instance>  (293) 
nan

>  <PDB_ID>  (293) 
nan

>  <Standardized_SMILES>  (293) 
O[C@@H]1CCN(c2ccc(Nc3ncc4c5ccncc5n([C@H]5CCC[C@H]5O)c4n3)nn2)C1

>  <Name>  (293) 
nan

>  <Pocket>  (293) 
nan

>  <ATP_Site>  (293) 
nan

>  <Peripheral>  (293) 
nan

>  <Num_H_Atoms_ProtBoundConf>  (293) 
nan

>  <Num_Resolved_Atoms>  (293) 
nan

>  <Num_Not_Resolved_Atoms>  (293) 
nan

$$$$
CHEMBL3641926
     RDKit          3D

  0  0  0  0  0  0  0  0  0  0999 V3000
M  V30 BEGIN CTAB
M  V30 COUNTS 60 64 0 0 0
M  V30 BEGIN ATOM
M  V30 1 C 2.627154 -4.470239 2.768770 0
M  V30 2 N 3.500512 -3.328356 2.935513 0
M  V30 3 C 4.909813 -3.650896 2.793598 0
M  V30 4 C 5.745457 -2.374552 3.015798 0
M  V30 5 C 5.075142 -1.253177 2.199547 0
M  V30 6 N 4.652360 -1.753793 0.914113 0
M  V30 7 C 3.560909 -1.262262 0.154408 0
M  V30 8 C 2.663473 -0.420950 0.765427 0
M  V30 9 C 1.560655 0.119116 0.093875 0
M  V30 10 C 1.414557 -0.241294 -1.241304 0
M  V30 11 N 0.329658 0.248034 -2.016429 0
M  V30 12 C -0.720694 1.093830 -1.585238 0
M  V30 13 N -0.758351 2.441738 -1.439919 0
M  V30 14 C -1.893672 3.041657 -1.021513 0
M  V30 15 C -3.049378 2.345752 -0.725425 0
M  V30 16 C -4.314909 2.658848 -0.298829 0
M  V30 17 C -4.878727 3.880622 -0.001352 0
M  V30 18 C -6.195138 3.892434 0.409205 0
M  V30 19 N -6.922512 2.752284 0.521634 0
M  V30 20 C -6.307965 1.583308 0.214276 0
M  V30 21 C -5.001158 1.470130 -0.203519 0
M  V30 22 N -4.204556 0.449120 -0.553561 0
M  V30 23 C -4.550510 -0.951468 -0.592108 0 CFG=1
M  V30 24 C -5.060979 -1.506052 0.695623 0
M  V30 25 C -5.541498 -1.272324 -1.700563 0
M  V30 26 O -5.059649 -0.960532 -2.957774 0
M  V30 27 C -2.992903 0.987026 -0.877944 0
M  V30 28 N -1.853832 0.392481 -1.296408 0
M  V30 29 N 2.297875 -1.064000 -1.826302 0
M  V30 30 C 3.354405 -1.577341 -1.169491 0
M  V30 31 C 5.540158 -2.845422 0.572793 0
M  V30 32 C 5.254171 -4.091540 1.388248 0
M  V30 33 H 3.063022 -5.427674 3.057480 0
M  V30 34 H 2.232436 -4.440275 1.723224 0
M  V30 35 H 1.695533 -4.327396 3.394779 0
M  V30 36 H 3.368058 -2.979695 3.907692 0
M  V30 37 H 5.223817 -4.420691 3.500979 0
M  V30 38 H 6.769955 -2.576262 2.700249 0
M  V30 39 H 5.701883 -2.087636 4.081670 0
M  V30 40 H 4.267200 -0.802238 2.781793 0
M  V30 41 H 5.866530 -0.498748 2.015264 0
M  V30 42 H 2.682963 -0.079088 1.790463 0
M  V30 43 H 0.836386 0.779332 0.535861 0
M  V30 44 H 0.217087 0.009520 -3.014303 0
M  V30 45 H -1.883908 4.115374 -0.917475 0
M  V30 46 H -4.326937 4.808509 -0.080199 0
M  V30 47 H -6.711350 4.788347 0.658328 0
M  V30 48 H -6.890757 0.680542 0.306436 0
M  V30 49 H -3.627835 -1.542274 -0.868486 0
M  V30 50 H -6.167275 -1.605131 0.706317 0
M  V30 51 H -4.692393 -0.925195 1.546065 0
M  V30 52 H -4.662361 -2.548686 0.860872 0
M  V30 53 H -6.554207 -0.871490 -1.504195 0
M  V30 54 H -5.640929 -2.393398 -1.689991 0
M  V30 55 H -4.650632 -0.054334 -2.991664 0
M  V30 56 H 4.026899 -2.230606 -1.698236 0
M  V30 57 H 6.607714 -2.556783 0.665154 0
M  V30 58 H 5.356336 -3.136197 -0.484273 0
M  V30 59 H 4.450419 -4.693736 0.923386 0
M  V30 60 H 6.219151 -4.661237 1.422530 0
M  V30 END ATOM
M  V30 BEGIN BOND
M  V30 1 1 1 2
M  V30 2 1 2 3
M  V30 3 1 3 4
M  V30 4 1 4 5
M  V30 5 1 5 6
M  V30 6 1 6 7
M  V30 7 2 7 8
M  V30 8 1 8 9
M  V30 9 2 9 10
M  V30 10 1 10 11
M  V30 11 1 11 12
M  V30 12 2 12 13
M  V30 13 1 13 14
M  V30 14 2 14 15
M  V30 15 1 15 16
M  V30 16 2 16 17
M  V30 17 1 17 18
M  V30 18 2 18 19
M  V30 19 1 19 20
M  V30 20 2 20 21
M  V30 21 1 21 22
M  V30 22 1 22 23
M  V30 23 1 23 24
M  V30 24 1 23 25
M  V30 25 1 25 26
M  V30 26 1 22 27
M  V30 27 2 27 28
M  V30 28 1 10 29
M  V30 29 2 29 30
M  V30 30 1 6 31
M  V30 31 1 31 32
M  V30 32 1 32 3
M  V30 33 1 30 7
M  V30 34 1 28 12
M  V30 35 1 27 15
M  V30 36 1 21 16
M  V30 37 1 1 33
M  V30 38 1 1 34
M  V30 39 1 1 35
M  V30 40 1 2 36
M  V30 41 1 3 37
M  V30 42 1 4 38
M  V30 43 1 4 39
M  V30 44 1 5 40
M  V30 45 1 5 41
M  V30 46 1 8 42
M  V30 47 1 9 43
M  V30 48 1 11 44
M  V30 49 1 14 45
M  V30 50 1 17 46
M  V30 51 1 18 47
M  V30 52 1 20 48
M  V30 53 1 23 49 CFG=3
M  V30 54 1 24 50
M  V30 55 1 24 51
M  V30 56 1 24 52
M  V30 57 1 25 53
M  V30 58 1 25 54
M  V30 59 1 26 55
M  V30 60 1 30 56
M  V30 61 1 31 57
M  V30 62 1 31 58
M  V30 63 1 32 59
M  V30 64 1 32 60
M  V30 END BOND
M  V30 END CTAB
M  END
>  <Dataset>  (294) 
ChEMBL_Kinases

>  <Ligand_Instance>  (294) 
nan

>  <PDB_ID>  (294) 
nan

>  <Standardized_SMILES>  (294) 
CNC1CCN(c2ccc(Nc3ncc4c5ccncc5n([C@@H](C)CO)c4n3)nc2)CC1

>  <Name>  (294) 
nan

>  <Pocket>  (294) 
nan

>  <ATP_Site>  (294) 
nan

>  <Peripheral>  (294) 
nan

>  <Num_H_Atoms_ProtBoundConf>  (294) 
nan

>  <Num_Resolved_Atoms>  (294) 
nan

>  <Num_Not_Resolved_Atoms>  (294) 
nan

$$$$
CHEMBL3641927
     RDKit          3D

  0  0  0  0  0  0  0  0  0  0999 V3000
M  V30 BEGIN CTAB
M  V30 COUNTS 53 57 0 0 0
M  V30 BEGIN ATOM
M  V30 1 C 0.866215 -0.296486 3.636556 0
M  V30 2 C 2.215966 -0.627231 3.064864 0 CFG=1
M  V30 3 C 2.186946 -2.041737 2.529684 0
M  V30 4 O 1.230382 -2.196975 1.531069 0
M  V30 5 N 2.674549 0.320623 2.096284 0
M  V30 6 C 4.004939 0.457517 1.832465 0
M  V30 7 C 5.167210 -0.130389 2.285486 0
M  V30 8 N 6.370789 0.237359 1.808857 0
M  V30 9 C 6.476474 1.207836 0.858588 0
M  V30 10 C 5.342388 1.834506 0.365347 0
M  V30 11 C 4.097958 1.454287 0.858251 0
M  V30 12 C 2.851920 1.940437 0.511082 0
M  V30 13 C 2.423905 2.887707 -0.364392 0
M  V30 14 N 1.077482 3.103553 -0.442152 0
M  V30 15 C 0.237530 2.372693 0.347472 0
M  V30 16 N -1.197724 2.485380 0.362658 0
M  V30 17 C -1.906413 1.239332 0.172905 0
M  V30 18 C -3.290604 1.172826 0.158501 0
M  V30 19 C -3.983599 -0.011215 -0.027115 0
M  V30 20 C -3.276318 -1.175182 -0.205406 0
M  V30 21 N -3.840045 -2.460206 -0.414979 0
M  V30 22 C -5.194871 -2.947217 -0.597526 0
M  V30 23 C -5.067507 -3.601905 -1.976136 0
M  V30 24 C -3.654205 -4.196241 -1.884822 0 CFG=1
M  V30 25 O -2.812483 -3.690309 -2.872472 0
M  V30 26 C -3.158411 -3.736067 -0.507322 0
M  V30 27 C -1.906612 -1.055695 -0.182260 0
M  V30 28 N -1.271913 0.089780 -0.002709 0
M  V30 29 N 0.678885 1.425453 1.222190 0
M  V30 30 C 2.002090 1.188262 1.322985 0
M  V30 31 H 0.093452 -0.414035 2.874053 0
M  V30 32 H 0.690160 -1.049859 4.458938 0
M  V30 33 H 0.862914 0.682445 4.158652 0
M  V30 34 H 2.918808 -0.635774 3.940406 0
M  V30 35 H 1.993105 -2.785845 3.312331 0
M  V30 36 H 3.171738 -2.292044 2.077173 0
M  V30 37 H 0.981072 -3.154074 1.514665 0
M  V30 38 H 5.081938 -0.906414 3.045363 0
M  V30 39 H 7.409882 1.551380 0.431860 0
M  V30 40 H 5.401444 2.604741 -0.386315 0
M  V30 41 H 3.074467 3.459013 -0.980578 0
M  V30 42 H -1.785069 3.349421 0.492812 0
M  V30 43 H -3.868299 2.081819 0.297682 0
M  V30 44 H -5.055864 -0.068027 -0.039205 0
M  V30 45 H -5.968445 -2.187093 -0.558703 0
M  V30 46 H -5.384197 -3.780524 0.110615 0
M  V30 47 H -5.001149 -2.799878 -2.738511 0
M  V30 48 H -5.815552 -4.371528 -2.161441 0
M  V30 49 H -3.712203 -5.284946 -1.892749 0
M  V30 50 H -2.026602 -4.260032 -2.890101 0
M  V30 51 H -2.073903 -3.689813 -0.462269 0
M  V30 52 H -3.556009 -4.434484 0.283856 0
M  V30 53 H -1.190546 -1.879126 -0.308886 0
M  V30 END ATOM
M  V30 BEGIN BOND
M  V30 1 1 1 2
M  V30 2 1 2 3
M  V30 3 1 3 4
M  V30 4 1 2 5
M  V30 5 1 5 6
M  V30 6 2 6 7
M  V30 7 1 7 8
M  V30 8 2 8 9
M  V30 9 1 9 10
M  V30 10 2 10 11
M  V30 11 1 11 12
M  V30 12 2 12 13
M  V30 13 1 13 14
M  V30 14 2 14 15
M  V30 15 1 15 16
M  V30 16 1 16 17
M  V30 17 2 17 18
M  V30 18 1 18 19
M  V30 19 2 19 20
M  V30 20 1 20 21
M  V30 21 1 21 22
M  V30 22 1 22 23
M  V30 23 1 23 24
M  V30 24 1 24 25
M  V30 25 1 24 26
M  V30 26 1 20 27
M  V30 27 2 27 28
M  V30 28 1 15 29
M  V30 29 2 29 30
M  V30 30 1 30 5
M  V30 31 1 11 6
M  V30 32 1 30 12
M  V30 33 1 28 17
M  V30 34 1 26 21
M  V30 35 1 1 31
M  V30 36 1 1 32
M  V30 37 1 1 33
M  V30 38 1 2 34 CFG=1
M  V30 39 1 3 35
M  V30 40 1 3 36
M  V30 41 1 4 37
M  V30 42 1 7 38
M  V30 43 1 9 39
M  V30 44 1 10 40
M  V30 45 1 13 41
M  V30 46 1 16 42
M  V30 47 1 18 43
M  V30 48 1 19 44
M  V30 49 1 22 45
M  V30 50 1 22 46
M  V30 51 1 23 47
M  V30 52 1 23 48
M  V30 53 1 24 49 CFG=1
M  V30 54 1 25 50
M  V30 55 1 26 51
M  V30 56 1 26 52
M  V30 57 1 27 53
M  V30 END BOND
M  V30 END CTAB
M  END
>  <Dataset>  (295) 
ChEMBL_Kinases

>  <Ligand_Instance>  (295) 
nan

>  <PDB_ID>  (295) 
nan

>  <Standardized_SMILES>  (295) 
C[C@@H](CO)n1c2cnccc2c2cnc(Nc3ccc(N4CC[C@@H](O)C4)cn3)nc21

>  <Name>  (295) 
nan

>  <Pocket>  (295) 
nan

>  <ATP_Site>  (295) 
nan

>  <Peripheral>  (295) 
nan

>  <Num_H_Atoms_ProtBoundConf>  (295) 
nan

>  <Num_Resolved_Atoms>  (295) 
nan

>  <Num_Not_Resolved_Atoms>  (295) 
nan

$$$$
CHEMBL3641928
     RDKit          3D

  0  0  0  0  0  0  0  0  0  0999 V3000
M  V30 BEGIN CTAB
M  V30 COUNTS 63 67 0 0 0
M  V30 BEGIN ATOM
M  V30 1 C 4.529237 1.481648 3.522288 0
M  V30 2 C 3.947412 1.036922 2.195738 0 CFG=1
M  V30 3 C 2.895585 -0.001326 2.492738 0
M  V30 4 O 2.281074 -0.493835 1.353286 0
M  V30 5 N 3.455691 2.153898 1.444663 0
M  V30 6 C 4.169497 3.013972 0.718609 0
M  V30 7 C 5.530194 3.071853 0.492677 0
M  V30 8 N 6.046993 4.056268 -0.297903 0
M  V30 9 C 5.244131 4.969680 -0.858376 0
M  V30 10 C 3.866224 4.959588 -0.665061 0
M  V30 11 C 3.358711 3.967320 0.129932 0
M  V30 12 C 2.088616 3.671330 0.518019 0
M  V30 13 C 0.828969 4.190431 0.307297 0
M  V30 14 N -0.259981 3.615628 0.874665 0
M  V30 15 C -0.159601 2.528355 1.657509 0
M  V30 16 N -1.290308 1.910942 2.261318 0
M  V30 17 C -1.958826 0.856473 1.536262 0
M  V30 18 C -3.061411 0.217672 2.064700 0
M  V30 19 C -3.685232 -0.787820 1.358045 0
M  V30 20 C -3.248754 -1.194302 0.119315 0
M  V30 21 N -3.810637 -2.215059 -0.689547 0
M  V30 22 C -3.373091 -2.590562 -2.018193 0
M  V30 23 C -2.639115 -3.893916 -1.901667 0
M  V30 24 C -3.019680 -4.600175 -0.662987 0
M  V30 25 N -2.611747 -5.965832 -0.562594 0
M  V30 26 C -3.109269 -6.838376 -1.567093 0
M  V30 27 C -1.163645 -6.111294 -0.498544 0
M  V30 28 C -4.529754 -4.524136 -0.388589 0
M  V30 29 C -4.945045 -3.056458 -0.267782 0
M  V30 30 C -2.144529 -0.522759 -0.360443 0
M  V30 31 N -1.532472 0.458796 0.325003 0
M  V30 32 N 1.069572 1.992755 1.884382 0
M  V30 33 C 2.174896 2.543859 1.331965 0
M  V30 34 H 5.112033 2.422283 3.324729 0
M  V30 35 H 3.695820 1.681197 4.234392 0
M  V30 36 H 5.147560 0.700669 3.975793 0
M  V30 37 H 4.741750 0.550579 1.606534 0
M  V30 38 H 2.164376 0.362364 3.259367 0
M  V30 39 H 3.413339 -0.859378 2.976266 0
M  V30 40 H 1.413856 -0.904880 1.638342 0
M  V30 41 H 6.222633 2.354564 0.924517 0
M  V30 42 H 5.659308 5.748196 -1.483956 0
M  V30 43 H 3.182184 5.667175 -1.090535 0
M  V30 44 H 0.762772 5.062188 -0.322060 0
M  V30 45 H -1.667420 2.167678 3.189052 0
M  V30 46 H -3.450198 0.484289 3.019553 0
M  V30 47 H -4.531532 -1.270471 1.774460 0
M  V30 48 H -2.778183 -1.805349 -2.528084 0
M  V30 49 H -4.294685 -2.678235 -2.649874 0
M  V30 50 H -1.547308 -3.612293 -1.820754 0
M  V30 51 H -2.680274 -4.502470 -2.823323 0
M  V30 52 H -2.553233 -4.083799 0.215905 0
M  V30 53 H -4.178007 -6.728325 -1.795646 0
M  V30 54 H -2.999452 -7.878066 -1.136118 0
M  V30 55 H -2.477646 -6.896113 -2.496721 0
M  V30 56 H -0.798612 -5.648967 -1.462199 0
M  V30 57 H -0.710104 -5.600095 0.365226 0
M  V30 58 H -0.895109 -7.184235 -0.584270 0
M  V30 59 H -5.131324 -5.028913 -1.138763 0
M  V30 60 H -4.741402 -4.978854 0.597330 0
M  V30 61 H -5.723317 -2.887811 -1.036675 0
M  V30 62 H -5.301717 -2.800521 0.727984 0
M  V30 63 H -1.655276 -0.686512 -1.289812 0
M  V30 END ATOM
M  V30 BEGIN BOND
M  V30 1 1 1 2
M  V30 2 1 2 3
M  V30 3 1 3 4
M  V30 4 1 2 5
M  V30 5 1 5 6
M  V30 6 2 6 7
M  V30 7 1 7 8
M  V30 8 2 8 9
M  V30 9 1 9 10
M  V30 10 2 10 11
M  V30 11 1 11 12
M  V30 12 2 12 13
M  V30 13 1 13 14
M  V30 14 2 14 15
M  V30 15 1 15 16
M  V30 16 1 16 17
M  V30 17 2 17 18
M  V30 18 1 18 19
M  V30 19 2 19 20
M  V30 20 1 20 21
M  V30 21 1 21 22
M  V30 22 1 22 23
M  V30 23 1 23 24
M  V30 24 1 24 25
M  V30 25 1 25 26
M  V30 26 1 25 27
M  V30 27 1 24 28
M  V30 28 1 28 29
M  V30 29 1 20 30
M  V30 30 2 30 31
M  V30 31 1 15 32
M  V30 32 2 32 33
M  V30 33 1 33 5
M  V30 34 1 11 6
M  V30 35 1 33 12
M  V30 36 1 31 17
M  V30 37 1 29 21
M  V30 38 1 1 34
M  V30 39 1 1 35
M  V30 40 1 1 36
M  V30 41 1 2 37 CFG=3
M  V30 42 1 3 38
M  V30 43 1 3 39
M  V30 44 1 4 40
M  V30 45 1 7 41
M  V30 46 1 9 42
M  V30 47 1 10 43
M  V30 48 1 13 44
M  V30 49 1 16 45
M  V30 50 1 18 46
M  V30 51 1 19 47
M  V30 52 1 22 48
M  V30 53 1 22 49
M  V30 54 1 23 50
M  V30 55 1 23 51
M  V30 56 1 24 52
M  V30 57 1 26 53
M  V30 58 1 26 54
M  V30 59 1 26 55
M  V30 60 1 27 56
M  V30 61 1 27 57
M  V30 62 1 27 58
M  V30 63 1 28 59
M  V30 64 1 28 60
M  V30 65 1 29 61
M  V30 66 1 29 62
M  V30 67 1 30 63
M  V30 END BOND
M  V30 END CTAB
M  END
>  <Dataset>  (296) 
ChEMBL_Kinases

>  <Ligand_Instance>  (296) 
nan

>  <PDB_ID>  (296) 
nan

>  <Standardized_SMILES>  (296) 
C[C@@H](CO)n1c2cnccc2c2cnc(Nc3ccc(N4CCC(N(C)C)CC4)cn3)nc21

>  <Name>  (296) 
nan

>  <Pocket>  (296) 
nan

>  <ATP_Site>  (296) 
nan

>  <Peripheral>  (296) 
nan

>  <Num_H_Atoms_ProtBoundConf>  (296) 
nan

>  <Num_Resolved_Atoms>  (296) 
nan

>  <Num_Not_Resolved_Atoms>  (296) 
nan

$$$$
CHEMBL3641929
     RDKit          3D

  0  0  0  0  0  0  0  0  0  0999 V3000
M  V30 BEGIN CTAB
M  V30 COUNTS 57 62 0 0 0
M  V30 BEGIN ATOM
M  V30 1 O 3.405385 -4.039165 5.968349 0
M  V30 2 C 3.467589 -4.621678 4.700266 0 CFG=2
M  V30 3 C 4.844763 -4.650995 4.114320 0
M  V30 4 C 4.996106 -3.343370 3.425732 0
M  V30 5 N 3.663165 -2.987780 3.011736 0
M  V30 6 C 3.233402 -1.971415 2.082627 0
M  V30 7 C 4.129000 -1.323912 1.259178 0
M  V30 8 C 3.792259 -0.337743 0.354209 0
M  V30 9 C 2.463530 -0.017312 0.309849 0
M  V30 10 N 1.921325 0.970202 -0.590445 0
M  V30 11 C 0.561253 1.372398 -0.644060 0
M  V30 12 N 0.453239 2.585184 -0.038908 0
M  V30 13 C -0.737644 3.227457 0.074077 0
M  V30 14 C -1.797820 2.538156 -0.474676 0
M  V30 15 C -3.140121 2.890706 -0.539905 0
M  V30 16 C -3.840061 4.018107 -0.093101 0
M  V30 17 C -5.200374 4.154331 -0.275637 0
M  V30 18 N -5.859590 3.159831 -0.906347 0
M  V30 19 C -5.241466 2.048713 -1.360133 0
M  V30 20 C -3.863147 1.886826 -1.187503 0
M  V30 21 N -2.970326 0.940176 -1.510393 0
M  V30 22 C -3.295968 -0.273975 -2.182892 0 CFG=1
M  V30 23 C -2.436408 -0.589779 -3.379785 0
M  V30 24 C -2.776800 -2.056373 -3.643852 0
M  V30 25 C -3.391936 -2.597421 -2.374338 0
M  V30 26 C -3.107490 -1.514392 -1.342085 0 CFG=1
M  V30 27 O -1.775236 -1.625065 -0.953054 0
M  V30 28 C -1.746783 1.304222 -1.100157 0
M  V30 29 N -0.508633 0.724764 -1.173063 0
M  V30 30 N 1.562390 -0.633025 1.104755 0
M  V30 31 C 1.926951 -1.593580 1.977900 0
M  V30 32 C 2.669982 -3.844524 3.682075 0
M  V30 33 H 2.496624 -3.709220 6.165132 0
M  V30 34 H 3.032158 -5.651700 4.839057 0
M  V30 35 H 4.927556 -5.497927 3.383780 0
M  V30 36 H 5.630712 -4.818926 4.886632 0
M  V30 37 H 5.378981 -2.606568 4.173877 0
M  V30 38 H 5.681812 -3.422870 2.550973 0
M  V30 39 H 5.192003 -1.595737 1.313013 0
M  V30 40 H 4.496621 0.167029 -0.289500 0
M  V30 41 H 2.604457 1.408595 -1.244927 0
M  V30 42 H -0.899396 4.182027 0.534083 0
M  V30 43 H -3.314054 4.836944 0.421993 0
M  V30 44 H -5.676370 5.049226 0.091859 0
M  V30 45 H -5.733093 1.234430 -1.868536 0
M  V30 46 H -4.350327 -0.286799 -2.566086 0
M  V30 47 H -2.691025 0.027741 -4.266358 0
M  V30 48 H -1.353804 -0.561564 -3.154470 0
M  V30 49 H -3.409053 -2.194530 -4.523229 0
M  V30 50 H -1.855545 -2.650556 -3.820361 0
M  V30 51 H -2.945430 -3.550321 -2.028412 0
M  V30 52 H -4.487470 -2.655866 -2.519573 0
M  V30 53 H -3.785493 -1.578665 -0.477210 0
M  V30 54 H -1.538598 -2.592699 -0.982935 0
M  V30 55 H 1.210409 -2.093586 2.617313 0
M  V30 56 H 1.911131 -3.259096 4.213034 0
M  V30 57 H 2.138672 -4.492681 2.947204 0
M  V30 END ATOM
M  V30 BEGIN BOND
M  V30 1 1 1 2
M  V30 2 1 2 3
M  V30 3 1 3 4
M  V30 4 1 4 5
M  V30 5 1 5 6
M  V30 6 2 6 7
M  V30 7 1 7 8
M  V30 8 2 8 9
M  V30 9 1 9 10
M  V30 10 1 10 11
M  V30 11 2 11 12
M  V30 12 1 12 13
M  V30 13 2 13 14
M  V30 14 1 14 15
M  V30 15 2 15 16
M  V30 16 1 16 17
M  V30 17 2 17 18
M  V30 18 1 18 19
M  V30 19 2 19 20
M  V30 20 1 20 21
M  V30 21 1 21 22
M  V30 22 1 22 23
M  V30 23 1 23 24
M  V30 24 1 24 25
M  V30 25 1 25 26
M  V30 26 1 26 27
M  V30 27 1 21 28
M  V30 28 2 28 29
M  V30 29 1 9 30
M  V30 30 2 30 31
M  V30 31 1 5 32
M  V30 32 1 32 2
M  V30 33 1 31 6
M  V30 34 1 29 11
M  V30 35 1 28 14
M  V30 36 1 20 15
M  V30 37 1 26 22
M  V30 38 1 1 33
M  V30 39 1 2 34 CFG=1
M  V30 40 1 3 35
M  V30 41 1 3 36
M  V30 42 1 4 37
M  V30 43 1 4 38
M  V30 44 1 7 39
M  V30 45 1 8 40
M  V30 46 1 10 41
M  V30 47 1 13 42
M  V30 48 1 16 43
M  V30 49 1 17 44
M  V30 50 1 19 45
M  V30 51 1 22 46 CFG=3
M  V30 52 1 23 47
M  V30 53 1 23 48
M  V30 54 1 24 49
M  V30 55 1 24 50
M  V30 56 1 25 51
M  V30 57 1 25 52
M  V30 58 1 26 53 CFG=1
M  V30 59 1 27 54
M  V30 60 1 31 55
M  V30 61 1 32 56
M  V30 62 1 32 57
M  V30 END BOND
M  V30 END CTAB
M  END
>  <Dataset>  (297) 
ChEMBL_Kinases

>  <Ligand_Instance>  (297) 
nan

>  <PDB_ID>  (297) 
nan

>  <Standardized_SMILES>  (297) 
O[C@@H]1CCN(c2ccc(Nc3ncc4c5ccncc5n([C@H]5CCC[C@H]5O)c4n3)nc2)C1

>  <Name>  (297) 
nan

>  <Pocket>  (297) 
nan

>  <ATP_Site>  (297) 
nan

>  <Peripheral>  (297) 
nan

>  <Num_H_Atoms_ProtBoundConf>  (297) 
nan

>  <Num_Resolved_Atoms>  (297) 
nan

>  <Num_Not_Resolved_Atoms>  (297) 
nan

$$$$
CHEMBL3641930
     RDKit          3D

  0  0  0  0  0  0  0  0  0  0999 V3000
M  V30 BEGIN CTAB
M  V30 COUNTS 62 66 0 0 0
M  V30 BEGIN ATOM
M  V30 1 C 3.832514 0.382272 3.383518 0
M  V30 2 C 2.691763 0.224677 2.407336 0 CFG=1
M  V30 3 C 1.416930 0.074756 3.175265 0
M  V30 4 O 1.153625 1.175632 3.983950 0
M  V30 5 N 2.624292 1.339550 1.478277 0
M  V30 6 C 3.642950 1.836200 0.753472 0
M  V30 7 C 4.993844 1.506846 0.641686 0
M  V30 8 N 5.829083 2.179064 -0.180734 0
M  V30 9 C 5.352978 3.204690 -0.923895 0
M  V30 10 C 4.009106 3.592251 -0.864565 0
M  V30 11 C 3.184922 2.888144 -0.017603 0
M  V30 12 C 1.838633 3.053335 0.234144 0
M  V30 13 C 0.871949 3.894014 -0.209487 0
M  V30 14 N -0.397688 3.792245 0.246963 0
M  V30 15 C -0.733678 2.850867 1.155691 0
M  V30 16 N -1.946993 2.487093 1.796954 0
M  V30 17 C -2.437557 1.194146 1.455541 0
M  V30 18 C -3.635291 0.753815 2.042690 0
M  V30 19 C -4.140427 -0.499279 1.756186 0
M  V30 20 C -3.458228 -1.322557 0.882978 0
M  V30 21 N -3.722925 -2.640864 0.416772 0
M  V30 22 C -4.408450 -2.918495 -0.831898 0
M  V30 23 C -3.331579 -3.294354 -1.818109 0
M  V30 24 C -2.241125 -4.030863 -1.134705 0
M  V30 25 N -1.524748 -4.919115 -2.043360 0
M  V30 26 C -0.986106 -4.170589 -3.173604 0
M  V30 27 C -0.338883 -5.434896 -1.344911 0
M  V30 28 C -2.814820 -4.859089 0.002629 0
M  V30 29 C -3.349109 -3.908996 1.096321 0
M  V30 30 N -2.299162 -0.862113 0.330104 0
M  V30 31 N -1.829172 0.341489 0.615988 0
M  V30 32 N 0.250407 2.020043 1.585656 0
M  V30 33 C 1.525829 2.087485 1.156514 0
M  V30 34 H 4.247616 1.399105 3.286308 0
M  V30 35 H 3.459585 0.290708 4.445498 0
M  V30 36 H 4.617805 -0.396092 3.279641 0
M  V30 37 H 2.839645 -0.740426 1.843738 0
M  V30 38 H 0.591829 -0.155078 2.459448 0
M  V30 39 H 1.504635 -0.832851 3.815496 0
M  V30 40 H 1.856735 1.879934 3.888058 0
M  V30 41 H 5.404242 0.681309 1.231371 0
M  V30 42 H 6.104094 3.664848 -1.540309 0
M  V30 43 H 3.703959 4.421280 -1.487935 0
M  V30 44 H 1.055803 4.659255 -0.918708 0
M  V30 45 H -2.453557 3.081785 2.455102 0
M  V30 46 H -4.200144 1.347550 2.719536 0
M  V30 47 H -5.027156 -0.965597 2.122460 0
M  V30 48 H -4.964232 -2.005179 -1.164475 0
M  V30 49 H -5.110969 -3.759624 -0.653744 0
M  V30 50 H -2.854156 -2.357180 -2.244074 0
M  V30 51 H -3.729264 -3.803229 -2.722192 0
M  V30 52 H -1.496664 -3.361433 -0.662667 0
M  V30 53 H -1.801712 -3.818889 -3.851044 0
M  V30 54 H -0.402819 -4.908065 -3.778096 0
M  V30 55 H -0.283041 -3.375706 -2.884199 0
M  V30 56 H 0.554906 -5.447684 -2.007364 0
M  V30 57 H -0.127071 -4.783555 -0.456890 0
M  V30 58 H -0.560279 -6.454550 -0.987398 0
M  V30 59 H -3.606164 -5.553368 -0.345181 0
M  V30 60 H -2.026510 -5.457675 0.483785 0
M  V30 61 H -4.208602 -4.405398 1.544447 0
M  V30 62 H -2.512578 -3.683838 1.757332 0
M  V30 END ATOM
M  V30 BEGIN BOND
M  V30 1 1 1 2
M  V30 2 1 2 3
M  V30 3 1 3 4
M  V30 4 1 2 5
M  V30 5 1 5 6
M  V30 6 2 6 7
M  V30 7 1 7 8
M  V30 8 2 8 9
M  V30 9 1 9 10
M  V30 10 2 10 11
M  V30 11 1 11 12
M  V30 12 2 12 13
M  V30 13 1 13 14
M  V30 14 2 14 15
M  V30 15 1 15 16
M  V30 16 1 16 17
M  V30 17 2 17 18
M  V30 18 1 18 19
M  V30 19 2 19 20
M  V30 20 1 20 21
M  V30 21 1 21 22
M  V30 22 1 22 23
M  V30 23 1 23 24
M  V30 24 1 24 25
M  V30 25 1 25 26
M  V30 26 1 25 27
M  V30 27 1 24 28
M  V30 28 1 28 29
M  V30 29 1 20 30
M  V30 30 2 30 31
M  V30 31 1 15 32
M  V30 32 2 32 33
M  V30 33 1 33 5
M  V30 34 1 11 6
M  V30 35 1 33 12
M  V30 36 1 31 17
M  V30 37 1 29 21
M  V30 38 1 1 34
M  V30 39 1 1 35
M  V30 40 1 1 36
M  V30 41 1 2 37 CFG=3
M  V30 42 1 3 38
M  V30 43 1 3 39
M  V30 44 1 4 40
M  V30 45 1 7 41
M  V30 46 1 9 42
M  V30 47 1 10 43
M  V30 48 1 13 44
M  V30 49 1 16 45
M  V30 50 1 18 46
M  V30 51 1 19 47
M  V30 52 1 22 48
M  V30 53 1 22 49
M  V30 54 1 23 50
M  V30 55 1 23 51
M  V30 56 1 24 52
M  V30 57 1 26 53
M  V30 58 1 26 54
M  V30 59 1 26 55
M  V30 60 1 27 56
M  V30 61 1 27 57
M  V30 62 1 27 58
M  V30 63 1 28 59
M  V30 64 1 28 60
M  V30 65 1 29 61
M  V30 66 1 29 62
M  V30 END BOND
M  V30 END CTAB
M  END
>  <Dataset>  (298) 
ChEMBL_Kinases

>  <Ligand_Instance>  (298) 
nan

>  <PDB_ID>  (298) 
nan

>  <Standardized_SMILES>  (298) 
C[C@@H](CO)n1c2cnccc2c2cnc(Nc3ccc(N4CCC(N(C)C)CC4)nn3)nc21

>  <Name>  (298) 
nan

>  <Pocket>  (298) 
nan

>  <ATP_Site>  (298) 
nan

>  <Peripheral>  (298) 
nan

>  <Num_H_Atoms_ProtBoundConf>  (298) 
nan

>  <Num_Resolved_Atoms>  (298) 
nan

>  <Num_Not_Resolved_Atoms>  (298) 
nan

$$$$
CHEMBL3641940
     RDKit          3D

  0  0  0  0  0  0  0  0  0  0999 V3000
M  V30 BEGIN CTAB
M  V30 COUNTS 53 57 0 0 0
M  V30 BEGIN ATOM
M  V30 1 C 1.403334 -1.722893 0.944673 0
M  V30 2 C 2.734631 -1.318486 1.508606 0 CFG=2
M  V30 3 C 2.716838 -1.769096 2.974208 0
M  V30 4 O 2.537981 -3.150263 2.997604 0
M  V30 5 N 3.003838 0.085354 1.398970 0
M  V30 6 C 4.215779 0.612559 1.653637 0
M  V30 7 C 5.446471 0.108289 2.046513 0
M  V30 8 N 6.517326 0.936577 2.224717 0
M  V30 9 C 6.412351 2.262576 2.025508 0
M  V30 10 C 5.229973 2.843796 1.635563 0
M  V30 11 C 4.159609 1.977996 1.462332 0
M  V30 12 C 2.851178 2.211367 1.083739 0
M  V30 13 C 2.237716 3.402739 0.766508 0
M  V30 14 N 0.936787 3.378920 0.423138 0
M  V30 15 C 0.213675 2.241556 0.377452 0
M  V30 16 N -1.160519 2.249785 0.010481 0
M  V30 17 C -1.964253 1.077793 -0.052476 0
M  V30 18 C -3.289430 1.130269 -0.411970 0
M  V30 19 C -4.082555 -0.003249 -0.477140 0
M  V30 20 C -3.423862 -1.170825 -0.151474 0
M  V30 21 N -4.163125 -2.385892 -0.191809 0
M  V30 22 C -5.559439 -2.593689 -0.536388 0
M  V30 23 C -5.373373 -3.613983 -1.663346 0
M  V30 24 C -4.238142 -4.461061 -1.129219 0 CFG=1
M  V30 25 O -3.174904 -4.516520 -2.023788 0
M  V30 26 C -3.715883 -3.735642 0.100607 0
M  V30 27 C -2.094851 -1.239008 0.211064 0
M  V30 28 N -1.401483 -0.087166 0.247321 0
M  V30 29 N 0.815797 1.058583 0.690582 0
M  V30 30 C 2.119475 1.034744 1.040841 0
M  V30 31 H 1.232401 -1.415378 -0.086279 0
M  V30 32 H 1.360244 -2.845734 1.025067 0
M  V30 33 H 0.636165 -1.373183 1.673079 0
M  V30 34 H 3.572652 -1.846393 0.999761 0
M  V30 35 H 1.861827 -1.239586 3.468901 0
M  V30 36 H 3.612221 -1.427885 3.528858 0
M  V30 37 H 2.980585 -3.588020 2.228847 0
M  V30 38 H 5.563944 -0.953342 2.214923 0
M  V30 39 H 7.328708 2.807892 2.199113 0
M  V30 40 H 5.171389 3.895260 1.484170 0
M  V30 41 H 2.739666 4.359384 0.776635 0
M  V30 42 H -1.602460 3.165610 -0.225227 0
M  V30 43 H -3.724125 2.093494 -0.651689 0
M  V30 44 H -5.104375 0.084266 -0.760402 0
M  V30 45 H -6.082855 -1.702101 -0.872863 0
M  V30 46 H -6.070273 -3.145678 0.271437 0
M  V30 47 H -5.045845 -3.014441 -2.545831 0
M  V30 48 H -6.285097 -4.196236 -1.859544 0
M  V30 49 H -4.646075 -5.456354 -0.887391 0
M  V30 50 H -3.322474 -3.962634 -2.834966 0
M  V30 51 H -2.652419 -3.849347 0.270582 0
M  V30 52 H -4.274223 -4.120266 0.999857 0
M  V30 53 H -1.574456 -2.128443 0.464112 0
M  V30 END ATOM
M  V30 BEGIN BOND
M  V30 1 1 1 2
M  V30 2 1 2 3
M  V30 3 1 3 4
M  V30 4 1 2 5
M  V30 5 1 5 6
M  V30 6 2 6 7
M  V30 7 1 7 8
M  V30 8 2 8 9
M  V30 9 1 9 10
M  V30 10 2 10 11
M  V30 11 1 11 12
M  V30 12 2 12 13
M  V30 13 1 13 14
M  V30 14 2 14 15
M  V30 15 1 15 16
M  V30 16 1 16 17
M  V30 17 2 17 18
M  V30 18 1 18 19
M  V30 19 2 19 20
M  V30 20 1 20 21
M  V30 21 1 21 22
M  V30 22 1 22 23
M  V30 23 1 23 24
M  V30 24 1 24 25
M  V30 25 1 24 26
M  V30 26 1 20 27
M  V30 27 2 27 28
M  V30 28 1 15 29
M  V30 29 2 29 30
M  V30 30 1 30 5
M  V30 31 1 11 6
M  V30 32 1 30 12
M  V30 33 1 28 17
M  V30 34 1 26 21
M  V30 35 1 1 31
M  V30 36 1 1 32
M  V30 37 1 1 33
M  V30 38 1 2 34 CFG=3
M  V30 39 1 3 35
M  V30 40 1 3 36
M  V30 41 1 4 37
M  V30 42 1 7 38
M  V30 43 1 9 39
M  V30 44 1 10 40
M  V30 45 1 13 41
M  V30 46 1 16 42
M  V30 47 1 18 43
M  V30 48 1 19 44
M  V30 49 1 22 45
M  V30 50 1 22 46
M  V30 51 1 23 47
M  V30 52 1 23 48
M  V30 53 1 24 49 CFG=1
M  V30 54 1 25 50
M  V30 55 1 26 51
M  V30 56 1 26 52
M  V30 57 1 27 53
M  V30 END BOND
M  V30 END CTAB
M  END
>  <Dataset>  (299) 
ChEMBL_Kinases

>  <Ligand_Instance>  (299) 
nan

>  <PDB_ID>  (299) 
nan

>  <Standardized_SMILES>  (299) 
C[C@H](CO)n1c2cnccc2c2cnc(Nc3ccc(N4CC[C@@H](O)C4)cn3)nc21

>  <Name>  (299) 
nan

>  <Pocket>  (299) 
nan

>  <ATP_Site>  (299) 
nan

>  <Peripheral>  (299) 
nan

>  <Num_H_Atoms_ProtBoundConf>  (299) 
nan

>  <Num_Resolved_Atoms>  (299) 
nan

>  <Num_Not_Resolved_Atoms>  (299) 
nan

$$$$
CHEMBL3641932
     RDKit          3D

  0  0  0  0  0  0  0  0  0  0999 V3000
M  V30 BEGIN CTAB
M  V30 COUNTS 52 56 0 0 0
M  V30 BEGIN ATOM
M  V30 1 C 0.719509 -0.219815 3.483436 0
M  V30 2 C 2.076044 -0.655054 3.013288 0 CFG=1
M  V30 3 C 1.945773 -2.023344 2.379751 0
M  V30 4 O 1.452833 -2.944621 3.315973 0
M  V30 5 N 2.685536 0.297952 2.130396 0
M  V30 6 C 4.012119 0.495347 1.888789 0
M  V30 7 C 5.091510 -0.173169 2.427678 0
M  V30 8 N 6.332398 0.218918 2.015139 0
M  V30 9 C 6.472767 1.228004 1.109947 0
M  V30 10 C 5.389946 1.918341 0.551962 0
M  V30 11 C 4.126433 1.534263 0.959072 0
M  V30 12 C 2.859844 1.971085 0.634126 0
M  V30 13 C 2.440965 2.962907 -0.228952 0
M  V30 14 N 1.100496 3.150066 -0.331868 0
M  V30 15 C 0.227541 2.413420 0.365501 0
M  V30 16 N -1.193872 2.471264 0.375868 0
M  V30 17 C -1.906305 1.236636 0.140122 0
M  V30 18 C -3.285865 1.102569 0.108353 0
M  V30 19 C -3.887618 -0.098935 -0.127672 0
M  V30 20 C -3.128130 -1.225052 -0.343132 0
M  V30 21 N -3.625706 -2.526800 -0.604927 0
M  V30 22 C -4.936182 -3.111430 -0.801919 0
M  V30 23 C -4.753359 -3.672806 -2.220531 0
M  V30 24 C -3.375445 -4.287599 -2.066360 0 CFG=1
M  V30 25 O -2.485202 -3.875160 -3.053517 0
M  V30 26 C -2.835777 -3.735561 -0.750293 0
M  V30 27 N -1.802143 -1.038140 -0.300395 0
M  V30 28 N -1.210851 0.093765 -0.078029 0
M  V30 29 N 0.671239 1.445925 1.206458 0
M  V30 30 C 1.982979 1.191001 1.371118 0
M  V30 31 H -0.098892 -0.457299 2.751434 0
M  V30 32 H 0.475786 -0.831864 4.387311 0
M  V30 33 H 0.706872 0.858153 3.706419 0
M  V30 34 H 2.694782 -0.767418 3.944966 0
M  V30 35 H 2.952800 -2.395413 2.093419 0
M  V30 36 H 1.241249 -2.004682 1.529055 0
M  V30 37 H 0.611681 -3.389289 3.016417 0
M  V30 38 H 4.918645 -0.966457 3.141674 0
M  V30 39 H 7.487744 1.491020 0.822797 0
M  V30 40 H 5.533472 2.704829 -0.155120 0
M  V30 41 H 3.094425 3.574417 -0.805133 0
M  V30 42 H -1.787412 3.317392 0.537918 0
M  V30 43 H -3.856943 1.994311 0.280099 0
M  V30 44 H -4.963116 -0.204632 -0.151866 0
M  V30 45 H -5.773204 -2.427007 -0.717698 0
M  V30 46 H -5.048290 -4.011381 -0.143534 0
M  V30 47 H -5.526902 -4.402161 -2.482967 0
M  V30 48 H -4.678959 -2.799277 -2.894523 0
M  V30 49 H -3.481810 -5.381666 -2.022783 0
M  V30 50 H -1.568266 -3.972442 -2.662415 0
M  V30 51 H -1.738494 -3.498790 -0.824474 0
M  V30 52 H -2.992305 -4.470862 0.063314 0
M  V30 END ATOM
M  V30 BEGIN BOND
M  V30 1 1 1 2
M  V30 2 1 2 3
M  V30 3 1 3 4
M  V30 4 1 2 5
M  V30 5 1 5 6
M  V30 6 2 6 7
M  V30 7 1 7 8
M  V30 8 2 8 9
M  V30 9 1 9 10
M  V30 10 2 10 11
M  V30 11 1 11 12
M  V30 12 2 12 13
M  V30 13 1 13 14
M  V30 14 2 14 15
M  V30 15 1 15 16
M  V30 16 1 16 17
M  V30 17 2 17 18
M  V30 18 1 18 19
M  V30 19 2 19 20
M  V30 20 1 20 21
M  V30 21 1 21 22
M  V30 22 1 22 23
M  V30 23 1 23 24
M  V30 24 1 24 25
M  V30 25 1 24 26
M  V30 26 1 20 27
M  V30 27 2 27 28
M  V30 28 1 15 29
M  V30 29 2 29 30
M  V30 30 1 30 5
M  V30 31 1 11 6
M  V30 32 1 30 12
M  V30 33 1 28 17
M  V30 34 1 26 21
M  V30 35 1 1 31
M  V30 36 1 1 32
M  V30 37 1 1 33
M  V30 38 1 2 34 CFG=1
M  V30 39 1 3 35
M  V30 40 1 3 36
M  V30 41 1 4 37
M  V30 42 1 7 38
M  V30 43 1 9 39
M  V30 44 1 10 40
M  V30 45 1 13 41
M  V30 46 1 16 42
M  V30 47 1 18 43
M  V30 48 1 19 44
M  V30 49 1 22 45
M  V30 50 1 22 46
M  V30 51 1 23 47
M  V30 52 1 23 48
M  V30 53 1 24 49 CFG=1
M  V30 54 1 25 50
M  V30 55 1 26 51
M  V30 56 1 26 52
M  V30 END BOND
M  V30 END CTAB
M  END
>  <Dataset>  (300) 
ChEMBL_Kinases

>  <Ligand_Instance>  (300) 
nan

>  <PDB_ID>  (300) 
nan

>  <Standardized_SMILES>  (300) 
C[C@@H](CO)n1c2cnccc2c2cnc(Nc3ccc(N4CC[C@@H](O)C4)nn3)nc21

>  <Name>  (300) 
nan

>  <Pocket>  (300) 
nan

>  <ATP_Site>  (300) 
nan

>  <Peripheral>  (300) 
nan

>  <Num_H_Atoms_ProtBoundConf>  (300) 
nan

>  <Num_Resolved_Atoms>  (300) 
nan

>  <Num_Not_Resolved_Atoms>  (300) 
nan

$$$$
CHEMBL3641933
     RDKit          3D

  0  0  0  0  0  0  0  0  0  0999 V3000
M  V30 BEGIN CTAB
M  V30 COUNTS 54 58 0 0 0
M  V30 BEGIN ATOM
M  V30 1 C 1.230735 -1.464354 1.808528 0
M  V30 2 C 2.199965 -0.740643 2.680820 0 CFG=2
M  V30 3 C 1.476860 -0.308169 3.963345 0
M  V30 4 O 0.973436 -1.376037 4.665552 0
M  V30 5 N 2.747372 0.450407 2.107681 0
M  V30 6 C 3.860049 1.037096 2.586088 0
M  V30 7 C 4.732401 0.758695 3.622472 0
M  V30 8 N 5.799386 1.562287 3.865418 0
M  V30 9 C 6.030832 2.656422 3.094287 0
M  V30 10 C 5.208863 3.013997 2.032412 0
M  V30 11 C 4.134642 2.158086 1.829795 0
M  V30 12 C 3.123441 2.189095 0.889619 0
M  V30 13 C 2.880662 3.084166 -0.131207 0
M  V30 14 N 1.816208 2.909679 -0.935444 0
M  V30 15 C 0.966210 1.862868 -0.764743 0
M  V30 16 N -0.151973 1.702038 -1.629979 0
M  V30 17 C -1.090896 0.614971 -1.505064 0
M  V30 18 C -2.160647 0.496789 -2.364500 0
M  V30 19 C -3.042028 -0.552612 -2.222123 0
M  V30 20 C -2.897378 -1.507947 -1.238106 0
M  V30 21 N -3.743527 -2.608762 -1.016397 0
M  V30 22 C -3.550450 -3.620978 0.017291 0
M  V30 23 C -4.230880 -4.921210 -0.344507 0
M  V30 24 N -4.173397 -5.231791 -1.751039 0
M  V30 25 C -4.685400 -4.164028 -2.579452 0
M  V30 26 C -4.935681 -2.901481 -1.782929 0
M  V30 27 C -1.808289 -1.333425 -0.411491 0
M  V30 28 N -0.930773 -0.308041 -0.535971 0
M  V30 29 N 1.192451 0.982797 0.227785 0
M  V30 30 C 2.250696 1.125245 1.055102 0
M  V30 31 H 1.494620 -1.351323 0.725727 0
M  V30 32 H 0.180014 -1.250236 2.029604 0
M  V30 33 H 1.349945 -2.568032 2.017485 0
M  V30 34 H 3.024784 -1.398622 3.019273 0
M  V30 35 H 0.666200 0.412618 3.727160 0
M  V30 36 H 2.207778 0.207617 4.630303 0
M  V30 37 H 0.982313 -2.216828 4.143345 0
M  V30 38 H 4.561623 -0.115853 4.251647 0
M  V30 39 H 6.883556 3.298154 3.288612 0
M  V30 40 H 5.369421 3.869132 1.411342 0
M  V30 41 H 3.497427 3.939821 -0.341020 0
M  V30 42 H -0.312422 2.394363 -2.394090 0
M  V30 43 H -2.314534 1.227837 -3.156556 0
M  V30 44 H -3.875881 -0.646859 -2.890441 0
M  V30 45 H -4.095609 -3.215891 0.907624 0
M  V30 46 H -2.503271 -3.741970 0.286087 0
M  V30 47 H -3.714824 -5.736572 0.195742 0
M  V30 48 H -5.281566 -4.903528 -0.006308 0
M  V30 49 H -3.234568 -5.566198 -2.055198 0
M  V30 50 H -5.666945 -4.502350 -2.974200 0
M  V30 51 H -4.022929 -3.976998 -3.449142 0
M  V30 52 H -5.212116 -2.123862 -2.503717 0
M  V30 53 H -5.789977 -3.154746 -1.099916 0
M  V30 54 H -1.524970 -1.968288 0.412094 0
M  V30 END ATOM
M  V30 BEGIN BOND
M  V30 1 1 1 2
M  V30 2 1 2 3
M  V30 3 1 3 4
M  V30 4 1 2 5
M  V30 5 1 5 6
M  V30 6 2 6 7
M  V30 7 1 7 8
M  V30 8 2 8 9
M  V30 9 1 9 10
M  V30 10 2 10 11
M  V30 11 1 11 12
M  V30 12 2 12 13
M  V30 13 1 13 14
M  V30 14 2 14 15
M  V30 15 1 15 16
M  V30 16 1 16 17
M  V30 17 2 17 18
M  V30 18 1 18 19
M  V30 19 2 19 20
M  V30 20 1 20 21
M  V30 21 1 21 22
M  V30 22 1 22 23
M  V30 23 1 23 24
M  V30 24 1 24 25
M  V30 25 1 25 26
M  V30 26 1 20 27
M  V30 27 2 27 28
M  V30 28 1 15 29
M  V30 29 2 29 30
M  V30 30 1 30 5
M  V30 31 1 11 6
M  V30 32 1 30 12
M  V30 33 1 28 17
M  V30 34 1 26 21
M  V30 35 1 1 31
M  V30 36 1 1 32
M  V30 37 1 1 33
M  V30 38 1 2 34 CFG=1
M  V30 39 1 3 35
M  V30 40 1 3 36
M  V30 41 1 4 37
M  V30 42 1 7 38
M  V30 43 1 9 39
M  V30 44 1 10 40
M  V30 45 1 13 41
M  V30 46 1 16 42
M  V30 47 1 18 43
M  V30 48 1 19 44
M  V30 49 1 22 45
M  V30 50 1 22 46
M  V30 51 1 23 47
M  V30 52 1 23 48
M  V30 53 1 24 49
M  V30 54 1 25 50
M  V30 55 1 25 51
M  V30 56 1 26 52
M  V30 57 1 26 53
M  V30 58 1 27 54
M  V30 END BOND
M  V30 END CTAB
M  END
>  <Dataset>  (301) 
ChEMBL_Kinases

>  <Ligand_Instance>  (301) 
nan

>  <PDB_ID>  (301) 
nan

>  <Standardized_SMILES>  (301) 
C[C@H](CO)n1c2cnccc2c2cnc(Nc3ccc(N4CCNCC4)cn3)nc21

>  <Name>  (301) 
nan

>  <Pocket>  (301) 
nan

>  <ATP_Site>  (301) 
nan

>  <Peripheral>  (301) 
nan

>  <Num_H_Atoms_ProtBoundConf>  (301) 
nan

>  <Num_Resolved_Atoms>  (301) 
nan

>  <Num_Not_Resolved_Atoms>  (301) 
nan

$$$$
CHEMBL3641934
     RDKit          3D

  0  0  0  0  0  0  0  0  0  0999 V3000
M  V30 BEGIN CTAB
M  V30 COUNTS 63 67 0 0 0
M  V30 BEGIN ATOM
M  V30 1 C 4.513361 -0.042110 1.729861 0
M  V30 2 C 3.800200 0.993550 2.573626 0 CFG=2
M  V30 3 C 2.759418 0.291585 3.386871 0
M  V30 4 O 1.839872 -0.353107 2.562076 0
M  V30 5 N 3.294782 2.094202 1.796301 0
M  V30 6 C 4.149544 2.887380 1.126002 0
M  V30 7 C 5.499991 3.011420 0.908792 0
M  V30 8 N 6.062287 3.955674 0.152118 0
M  V30 9 C 5.341228 4.894046 -0.481748 0
M  V30 10 C 3.964813 4.832379 -0.308628 0
M  V30 11 C 3.389000 3.854168 0.474664 0
M  V30 12 C 2.056167 3.659748 0.742215 0
M  V30 13 C 0.831165 4.215335 0.440533 0
M  V30 14 N -0.314075 3.709296 0.923112 0
M  V30 15 C -0.318646 2.631923 1.726846 0
M  V30 16 N -1.442499 1.984299 2.313037 0
M  V30 17 C -2.073878 0.949275 1.540183 0
M  V30 18 C -3.166756 0.258912 2.021996 0
M  V30 19 C -3.777665 -0.731463 1.283149 0
M  V30 20 C -3.322947 -1.075825 0.028763 0
M  V30 21 N -3.861494 -2.073966 -0.825344 0
M  V30 22 C -3.425225 -2.388426 -2.170095 0
M  V30 23 C -2.754839 -3.725671 -2.138326 0
M  V30 24 C -2.974009 -4.389875 -0.832403 0
M  V30 25 N -2.404702 -5.675717 -0.662754 0
M  V30 26 C -2.819775 -6.703887 -1.550635 0
M  V30 27 C -0.966060 -5.602403 -0.577085 0
M  V30 28 C -4.469690 -4.400520 -0.474096 0
M  V30 29 C -4.974239 -2.951813 -0.430549 0
M  V30 30 C -2.229781 -0.359766 -0.410270 0
M  V30 31 N -1.638734 0.604951 0.315598 0
M  V30 32 N 0.875824 2.080796 2.028221 0
M  V30 33 C 2.039683 2.547628 1.573269 0
M  V30 34 H 4.225970 0.022026 0.647403 0
M  V30 35 H 5.601246 -0.026610 1.851308 0
M  V30 36 H 4.198225 -1.087480 2.016469 0
M  V30 37 H 4.568044 1.405175 3.265617 0
M  V30 38 H 3.283948 -0.510493 3.951262 0
M  V30 39 H 2.255317 0.949076 4.116124 0
M  V30 40 H 1.848255 -1.326702 2.660921 0
M  V30 41 H 6.143800 2.274396 1.399761 0
M  V30 42 H 5.763875 5.669425 -1.099957 0
M  V30 43 H 3.373378 5.582593 -0.814119 0
M  V30 44 H 0.835321 5.069206 -0.196595 0
M  V30 45 H -1.842534 2.195308 3.246856 0
M  V30 46 H -3.578861 0.468066 2.987223 0
M  V30 47 H -4.615682 -1.250889 1.669431 0
M  V30 48 H -2.802268 -1.598151 -2.636210 0
M  V30 49 H -4.354525 -2.402573 -2.814230 0
M  V30 50 H -1.649948 -3.510440 -2.232618 0
M  V30 51 H -2.975850 -4.353234 -3.019492 0
M  V30 52 H -2.528896 -3.744945 -0.023894 0
M  V30 53 H -3.840822 -7.099630 -1.377593 0
M  V30 54 H -2.150102 -7.587436 -1.327795 0
M  V30 55 H -2.654272 -6.499775 -2.629775 0
M  V30 56 H -0.604784 -5.120347 -1.516123 0
M  V30 57 H -0.638861 -4.938332 0.253747 0
M  V30 58 H -0.492285 -6.600838 -0.532858 0
M  V30 59 H -5.064002 -5.025436 -1.140300 0
M  V30 60 H -4.575366 -4.810362 0.548860 0
M  V30 61 H -5.743029 -2.852250 -1.217725 0
M  V30 62 H -5.388935 -2.726916 0.543339 0
M  V30 63 H -1.734139 -0.477020 -1.344044 0
M  V30 END ATOM
M  V30 BEGIN BOND
M  V30 1 1 1 2
M  V30 2 1 2 3
M  V30 3 1 3 4
M  V30 4 1 2 5
M  V30 5 1 5 6
M  V30 6 2 6 7
M  V30 7 1 7 8
M  V30 8 2 8 9
M  V30 9 1 9 10
M  V30 10 2 10 11
M  V30 11 1 11 12
M  V30 12 2 12 13
M  V30 13 1 13 14
M  V30 14 2 14 15
M  V30 15 1 15 16
M  V30 16 1 16 17
M  V30 17 2 17 18
M  V30 18 1 18 19
M  V30 19 2 19 20
M  V30 20 1 20 21
M  V30 21 1 21 22
M  V30 22 1 22 23
M  V30 23 1 23 24
M  V30 24 1 24 25
M  V30 25 1 25 26
M  V30 26 1 25 27
M  V30 27 1 24 28
M  V30 28 1 28 29
M  V30 29 1 20 30
M  V30 30 2 30 31
M  V30 31 1 15 32
M  V30 32 2 32 33
M  V30 33 1 33 5
M  V30 34 1 11 6
M  V30 35 1 33 12
M  V30 36 1 31 17
M  V30 37 1 29 21
M  V30 38 1 1 34
M  V30 39 1 1 35
M  V30 40 1 1 36
M  V30 41 1 2 37 CFG=1
M  V30 42 1 3 38
M  V30 43 1 3 39
M  V30 44 1 4 40
M  V30 45 1 7 41
M  V30 46 1 9 42
M  V30 47 1 10 43
M  V30 48 1 13 44
M  V30 49 1 16 45
M  V30 50 1 18 46
M  V30 51 1 19 47
M  V30 52 1 22 48
M  V30 53 1 22 49
M  V30 54 1 23 50
M  V30 55 1 23 51
M  V30 56 1 24 52
M  V30 57 1 26 53
M  V30 58 1 26 54
M  V30 59 1 26 55
M  V30 60 1 27 56
M  V30 61 1 27 57
M  V30 62 1 27 58
M  V30 63 1 28 59
M  V30 64 1 28 60
M  V30 65 1 29 61
M  V30 66 1 29 62
M  V30 67 1 30 63
M  V30 END BOND
M  V30 END CTAB
M  END
>  <Dataset>  (302) 
ChEMBL_Kinases

>  <Ligand_Instance>  (302) 
nan

>  <PDB_ID>  (302) 
nan

>  <Standardized_SMILES>  (302) 
C[C@H](CO)n1c2cnccc2c2cnc(Nc3ccc(N4CCC(N(C)C)CC4)cn3)nc21

>  <Name>  (302) 
nan

>  <Pocket>  (302) 
nan

>  <ATP_Site>  (302) 
nan

>  <Peripheral>  (302) 
nan

>  <Num_H_Atoms_ProtBoundConf>  (302) 
nan

>  <Num_Resolved_Atoms>  (302) 
nan

>  <Num_Not_Resolved_Atoms>  (302) 
nan

$$$$
CHEMBL3641935
     RDKit          3D

  0  0  0  0  0  0  0  0  0  0999 V3000
M  V30 BEGIN CTAB
M  V30 COUNTS 56 60 0 0 0
M  V30 BEGIN ATOM
M  V30 1 C 0.875893 -6.471074 2.636712 0
M  V30 2 C 0.605368 -5.719701 1.352733 0 CFG=1
M  V30 3 C 1.814323 -4.838432 1.125237 0
M  V30 4 N 1.877953 -4.374297 -0.247895 0
M  V30 5 C 1.859224 -3.008869 -0.645249 0
M  V30 6 C 1.532208 -2.062981 0.281014 0
M  V30 7 C 1.526666 -0.752410 -0.178427 0
M  V30 8 C 1.824610 -0.412137 -1.470889 0
M  V30 9 N 1.777748 0.921628 -1.945202 0
M  V30 10 C 1.381332 1.997844 -1.094081 0
M  V30 11 N 1.998674 3.101870 -0.595892 0
M  V30 12 C 1.325046 3.936064 0.204026 0
M  V30 13 C 0.014469 3.676703 0.519916 0
M  V30 14 C -0.887471 4.388074 1.326400 0
M  V30 15 C -0.761469 5.552474 2.046603 0
M  V30 16 C -1.898653 5.934115 2.724812 0
M  V30 17 N -3.068687 5.242193 2.706614 0
M  V30 18 C -3.169024 4.091923 1.985953 0
M  V30 19 C -2.065093 3.676395 1.298405 0
M  V30 20 N -1.878249 2.601161 0.519428 0
M  V30 21 C -2.779910 1.515157 0.147832 0 CFG=1
M  V30 22 C -2.703547 1.172882 -1.309388 0
M  V30 23 C -2.441184 0.269590 0.976894 0
M  V30 24 O -2.573508 0.508495 2.340870 0
M  V30 25 C -0.614759 2.551009 0.012389 0
M  V30 26 N 0.102908 1.745164 -0.784736 0
M  V30 27 N 2.139970 -1.395593 -2.334273 0
M  V30 28 N 2.152353 -2.661600 -1.915219 0
M  V30 29 C 1.936077 -5.507012 -1.156827 0
M  V30 30 C 0.555760 -6.169553 -1.021992 0
M  V30 31 N 0.433496 -6.684811 0.300667 0
M  V30 32 H 1.003522 -7.554251 2.425398 0
M  V30 33 H 1.803157 -6.142418 3.153126 0
M  V30 34 H -0.006789 -6.387502 3.311833 0
M  V30 35 H -0.269008 -5.078255 1.511870 0
M  V30 36 H 1.906897 -4.070046 1.884503 0
M  V30 37 H 2.707871 -5.514533 1.267549 0
M  V30 38 H 1.283952 -2.221403 1.310167 0
M  V30 39 H 1.277083 0.058873 0.490954 0
M  V30 40 H 2.027911 1.198985 -2.913279 0
M  V30 41 H 1.888193 4.787971 0.555095 0
M  V30 42 H 0.136707 6.130622 2.091418 0
M  V30 43 H -1.809446 6.865394 3.306467 0
M  V30 44 H -4.095408 3.523015 1.956218 0
M  V30 45 H -3.823927 1.795856 0.387517 0
M  V30 46 H -3.642092 0.656027 -1.582474 0
M  V30 47 H -1.827776 0.518782 -1.511334 0
M  V30 48 H -2.582056 2.067404 -1.924225 0
M  V30 49 H -3.088851 -0.563919 0.669534 0
M  V30 50 H -1.401027 -0.049416 0.741708 0
M  V30 51 H -2.604015 -0.379751 2.792550 0
M  V30 52 H 2.677105 -6.250268 -0.813527 0
M  V30 53 H 2.110963 -5.187116 -2.202648 0
M  V30 54 H 0.590972 -7.043564 -1.722240 0
M  V30 55 H -0.216457 -5.428164 -1.287723 0
M  V30 56 H -0.316496 -7.362456 0.417950 0
M  V30 END ATOM
M  V30 BEGIN BOND
M  V30 1 1 1 2
M  V30 2 1 2 3
M  V30 3 1 3 4
M  V30 4 1 4 5
M  V30 5 2 5 6
M  V30 6 1 6 7
M  V30 7 2 7 8
M  V30 8 1 8 9
M  V30 9 1 9 10
M  V30 10 2 10 11
M  V30 11 1 11 12
M  V30 12 2 12 13
M  V30 13 1 13 14
M  V30 14 2 14 15
M  V30 15 1 15 16
M  V30 16 2 16 17
M  V30 17 1 17 18
M  V30 18 2 18 19
M  V30 19 1 19 20
M  V30 20 1 20 21
M  V30 21 1 21 22
M  V30 22 1 21 23
M  V30 23 1 23 24
M  V30 24 1 20 25
M  V30 25 2 25 26
M  V30 26 1 8 27
M  V30 27 2 27 28
M  V30 28 1 4 29
M  V30 29 1 29 30
M  V30 30 1 30 31
M  V30 31 1 31 2
M  V30 32 1 28 5
M  V30 33 1 26 10
M  V30 34 1 25 13
M  V30 35 1 19 14
M  V30 36 1 1 32
M  V30 37 1 1 33
M  V30 38 1 1 34
M  V30 39 1 2 35 CFG=1
M  V30 40 1 3 36
M  V30 41 1 3 37
M  V30 42 1 6 38
M  V30 43 1 7 39
M  V30 44 1 9 40
M  V30 45 1 12 41
M  V30 46 1 15 42
M  V30 47 1 16 43
M  V30 48 1 18 44
M  V30 49 1 21 45 CFG=1
M  V30 50 1 22 46
M  V30 51 1 22 47
M  V30 52 1 22 48
M  V30 53 1 23 49
M  V30 54 1 23 50
M  V30 55 1 24 51
M  V30 56 1 29 52
M  V30 57 1 29 53
M  V30 58 1 30 54
M  V30 59 1 30 55
M  V30 60 1 31 56
M  V30 END BOND
M  V30 END CTAB
M  END
>  <Dataset>  (303) 
ChEMBL_Kinases

>  <Ligand_Instance>  (303) 
nan

>  <PDB_ID>  (303) 
nan

>  <Standardized_SMILES>  (303) 
C[C@H]1CN(c2ccc(Nc3ncc4c5ccncc5n([C@@H](C)CO)c4n3)nn2)CCN1

>  <Name>  (303) 
nan

>  <Pocket>  (303) 
nan

>  <ATP_Site>  (303) 
nan

>  <Peripheral>  (303) 
nan

>  <Num_H_Atoms_ProtBoundConf>  (303) 
nan

>  <Num_Resolved_Atoms>  (303) 
nan

>  <Num_Not_Resolved_Atoms>  (303) 
nan

$$$$
CHEMBL3641936
     RDKit          3D

  0  0  0  0  0  0  0  0  0  0999 V3000
M  V30 BEGIN CTAB
M  V30 COUNTS 60 64 0 0 0
M  V30 BEGIN ATOM
M  V30 1 C 2.653448 3.939379 4.538644 0
M  V30 2 C 2.254621 2.562594 4.068228 0 CFG=1
M  V30 3 C 0.767763 2.477198 4.002515 0
M  V30 4 O 0.291326 2.722169 5.306193 0
M  V30 5 N 2.878940 2.288397 2.785243 0
M  V30 6 C 4.204715 2.297379 2.652758 0
M  V30 7 C 5.288279 2.521140 3.494090 0
M  V30 8 N 6.580878 2.465963 3.084647 0
M  V30 9 C 6.856951 2.179520 1.792112 0
M  V30 10 C 5.846772 1.940831 0.875725 0
M  V30 11 C 4.556556 2.012150 1.355794 0
M  V30 12 C 3.361354 1.820587 0.671162 0
M  V30 13 C 2.998721 1.514386 -0.624469 0
M  V30 14 N 1.710511 1.405998 -0.932519 0
M  V30 15 C 0.714175 1.578247 -0.047119 0
M  V30 16 N -0.572940 1.409029 -0.623443 0
M  V30 17 C -1.165146 0.114775 -0.633558 0
M  V30 18 C -0.487960 -0.972250 -0.081443 0
M  V30 19 C -1.118711 -2.199146 -0.126325 0
M  V30 20 C -2.353325 -2.451560 -0.664599 0
M  V30 21 N -2.969547 -3.706963 -0.699083 0
M  V30 22 C -2.379158 -4.926809 -0.189896 0
M  V30 23 C -2.215471 -5.843429 -1.388673 0
M  V30 24 N -3.479963 -6.067673 -2.057722 0
M  V30 25 C -4.155665 -4.872497 -2.446776 0
M  V30 26 C -5.557054 -5.215314 -2.882414 0
M  V30 27 C -3.450749 -4.228223 -3.599056 0
M  V30 28 C -4.273178 -3.957142 -1.246633 0
M  V30 29 C -2.947271 -1.324869 -1.185215 0
M  V30 30 N -2.380446 -0.096947 -1.171131 0
M  V30 31 N 1.067970 1.881547 1.236528 0
M  V30 32 C 2.339696 2.000455 1.592908 0
M  V30 33 H 3.182322 3.864483 5.525960 0
M  V30 34 H 1.743585 4.557393 4.619536 0
M  V30 35 H 3.376858 4.391907 3.801238 0
M  V30 36 H 2.650748 1.781548 4.780425 0
M  V30 37 H 0.373127 1.520816 3.653632 0
M  V30 38 H 0.423331 3.338879 3.376328 0
M  V30 39 H 0.288702 1.889929 5.831738 0
M  V30 40 H 5.111963 2.753355 4.535133 0
M  V30 41 H 7.900000 2.135688 1.465237 0
M  V30 42 H 6.047911 1.706540 -0.178932 0
M  V30 43 H 3.811023 1.378632 -1.326900 0
M  V30 44 H -1.108952 2.199385 -1.043988 0
M  V30 45 H 0.477147 -0.812792 0.347431 0
M  V30 46 H -0.532990 -2.989330 0.319862 0
M  V30 47 H -1.415492 -4.797596 0.296663 0
M  V30 48 H -3.053736 -5.425151 0.553508 0
M  V30 49 H -1.503568 -5.373287 -2.070841 0
M  V30 50 H -1.874489 -6.839216 -1.043627 0
M  V30 51 H -3.452988 -6.826218 -2.742510 0
M  V30 52 H -5.731475 -6.299834 -2.994893 0
M  V30 53 H -6.326630 -4.871910 -2.137554 0
M  V30 54 H -5.838456 -4.689256 -3.820579 0
M  V30 55 H -3.923726 -3.285616 -3.924956 0
M  V30 56 H -3.489014 -4.944834 -4.443893 0
M  V30 57 H -2.383998 -4.024661 -3.406800 0
M  V30 58 H -4.890673 -3.078804 -1.440650 0
M  V30 59 H -4.849276 -4.543615 -0.470870 0
M  V30 60 H -3.920673 -1.330324 -1.651307 0
M  V30 END ATOM
M  V30 BEGIN BOND
M  V30 1 1 1 2
M  V30 2 1 2 3
M  V30 3 1 3 4
M  V30 4 1 2 5
M  V30 5 1 5 6
M  V30 6 2 6 7
M  V30 7 1 7 8
M  V30 8 2 8 9
M  V30 9 1 9 10
M  V30 10 2 10 11
M  V30 11 1 11 12
M  V30 12 2 12 13
M  V30 13 1 13 14
M  V30 14 2 14 15
M  V30 15 1 15 16
M  V30 16 1 16 17
M  V30 17 2 17 18
M  V30 18 1 18 19
M  V30 19 2 19 20
M  V30 20 1 20 21
M  V30 21 1 21 22
M  V30 22 1 22 23
M  V30 23 1 23 24
M  V30 24 1 24 25
M  V30 25 1 25 26
M  V30 26 1 25 27
M  V30 27 1 25 28
M  V30 28 1 20 29
M  V30 29 2 29 30
M  V30 30 1 15 31
M  V30 31 2 31 32
M  V30 32 1 32 5
M  V30 33 1 11 6
M  V30 34 1 32 12
M  V30 35 1 30 17
M  V30 36 1 28 21
M  V30 37 1 1 33
M  V30 38 1 1 34
M  V30 39 1 1 35
M  V30 40 1 2 36 CFG=1
M  V30 41 1 3 37
M  V30 42 1 3 38
M  V30 43 1 4 39
M  V30 44 1 7 40
M  V30 45 1 9 41
M  V30 46 1 10 42
M  V30 47 1 13 43
M  V30 48 1 16 44
M  V30 49 1 18 45
M  V30 50 1 19 46
M  V30 51 1 22 47
M  V30 52 1 22 48
M  V30 53 1 23 49
M  V30 54 1 23 50
M  V30 55 1 24 51
M  V30 56 1 26 52
M  V30 57 1 26 53
M  V30 58 1 26 54
M  V30 59 1 27 55
M  V30 60 1 27 56
M  V30 61 1 27 57
M  V30 62 1 28 58
M  V30 63 1 28 59
M  V30 64 1 29 60
M  V30 END BOND
M  V30 END CTAB
M  END
>  <Dataset>  (304) 
ChEMBL_Kinases

>  <Ligand_Instance>  (304) 
nan

>  <PDB_ID>  (304) 
nan

>  <Standardized_SMILES>  (304) 
C[C@@H](CO)n1c2cnccc2c2cnc(Nc3ccc(N4CCNC(C)(C)C4)cn3)nc21

>  <Name>  (304) 
nan

>  <Pocket>  (304) 
nan

>  <ATP_Site>  (304) 
nan

>  <Peripheral>  (304) 
nan

>  <Num_H_Atoms_ProtBoundConf>  (304) 
nan

>  <Num_Resolved_Atoms>  (304) 
nan

>  <Num_Not_Resolved_Atoms>  (304) 
nan

$$$$
CHEMBL3641937
     RDKit          3D

  0  0  0  0  0  0  0  0  0  0999 V3000
M  V30 BEGIN CTAB
M  V30 COUNTS 59 63 0 0 0
M  V30 BEGIN ATOM
M  V30 1 C 3.477585 0.192790 4.137849 0
M  V30 2 C 2.859295 -0.217662 2.839928 0 CFG=1
M  V30 3 C 1.386385 -0.521446 3.033383 0
M  V30 4 O 1.307301 -1.569561 3.963373 0
M  V30 5 N 3.054800 0.842823 1.868313 0
M  V30 6 C 4.196214 1.219710 1.269124 0
M  V30 7 C 5.489989 0.742841 1.393435 0
M  V30 8 N 6.484899 1.289145 0.683987 0
M  V30 9 C 6.218568 2.307003 -0.153198 0
M  V30 10 C 4.971990 2.860084 -0.355818 0
M  V30 11 C 3.983329 2.267448 0.393841 0
M  V30 12 C 2.631041 2.501668 0.503269 0
M  V30 13 C 1.787160 3.411726 -0.103313 0
M  V30 14 N 0.452224 3.490087 0.140262 0
M  V30 15 C -0.104406 2.638434 1.023268 0
M  V30 16 N -1.406717 2.375714 1.547061 0
M  V30 17 C -2.052398 1.247963 0.961939 0
M  V30 18 C -1.490274 0.492853 -0.042438 0
M  V30 19 C -2.194967 -0.609487 -0.528946 0
M  V30 20 C -3.454643 -0.985281 -0.039720 0
M  V30 21 N -3.858680 -2.137527 -0.760882 0
M  V30 22 C -4.297135 -2.212879 -2.157262 0
M  V30 23 C -3.281476 -3.012724 -2.960640 0
M  V30 24 N -2.334184 -3.722582 -2.177927 0
M  V30 25 C -2.777508 -4.298500 -0.958217 0
M  V30 26 C -3.091877 -5.748182 -1.139266 0
M  V30 27 C -1.586360 -4.236210 0.014666 0
M  V30 28 C -3.879959 -3.515374 -0.252071 0
M  V30 29 N -3.922909 -0.189070 0.937853 0
M  V30 30 N -3.259242 0.848155 1.394166 0
M  V30 31 N 0.706824 1.750713 1.617121 0
M  V30 32 C 2.035199 1.635107 1.407470 0
M  V30 33 H 3.666178 -0.660613 4.837330 0
M  V30 34 H 2.752762 0.919367 4.607478 0
M  V30 35 H 4.389469 0.764533 3.923346 0
M  V30 36 H 3.310665 -1.178797 2.491238 0
M  V30 37 H 0.933098 -0.887500 2.099765 0
M  V30 38 H 0.845435 0.324155 3.511216 0
M  V30 39 H 0.654845 -2.244039 3.696722 0
M  V30 40 H 5.692003 -0.091113 2.083175 0
M  V30 41 H 7.079088 2.689881 -0.686120 0
M  V30 42 H 4.786530 3.672840 -1.028168 0
M  V30 43 H 2.123168 4.140903 -0.825524 0
M  V30 44 H -1.915592 2.915895 2.292960 0
M  V30 45 H -0.519854 0.809034 -0.397714 0
M  V30 46 H -1.596990 -1.087867 -1.324730 0
M  V30 47 H -4.362828 -1.213441 -2.608368 0
M  V30 48 H -5.316855 -2.703522 -2.195338 0
M  V30 49 H -3.867029 -3.728310 -3.579217 0
M  V30 50 H -2.785859 -2.345792 -3.728952 0
M  V30 51 H -1.368977 -3.377202 -2.212955 0
M  V30 52 H -2.219963 -6.404466 -0.842939 0
M  V30 53 H -3.906705 -6.024274 -0.440142 0
M  V30 54 H -3.284863 -6.028107 -2.192711 0
M  V30 55 H -1.031512 -3.289849 -0.071827 0
M  V30 56 H -0.904850 -5.072158 -0.291921 0
M  V30 57 H -1.946215 -4.480003 1.032498 0
M  V30 58 H -4.832863 -4.009939 -0.485421 0
M  V30 59 H -3.753485 -3.562331 0.845254 0
M  V30 END ATOM
M  V30 BEGIN BOND
M  V30 1 1 1 2
M  V30 2 1 2 3
M  V30 3 1 3 4
M  V30 4 1 2 5
M  V30 5 1 5 6
M  V30 6 2 6 7
M  V30 7 1 7 8
M  V30 8 2 8 9
M  V30 9 1 9 10
M  V30 10 2 10 11
M  V30 11 1 11 12
M  V30 12 2 12 13
M  V30 13 1 13 14
M  V30 14 2 14 15
M  V30 15 1 15 16
M  V30 16 1 16 17
M  V30 17 2 17 18
M  V30 18 1 18 19
M  V30 19 2 19 20
M  V30 20 1 20 21
M  V30 21 1 21 22
M  V30 22 1 22 23
M  V30 23 1 23 24
M  V30 24 1 24 25
M  V30 25 1 25 26
M  V30 26 1 25 27
M  V30 27 1 25 28
M  V30 28 1 20 29
M  V30 29 2 29 30
M  V30 30 1 15 31
M  V30 31 2 31 32
M  V30 32 1 32 5
M  V30 33 1 11 6
M  V30 34 1 32 12
M  V30 35 1 30 17
M  V30 36 1 28 21
M  V30 37 1 1 33
M  V30 38 1 1 34
M  V30 39 1 1 35
M  V30 40 1 2 36 CFG=3
M  V30 41 1 3 37
M  V30 42 1 3 38
M  V30 43 1 4 39
M  V30 44 1 7 40
M  V30 45 1 9 41
M  V30 46 1 10 42
M  V30 47 1 13 43
M  V30 48 1 16 44
M  V30 49 1 18 45
M  V30 50 1 19 46
M  V30 51 1 22 47
M  V30 52 1 22 48
M  V30 53 1 23 49
M  V30 54 1 23 50
M  V30 55 1 24 51
M  V30 56 1 26 52
M  V30 57 1 26 53
M  V30 58 1 26 54
M  V30 59 1 27 55
M  V30 60 1 27 56
M  V30 61 1 27 57
M  V30 62 1 28 58
M  V30 63 1 28 59
M  V30 END BOND
M  V30 END CTAB
M  END
>  <Dataset>  (305) 
ChEMBL_Kinases

>  <Ligand_Instance>  (305) 
nan

>  <PDB_ID>  (305) 
nan

>  <Standardized_SMILES>  (305) 
C[C@@H](CO)n1c2cnccc2c2cnc(Nc3ccc(N4CCNC(C)(C)C4)nn3)nc21

>  <Name>  (305) 
nan

>  <Pocket>  (305) 
nan

>  <ATP_Site>  (305) 
nan

>  <Peripheral>  (305) 
nan

>  <Num_H_Atoms_ProtBoundConf>  (305) 
nan

>  <Num_Resolved_Atoms>  (305) 
nan

>  <Num_Not_Resolved_Atoms>  (305) 
nan

$$$$
CHEMBL3641938
     RDKit          3D

  0  0  0  0  0  0  0  0  0  0999 V3000
M  V30 BEGIN CTAB
M  V30 COUNTS 60 64 0 0 0
M  V30 BEGIN ATOM
M  V30 1 C 1.515249 -2.630595 4.029602 0
M  V30 2 N 2.075796 -3.134450 2.797921 0
M  V30 3 C 3.510835 -3.330429 2.898762 0
M  V30 4 C 4.295527 -2.097074 3.178568 0
M  V30 5 C 4.739171 -1.369093 1.949159 0
M  V30 6 N 4.059795 -1.786067 0.757636 0
M  V30 7 C 3.214635 -1.001805 -0.075290 0
M  V30 8 C 2.089285 -0.414398 0.524279 0
M  V30 9 C 1.179258 0.393759 -0.175354 0
M  V30 10 C 1.444288 0.596510 -1.528610 0
M  V30 11 N 0.586563 1.378521 -2.374247 0
M  V30 12 C -0.548772 1.873502 -1.677105 0
M  V30 13 N -0.949373 3.068223 -1.155570 0
M  V30 14 C -2.117685 3.193171 -0.524408 0
M  V30 15 C -2.942078 2.095411 -0.394608 0
M  V30 16 C -4.176381 2.003064 0.212003 0
M  V30 17 C -4.993275 2.881136 0.859828 0
M  V30 18 C -6.171790 2.331707 1.315875 0
M  V30 19 N -6.544628 1.046529 1.166789 0
M  V30 20 C -5.718325 0.170580 0.514569 0
M  V30 21 C -4.528174 0.677621 0.041671 0
M  V30 22 N -3.580067 0.002083 -0.622449 0
M  V30 23 C -3.512060 -1.376782 -1.012288 0 CFG=2
M  V30 24 C -2.134745 -1.980358 -0.782647 0
M  V30 25 C -3.920776 -1.640549 -2.433168 0
M  V30 26 O -3.106543 -0.949526 -3.323942 0
M  V30 27 C -2.569712 0.858092 -0.913567 0
M  V30 28 N -1.369127 0.800926 -1.542964 0
M  V30 29 N 2.522864 0.033096 -2.101274 0
M  V30 30 C 3.389058 -0.741684 -1.416906 0
M  V30 31 C 4.392012 -3.190912 0.580716 0
M  V30 32 C 4.105581 -4.068387 1.736274 0
M  V30 33 H 1.796260 -3.192097 4.917688 0
M  V30 34 H 0.409784 -2.541351 3.873662 0
M  V30 35 H 1.831286 -1.561447 4.216108 0
M  V30 36 H 1.626958 -4.029193 2.588908 0
M  V30 37 H 3.652203 -4.022495 3.782743 0
M  V30 38 H 5.244761 -2.440173 3.687903 0
M  V30 39 H 3.833077 -1.420327 3.940885 0
M  V30 40 H 4.654343 -0.270008 2.151727 0
M  V30 41 H 5.850252 -1.500274 1.760174 0
M  V30 42 H 1.793668 -0.512818 1.550502 0
M  V30 43 H 0.314176 0.849364 0.271354 0
M  V30 44 H 0.804737 1.540731 -3.358597 0
M  V30 45 H -2.302223 4.187080 -0.161297 0
M  V30 46 H -4.730803 3.918722 0.999870 0
M  V30 47 H -6.874329 2.979325 1.846616 0
M  V30 48 H -6.079681 -0.841505 0.429565 0
M  V30 49 H -4.201203 -1.999559 -0.378423 0
M  V30 50 H -2.256186 -3.064578 -1.040406 0
M  V30 51 H -1.367864 -1.594244 -1.459534 0
M  V30 52 H -1.863163 -1.939151 0.292182 0
M  V30 53 H -5.005409 -1.381214 -2.587389 0
M  V30 54 H -3.843831 -2.721032 -2.659261 0
M  V30 55 H -3.506781 -0.053471 -3.410265 0
M  V30 56 H 4.259227 -1.198300 -1.863913 0
M  V30 57 H 5.437008 -3.299025 0.186788 0
M  V30 58 H 3.757697 -3.516486 -0.290843 0
M  V30 59 H 3.415981 -4.902041 1.390994 0
M  V30 60 H 5.070322 -4.511219 2.077871 0
M  V30 END ATOM
M  V30 BEGIN BOND
M  V30 1 1 1 2
M  V30 2 1 2 3
M  V30 3 1 3 4
M  V30 4 1 4 5
M  V30 5 1 5 6
M  V30 6 1 6 7
M  V30 7 2 7 8
M  V30 8 1 8 9
M  V30 9 2 9 10
M  V30 10 1 10 11
M  V30 11 1 11 12
M  V30 12 2 12 13
M  V30 13 1 13 14
M  V30 14 2 14 15
M  V30 15 1 15 16
M  V30 16 2 16 17
M  V30 17 1 17 18
M  V30 18 2 18 19
M  V30 19 1 19 20
M  V30 20 2 20 21
M  V30 21 1 21 22
M  V30 22 1 22 23
M  V30 23 1 23 24
M  V30 24 1 23 25
M  V30 25 1 25 26
M  V30 26 1 22 27
M  V30 27 2 27 28
M  V30 28 1 10 29
M  V30 29 2 29 30
M  V30 30 1 6 31
M  V30 31 1 31 32
M  V30 32 1 32 3
M  V30 33 1 30 7
M  V30 34 1 28 12
M  V30 35 1 27 15
M  V30 36 1 21 16
M  V30 37 1 1 33
M  V30 38 1 1 34
M  V30 39 1 1 35
M  V30 40 1 2 36
M  V30 41 1 3 37
M  V30 42 1 4 38
M  V30 43 1 4 39
M  V30 44 1 5 40
M  V30 45 1 5 41
M  V30 46 1 8 42
M  V30 47 1 9 43
M  V30 48 1 11 44
M  V30 49 1 14 45
M  V30 50 1 17 46
M  V30 51 1 18 47
M  V30 52 1 20 48
M  V30 53 1 23 49 CFG=1
M  V30 54 1 24 50
M  V30 55 1 24 51
M  V30 56 1 24 52
M  V30 57 1 25 53
M  V30 58 1 25 54
M  V30 59 1 26 55
M  V30 60 1 30 56
M  V30 61 1 31 57
M  V30 62 1 31 58
M  V30 63 1 32 59
M  V30 64 1 32 60
M  V30 END BOND
M  V30 END CTAB
M  END
>  <Dataset>  (306) 
ChEMBL_Kinases

>  <Ligand_Instance>  (306) 
nan

>  <PDB_ID>  (306) 
nan

>  <Standardized_SMILES>  (306) 
CNC1CCN(c2ccc(Nc3ncc4c5ccncc5n([C@H](C)CO)c4n3)nc2)CC1

>  <Name>  (306) 
nan

>  <Pocket>  (306) 
nan

>  <ATP_Site>  (306) 
nan

>  <Peripheral>  (306) 
nan

>  <Num_H_Atoms_ProtBoundConf>  (306) 
nan

>  <Num_Resolved_Atoms>  (306) 
nan

>  <Num_Not_Resolved_Atoms>  (306) 
nan

$$$$
CHEMBL3641939
     RDKit          3D

  0  0  0  0  0  0  0  0  0  0999 V3000
M  V30 BEGIN CTAB
M  V30 COUNTS 57 61 0 0 0
M  V30 BEGIN ATOM
M  V30 1 C 2.126554 -1.325386 2.658203 0
M  V30 2 C 3.133666 -0.376422 3.241546 0 CFG=2
M  V30 3 C 2.711863 0.145316 4.599121 0
M  V30 4 O 1.515899 0.825537 4.545722 0
M  V30 5 N 3.337569 0.714486 2.314378 0
M  V30 6 C 4.484277 1.250755 1.865871 0
M  V30 7 C 5.796254 0.937333 2.146400 0
M  V30 8 N 6.769150 1.648654 1.547424 0
M  V30 9 C 6.502298 2.652995 0.685962 0
M  V30 10 C 5.178639 2.995302 0.380322 0
M  V30 11 C 4.191492 2.259117 1.000655 0
M  V30 12 C 2.796308 2.316459 0.939339 0
M  V30 13 C 1.922100 3.128167 0.236001 0
M  V30 14 N 0.568630 2.983519 0.346809 0
M  V30 15 C 0.083056 2.025934 1.162113 0
M  V30 16 N -1.272636 1.690972 1.425320 0
M  V30 17 C -1.931101 0.674490 0.674436 0
M  V30 18 C -3.262702 0.274817 0.858429 0
M  V30 19 C -3.807532 -0.727321 0.081595 0
M  V30 20 C -3.072280 -1.364196 -0.891189 0
M  V30 21 N -3.681818 -2.389195 -1.655461 0
M  V30 22 C -5.029146 -2.802502 -1.447055 0
M  V30 23 C -5.452034 -3.902367 -2.361073 0
M  V30 24 N -4.560892 -5.007998 -2.473191 0
M  V30 25 C -3.182783 -4.610226 -2.263117 0 CFG=1
M  V30 26 C -2.216523 -5.430885 -3.068283 0
M  V30 27 C -3.085144 -3.161525 -2.723211 0
M  V30 28 C -1.770998 -0.938655 -1.035953 0
M  V30 29 N -1.235554 0.036113 -0.282810 0
M  V30 30 N 0.912921 1.237300 1.845115 0
M  V30 31 C 2.259397 1.346006 1.764843 0
M  V30 32 H 1.828071 -0.948459 1.662243 0
M  V30 33 H 2.551665 -2.351587 2.463908 0
M  V30 34 H 1.255504 -1.388065 3.345464 0
M  V30 35 H 4.084569 -0.967432 3.354647 0
M  V30 36 H 2.590959 -0.749732 5.242690 0
M  V30 37 H 3.540834 0.718781 5.035946 0
M  V30 38 H 0.841638 0.393957 5.100280 0
M  V30 39 H 5.989722 0.132323 2.836743 0
M  V30 40 H 7.332348 3.205474 0.221682 0
M  V30 41 H 4.947543 3.806365 -0.315478 0
M  V30 42 H 2.280641 3.906856 -0.427757 0
M  V30 43 H -1.886132 2.143717 2.164518 0
M  V30 44 H -3.810023 0.786103 1.620688 0
M  V30 45 H -4.847250 -0.960234 0.305223 0
M  V30 46 H -5.222974 -3.082893 -0.374271 0
M  V30 47 H -5.692973 -1.931845 -1.667451 0
M  V30 48 H -5.704848 -3.530148 -3.378137 0
M  V30 49 H -6.407047 -4.318989 -1.922412 0
M  V30 50 H -4.571261 -5.426836 -3.451991 0
M  V30 51 H -2.986709 -4.712748 -1.184158 0
M  V30 52 H -1.562057 -4.787498 -3.691646 0
M  V30 53 H -1.557988 -5.975979 -2.372474 0
M  V30 54 H -2.733224 -6.233752 -3.660414 0
M  V30 55 H -2.059876 -2.845023 -2.895241 0
M  V30 56 H -3.715294 -3.096626 -3.654078 0
M  V30 57 H -1.152755 -1.406074 -1.785693 0
M  V30 END ATOM
M  V30 BEGIN BOND
M  V30 1 1 1 2
M  V30 2 1 2 3
M  V30 3 1 3 4
M  V30 4 1 2 5
M  V30 5 1 5 6
M  V30 6 2 6 7
M  V30 7 1 7 8
M  V30 8 2 8 9
M  V30 9 1 9 10
M  V30 10 2 10 11
M  V30 11 1 11 12
M  V30 12 2 12 13
M  V30 13 1 13 14
M  V30 14 2 14 15
M  V30 15 1 15 16
M  V30 16 1 16 17
M  V30 17 2 17 18
M  V30 18 1 18 19
M  V30 19 2 19 20
M  V30 20 1 20 21
M  V30 21 1 21 22
M  V30 22 1 22 23
M  V30 23 1 23 24
M  V30 24 1 24 25
M  V30 25 1 25 26
M  V30 26 1 25 27
M  V30 27 1 20 28
M  V30 28 2 28 29
M  V30 29 1 15 30
M  V30 30 2 30 31
M  V30 31 1 31 5
M  V30 32 1 11 6
M  V30 33 1 31 12
M  V30 34 1 29 17
M  V30 35 1 27 21
M  V30 36 1 1 32
M  V30 37 1 1 33
M  V30 38 1 1 34
M  V30 39 1 2 35 CFG=1
M  V30 40 1 3 36
M  V30 41 1 3 37
M  V30 42 1 4 38
M  V30 43 1 7 39
M  V30 44 1 9 40
M  V30 45 1 10 41
M  V30 46 1 13 42
M  V30 47 1 16 43
M  V30 48 1 18 44
M  V30 49 1 19 45
M  V30 50 1 22 46
M  V30 51 1 22 47
M  V30 52 1 23 48
M  V30 53 1 23 49
M  V30 54 1 24 50
M  V30 55 1 25 51 CFG=1
M  V30 56 1 26 52
M  V30 57 1 26 53
M  V30 58 1 26 54
M  V30 59 1 27 55
M  V30 60 1 27 56
M  V30 61 1 28 57
M  V30 END BOND
M  V30 END CTAB
M  END
>  <Dataset>  (307) 
ChEMBL_Kinases

>  <Ligand_Instance>  (307) 
nan

>  <PDB_ID>  (307) 
nan

>  <Standardized_SMILES>  (307) 
C[C@H](CO)n1c2cnccc2c2cnc(Nc3ccc(N4CCN[C@@H](C)C4)cn3)nc21

>  <Name>  (307) 
nan

>  <Pocket>  (307) 
nan

>  <ATP_Site>  (307) 
nan

>  <Peripheral>  (307) 
nan

>  <Num_H_Atoms_ProtBoundConf>  (307) 
nan

>  <Num_Resolved_Atoms>  (307) 
nan

>  <Num_Not_Resolved_Atoms>  (307) 
nan

$$$$
CHEMBL3641931
     RDKit          3D

  0  0  0  0  0  0  0  0  0  0999 V3000
M  V30 BEGIN CTAB
M  V30 COUNTS 59 63 0 0 0
M  V30 BEGIN ATOM
M  V30 1 C 3.589768 -0.338168 4.564346 0
M  V30 2 N 3.604902 -1.408390 3.652346 0
M  V30 3 C 4.765679 -2.196636 3.525589 0
M  V30 4 C 6.006098 -1.518448 3.057530 0
M  V30 5 C 5.847897 -1.172152 1.565885 0
M  V30 6 N 4.489590 -1.423323 1.135937 0
M  V30 7 C 3.508740 -0.506063 0.678731 0
M  V30 8 C 3.770073 0.786226 0.309804 0
M  V30 9 C 2.673597 1.522915 -0.084086 0
M  V30 10 C 1.365403 1.078892 -0.136568 0
M  V30 11 N 0.287850 1.910738 -0.553859 0
M  V30 12 C -1.056372 1.459120 -0.573106 0
M  V30 13 N -1.815371 2.354162 0.119027 0
M  V30 14 C -3.132127 2.236661 0.307209 0
M  V30 15 C -3.707903 1.125524 -0.253178 0
M  V30 16 C -5.008649 0.690068 -0.252551 0
M  V30 17 C -6.134152 1.243773 0.314274 0
M  V30 18 C -7.347525 0.571435 0.159267 0
M  V30 19 N -7.415957 -0.591785 -0.527992 0
M  V30 20 C -6.291464 -1.071957 -1.050214 0
M  V30 21 C -5.040323 -0.504234 -0.967032 0
M  V30 22 N -3.801112 -0.813402 -1.405256 0
M  V30 23 C -3.432028 -1.956420 -2.172377 0 CFG=1
M  V30 24 C -3.601331 -3.262481 -1.413673 0
M  V30 25 C -4.053978 -2.079302 -3.521606 0
M  V30 26 O -3.724042 -0.980461 -4.317631 0
M  V30 27 C -2.996600 0.185652 -0.964312 0
M  V30 28 N -1.671073 0.387568 -1.102807 0
M  V30 29 N 1.228682 -0.207282 0.247078 0
M  V30 30 N 2.242961 -0.960615 0.633939 0
M  V30 31 C 4.196777 -2.858814 1.216593 0
M  V30 32 C 4.481286 -3.359961 2.601431 0
M  V30 33 H 4.536873 0.141487 4.807743 0
M  V30 34 H 3.081295 -0.635731 5.530308 0
M  V30 35 H 2.913901 0.462072 4.163783 0
M  V30 36 H 2.742073 -1.987160 3.726835 0
M  V30 37 H 4.987945 -2.666623 4.530328 0
M  V30 38 H 6.836370 -2.264837 3.151529 0
M  V30 39 H 6.319239 -0.652025 3.660174 0
M  V30 40 H 6.191201 -0.143220 1.442252 0
M  V30 41 H 6.504833 -1.828138 0.960464 0
M  V30 42 H 4.771451 1.125733 0.350720 0
M  V30 43 H 2.835245 2.552908 -0.386850 0
M  V30 44 H 0.544164 2.871474 -0.847663 0
M  V30 45 H -3.746387 2.939276 0.854801 0
M  V30 46 H -6.084248 2.185862 0.871956 0
M  V30 47 H -8.200405 1.058305 0.626056 0
M  V30 48 H -6.388520 -1.997269 -1.579455 0
M  V30 49 H -2.314494 -1.898878 -2.358406 0
M  V30 50 H -4.633159 -3.647182 -1.466319 0
M  V30 51 H -3.234452 -3.112978 -0.387660 0
M  V30 52 H -2.935081 -4.040656 -1.855396 0
M  V30 53 H -5.132782 -2.322694 -3.531440 0
M  V30 54 H -3.591676 -2.966821 -4.056815 0
M  V30 55 H -4.199516 -0.173009 -3.955224 0
M  V30 56 H 4.880451 -3.351859 0.482848 0
M  V30 57 H 3.140229 -3.028763 0.904142 0
M  V30 58 H 5.375504 -4.016336 2.572146 0
M  V30 59 H 3.639521 -3.960714 3.005954 0
M  V30 END ATOM
M  V30 BEGIN BOND
M  V30 1 1 1 2
M  V30 2 1 2 3
M  V30 3 1 3 4
M  V30 4 1 4 5
M  V30 5 1 5 6
M  V30 6 1 6 7
M  V30 7 2 7 8
M  V30 8 1 8 9
M  V30 9 2 9 10
M  V30 10 1 10 11
M  V30 11 1 11 12
M  V30 12 2 12 13
M  V30 13 1 13 14
M  V30 14 2 14 15
M  V30 15 1 15 16
M  V30 16 2 16 17
M  V30 17 1 17 18
M  V30 18 2 18 19
M  V30 19 1 19 20
M  V30 20 2 20 21
M  V30 21 1 21 22
M  V30 22 1 22 23
M  V30 23 1 23 24
M  V30 24 1 23 25
M  V30 25 1 25 26
M  V30 26 1 22 27
M  V30 27 2 27 28
M  V30 28 1 10 29
M  V30 29 2 29 30
M  V30 30 1 6 31
M  V30 31 1 31 32
M  V30 32 1 32 3
M  V30 33 1 30 7
M  V30 34 1 28 12
M  V30 35 1 27 15
M  V30 36 1 21 16
M  V30 37 1 1 33
M  V30 38 1 1 34
M  V30 39 1 1 35
M  V30 40 1 2 36
M  V30 41 1 3 37
M  V30 42 1 4 38
M  V30 43 1 4 39
M  V30 44 1 5 40
M  V30 45 1 5 41
M  V30 46 1 8 42
M  V30 47 1 9 43
M  V30 48 1 11 44
M  V30 49 1 14 45
M  V30 50 1 17 46
M  V30 51 1 18 47
M  V30 52 1 20 48
M  V30 53 1 23 49 CFG=3
M  V30 54 1 24 50
M  V30 55 1 24 51
M  V30 56 1 24 52
M  V30 57 1 25 53
M  V30 58 1 25 54
M  V30 59 1 26 55
M  V30 60 1 31 56
M  V30 61 1 31 57
M  V30 62 1 32 58
M  V30 63 1 32 59
M  V30 END BOND
M  V30 END CTAB
M  END
>  <Dataset>  (308) 
ChEMBL_Kinases

>  <Ligand_Instance>  (308) 
nan

>  <PDB_ID>  (308) 
nan

>  <Standardized_SMILES>  (308) 
CNC1CCN(c2ccc(Nc3ncc4c5ccncc5n([C@@H](C)CO)c4n3)nn2)CC1

>  <Name>  (308) 
nan

>  <Pocket>  (308) 
nan

>  <ATP_Site>  (308) 
nan

>  <Peripheral>  (308) 
nan

>  <Num_H_Atoms_ProtBoundConf>  (308) 
nan

>  <Num_Resolved_Atoms>  (308) 
nan

>  <Num_Not_Resolved_Atoms>  (308) 
nan

$$$$
CHEMBL3644740
     RDKit          3D

  0  0  0  0  0  0  0  0  0  0999 V3000
M  V30 BEGIN CTAB
M  V30 COUNTS 68 72 0 0 0
M  V30 BEGIN ATOM
M  V30 1 C 2.947923 -3.452059 4.502061 0
M  V30 2 C 3.336553 -2.035649 4.160476 0
M  V30 3 N 4.318067 -1.423572 4.880580 0
M  V30 4 C 4.460988 -0.188221 4.377724 0
M  V30 5 C 5.326216 0.801593 4.773867 0
M  V30 6 N 5.253550 1.955693 4.086796 0
M  V30 7 C 4.363595 2.107752 3.061881 0
M  V30 8 C 4.379527 3.337655 2.441643 0
M  V30 9 C 3.478709 3.495384 1.415895 0
M  V30 10 C 2.600297 2.497828 1.012802 0
M  V30 11 C 1.720894 2.810399 -0.074726 0
M  V30 12 C 0.998543 3.078658 -0.999102 0
M  V30 13 C 0.146334 3.416366 -2.122730 0
M  V30 14 N -0.858658 2.391632 -2.324870 0
M  V30 15 C -1.771929 2.099275 -1.289009 0
M  V30 16 O -1.510594 2.857152 -0.291620 0
M  V30 17 C -2.849873 1.124540 -1.275272 0
M  V30 18 C -3.579753 1.075585 -0.080714 0
M  V30 19 N -4.602267 0.214953 0.059506 0
M  V30 20 C -4.983858 -0.634244 -0.909801 0
M  V30 21 N -4.291652 -0.597512 -2.061559 0
M  V30 22 C -4.654506 -1.483945 -3.147321 0
M  V30 23 C -3.939402 -2.778731 -3.101038 0
M  V30 24 C -4.564442 -3.761146 -2.356329 0
M  V30 25 C -3.955411 -5.012119 -2.265300 0
M  V30 26 C -2.758535 -5.255265 -2.906106 0
M  V30 27 F -2.082822 -6.440882 -2.880045 0
M  V30 28 C -2.139985 -4.274558 -3.646347 0
M  V30 29 F -0.952910 -4.469904 -4.300481 0
M  V30 30 C -2.734815 -3.039516 -3.739947 0
M  V30 31 C -3.264621 0.246422 -2.241796 0
M  V30 32 O -2.616176 0.290407 -3.301930 0
M  V30 33 C 2.644947 1.283978 1.688035 0
M  V30 34 C 3.531619 1.093269 2.714400 0
M  V30 35 C 3.530257 -0.106430 3.344454 0
M  V30 36 N 2.819616 -1.225580 3.179572 0
M  V30 37 C 1.809420 -1.642383 2.284994 0
M  V30 38 C 0.386326 -1.311809 2.721387 0
M  V30 39 N -0.588483 -1.773480 1.772558 0
M  V30 40 C -0.508724 -1.031335 0.553608 0
M  V30 41 C -0.419595 -3.198877 1.575878 0
M  V30 42 H 3.550966 -4.191422 3.938493 0
M  V30 43 H 1.871563 -3.622673 4.206981 0
M  V30 44 H 3.097887 -3.643780 5.573502 0
M  V30 45 H 6.013586 0.631595 5.594798 0
M  V30 46 H 5.063793 4.111595 2.758662 0
M  V30 47 H 3.480181 4.454311 0.917919 0
M  V30 48 H 0.751661 3.443017 -3.076490 0
M  V30 49 H -0.295670 4.429136 -2.057015 0
M  V30 50 H -0.952096 1.842175 -3.211261 0
M  V30 51 H -3.362488 1.712497 0.770549 0
M  V30 52 H -5.800687 -1.317771 -0.790281 0
M  V30 53 H -5.751694 -1.607842 -3.239158 0
M  V30 54 H -4.338915 -1.001612 -4.113872 0
M  V30 55 H -5.510735 -3.602659 -1.837555 0
M  V30 56 H -4.364334 -5.838087 -1.711186 0
M  V30 57 H -2.284407 -2.246299 -4.308991 0
M  V30 58 H 1.913950 0.627718 1.280383 0
M  V30 59 H 1.815022 -2.799948 2.358533 0
M  V30 60 H 1.904925 -1.489657 1.229266 0
M  V30 61 H 0.199681 -1.732033 3.749220 0
M  V30 62 H 0.325677 -0.206365 2.855999 0
M  V30 63 H 0.335177 -1.428903 -0.048657 0
M  V30 64 H -0.329426 0.049607 0.713259 0
M  V30 65 H -1.458676 -1.098383 -0.046072 0
M  V30 66 H 0.319058 -3.383689 0.778773 0
M  V30 67 H -1.390481 -3.704700 1.396400 0
M  V30 68 H -0.045112 -3.608018 2.560493 0
M  V30 END ATOM
M  V30 BEGIN BOND
M  V30 1 1 1 2
M  V30 2 2 2 3
M  V30 3 1 3 4
M  V30 4 2 4 5
M  V30 5 1 5 6
M  V30 6 2 6 7
M  V30 7 1 7 8
M  V30 8 2 8 9
M  V30 9 1 9 10
M  V30 10 1 10 11
M  V30 11 3 11 12
M  V30 12 1 12 13
M  V30 13 1 13 14
M  V30 14 1 14 15
M  V30 15 2 15 16
M  V30 16 1 15 17
M  V30 17 2 17 18
M  V30 18 1 18 19
M  V30 19 2 19 20
M  V30 20 1 20 21
M  V30 21 1 21 22
M  V30 22 1 22 23
M  V30 23 2 23 24
M  V30 24 1 24 25
M  V30 25 2 25 26
M  V30 26 1 26 27
M  V30 27 1 26 28
M  V30 28 1 28 29
M  V30 29 2 28 30
M  V30 30 1 21 31
M  V30 31 2 31 32
M  V30 32 2 10 33
M  V30 33 1 33 34
M  V30 34 2 34 35
M  V30 35 1 35 36
M  V30 36 1 36 37
M  V30 37 1 37 38
M  V30 38 1 38 39
M  V30 39 1 39 40
M  V30 40 1 39 41
M  V30 41 1 36 2
M  V30 42 1 35 4
M  V30 43 1 34 7
M  V30 44 1 31 17
M  V30 45 1 30 23
M  V30 46 1 1 42
M  V30 47 1 1 43
M  V30 48 1 1 44
M  V30 49 1 5 45
M  V30 50 1 8 46
M  V30 51 1 9 47
M  V30 52 1 13 48
M  V30 53 1 13 49
M  V30 54 1 14 50
M  V30 55 1 18 51
M  V30 56 1 20 52
M  V30 57 1 22 53
M  V30 58 1 22 54
M  V30 59 1 24 55
M  V30 60 1 25 56
M  V30 61 1 30 57
M  V30 62 1 33 58
M  V30 63 1 37 59
M  V30 64 1 37 60
M  V30 65 1 38 61
M  V30 66 1 38 62
M  V30 67 1 40 63
M  V30 68 1 40 64
M  V30 69 1 40 65
M  V30 70 1 41 66
M  V30 71 1 41 67
M  V30 72 1 41 68
M  V30 END BOND
M  V30 END CTAB
M  END
>  <Dataset>  (309) 
ChEMBL_Kinases

>  <Ligand_Instance>  (309) 
nan

>  <PDB_ID>  (309) 
nan

>  <Standardized_SMILES>  (309) 
Cc1nc2cnc3ccc(C#CCNC(=O)c4cncn(Cc5ccc(F)c(F)c5)c4=O)cc3c2n1CCN(C)C

>  <Name>  (309) 
nan

>  <Pocket>  (309) 
nan

>  <ATP_Site>  (309) 
nan

>  <Peripheral>  (309) 
nan

>  <Num_H_Atoms_ProtBoundConf>  (309) 
nan

>  <Num_Resolved_Atoms>  (309) 
nan

>  <Num_Not_Resolved_Atoms>  (309) 
nan

$$$$
CHEMBL3644739
     RDKit          3D

  0  0  0  0  0  0  0  0  0  0999 V3000
M  V30 BEGIN CTAB
M  V30 COUNTS 59 63 0 0 0
M  V30 BEGIN ATOM
M  V30 1 O 2.234007 -2.792104 2.056104 0
M  V30 2 C 1.298433 -3.434960 2.657104 0
M  V30 3 N 1.117235 -3.340397 4.004556 0
M  V30 4 C 2.053384 -2.444441 4.715291 0
M  V30 5 C 1.894517 -1.096993 4.131476 0
M  V30 6 C 1.752132 0.025681 3.649058 0
M  V30 7 C 1.601437 1.313345 3.072378 0
M  V30 8 C 2.663925 2.179866 3.183861 0
M  V30 9 C 2.629634 3.438449 2.636260 0
M  V30 10 C 1.504490 3.848218 1.959306 0
M  V30 11 N 1.538649 5.081141 1.428421 0
M  V30 12 C 0.451086 5.508179 0.735267 0
M  V30 13 C -0.615983 4.642944 0.626222 0
M  V30 14 N -1.782817 4.856654 -0.003001 0
M  V30 15 C -2.507868 3.707188 0.177676 0
M  V30 16 N -1.833378 2.762687 0.909167 0
M  V30 17 C -2.417254 1.522503 1.251959 0
M  V30 18 C -2.082048 0.458598 0.266065 0
M  V30 19 O -2.575382 0.890044 -0.978230 0
M  V30 20 C -0.666780 3.369498 1.168634 0
M  V30 21 C 0.438083 2.987876 1.846243 0
M  V30 22 C 0.452873 1.723813 2.384820 0
M  V30 23 C 1.125811 -3.804054 1.376842 0
M  V30 24 C -0.109229 -4.545118 1.841944 0
M  V30 25 C -1.060784 -5.330201 1.112732 0
M  V30 26 C -0.861128 -5.469332 -0.278401 0
M  V30 27 N 0.206318 -4.842400 -0.751157 0
M  V30 28 C 0.643164 -4.821969 -2.119705 0
M  V30 29 C 0.081821 -3.662760 -2.878531 0
M  V30 30 C -1.187271 -3.584968 -3.411695 0
M  V30 31 C -1.595418 -2.453927 -4.109924 0
M  V30 32 C -0.740327 -1.396807 -4.279484 0
M  V30 33 C 0.581106 -1.367917 -3.778294 0
M  V30 34 C 0.859348 -2.561053 -3.099770 0
M  V30 35 C 0.949098 -4.179168 0.081091 0
M  V30 36 O 2.038275 -3.505509 -0.194826 0
M  V30 37 H 0.314636 -3.969632 4.185042 0
M  V30 38 H 1.781374 -2.399209 5.765680 0
M  V30 39 H 3.090033 -2.782080 4.591668 0
M  V30 40 H 3.557598 1.886758 3.711947 0
M  V30 41 H 3.489929 4.096068 2.741918 0
M  V30 42 H 0.427061 6.504976 0.282523 0
M  V30 43 H -3.496911 3.675856 -0.259766 0
M  V30 44 H -2.413377 1.233546 2.322732 0
M  V30 45 H -3.557899 1.664187 1.102547 0
M  V30 46 H -2.685355 -0.488056 0.462804 0
M  V30 47 H -1.019536 0.224209 0.136635 0
M  V30 48 H -2.268906 0.354794 -1.733819 0
M  V30 49 H -0.273455 0.954775 2.368759 0
M  V30 50 H -0.706066 -4.758332 2.783704 0
M  V30 51 H -1.983737 -5.921424 1.274204 0
M  V30 52 H -1.379772 -5.975387 -1.069624 0
M  V30 53 H 0.309188 -5.750345 -2.638134 0
M  V30 54 H 1.742114 -4.806735 -2.179391 0
M  V30 55 H -1.842332 -4.423739 -3.269657 0
M  V30 56 H -2.602559 -2.404253 -4.525437 0
M  V30 57 H -1.061398 -0.500418 -4.832890 0
M  V30 58 H 1.284025 -0.560754 -3.887679 0
M  V30 59 H 1.885056 -2.552350 -2.713676 0
M  V30 END ATOM
M  V30 BEGIN BOND
M  V30 1 2 1 2
M  V30 2 1 2 3
M  V30 3 1 3 4
M  V30 4 1 4 5
M  V30 5 3 5 6
M  V30 6 1 6 7
M  V30 7 2 7 8
M  V30 8 1 8 9
M  V30 9 2 9 10
M  V30 10 1 10 11
M  V30 11 2 11 12
M  V30 12 1 12 13
M  V30 13 1 13 14
M  V30 14 2 14 15
M  V30 15 1 15 16
M  V30 16 1 16 17
M  V30 17 1 17 18
M  V30 18 1 18 19
M  V30 19 1 16 20
M  V30 20 1 20 21
M  V30 21 2 21 22
M  V30 22 1 2 23
M  V30 23 2 23 24
M  V30 24 1 24 25
M  V30 25 2 25 26
M  V30 26 1 26 27
M  V30 27 1 27 28
M  V30 28 1 28 29
M  V30 29 2 29 30
M  V30 30 1 30 31
M  V30 31 2 31 32
M  V30 32 1 32 33
M  V30 33 2 33 34
M  V30 34 1 27 35
M  V30 35 2 35 36
M  V30 36 1 22 7
M  V30 37 1 35 23
M  V30 38 1 21 10
M  V30 39 1 34 29
M  V30 40 2 20 13
M  V30 41 1 3 37
M  V30 42 1 4 38
M  V30 43 1 4 39
M  V30 44 1 8 40
M  V30 45 1 9 41
M  V30 46 1 12 42
M  V30 47 1 15 43
M  V30 48 1 17 44
M  V30 49 1 17 45
M  V30 50 1 18 46
M  V30 51 1 18 47
M  V30 52 1 19 48
M  V30 53 1 22 49
M  V30 54 1 24 50
M  V30 55 1 25 51
M  V30 56 1 26 52
M  V30 57 1 28 53
M  V30 58 1 28 54
M  V30 59 1 30 55
M  V30 60 1 31 56
M  V30 61 1 32 57
M  V30 62 1 33 58
M  V30 63 1 34 59
M  V30 END BOND
M  V30 END CTAB
M  END
>  <Dataset>  (310) 
ChEMBL_Kinases

>  <Ligand_Instance>  (310) 
nan

>  <PDB_ID>  (310) 
nan

>  <Standardized_SMILES>  (310) 
O=C(NCC#Cc1ccc2ncc3ncn(CCO)c3c2c1)c1cccn(Cc2ccccc2)c1=O

>  <Name>  (310) 
nan

>  <Pocket>  (310) 
nan

>  <ATP_Site>  (310) 
nan

>  <Peripheral>  (310) 
nan

>  <Num_H_Atoms_ProtBoundConf>  (310) 
nan

>  <Num_Resolved_Atoms>  (310) 
nan

>  <Num_Not_Resolved_Atoms>  (310) 
nan

$$$$
CHEMBL3644738
     RDKit          3D

  0  0  0  0  0  0  0  0  0  0999 V3000
M  V30 BEGIN CTAB
M  V30 COUNTS 59 63 0 0 0
M  V30 BEGIN ATOM
M  V30 1 O 0.346925 -2.176210 3.379447 0
M  V30 2 C 1.031064 -2.810030 2.514801 0
M  V30 3 N 2.398908 -2.541110 2.722246 0
M  V30 4 C 2.829013 -1.660272 3.791545 0
M  V30 5 C 2.228611 -0.342566 3.565866 0
M  V30 6 C 1.754030 0.749108 3.377568 0
M  V30 7 C 1.184439 2.044287 3.134552 0
M  V30 8 C 1.872771 3.128340 3.637052 0
M  V30 9 C 1.436394 4.426320 3.474979 0
M  V30 10 C 0.268208 4.614149 2.782304 0
M  V30 11 N -0.114391 5.896906 2.640058 0
M  V30 12 C -1.245809 6.141823 1.962904 0
M  V30 13 C -1.960933 5.089856 1.448465 0
M  V30 14 N -3.112038 5.071169 0.738707 0
M  V30 15 C -3.382973 3.774089 0.479928 0
M  V30 16 N -2.437778 2.927140 1.001860 0
M  V30 17 C -2.552760 1.508249 0.867359 0
M  V30 18 C -1.781557 1.029169 -0.349202 0
M  V30 19 O -2.352141 1.682995 -1.465270 0
M  V30 20 C -1.591797 3.757953 1.579617 0
M  V30 21 C -0.445921 3.555899 2.266999 0
M  V30 22 C -0.000109 2.274214 2.435236 0
M  V30 23 C 0.435725 -3.661291 1.499145 0
M  V30 24 C -0.960832 -3.735826 1.539328 0
M  V30 25 C -1.672057 -4.488760 0.659010 0
M  V30 26 C -1.045933 -5.231270 -0.336600 0
M  V30 27 N 0.277939 -5.146564 -0.356987 0
M  V30 28 C 0.979792 -5.895680 -1.368402 0
M  V30 29 C 1.123620 -5.052298 -2.575884 0
M  V30 30 C 0.080067 -5.129575 -3.499604 0
M  V30 31 C 0.027472 -4.424726 -4.684491 0
M  V30 32 C 1.075767 -3.579969 -4.988605 0
M  V30 33 F 1.117690 -2.844708 -6.127531 0
M  V30 34 C 2.108705 -3.494597 -4.088575 0
M  V30 35 F 3.170878 -2.676374 -4.336176 0
M  V30 36 C 2.151231 -4.204853 -2.905171 0
M  V30 37 C 1.005823 -4.413409 0.496856 0
M  V30 38 O 2.256226 -4.345145 0.463166 0
M  V30 39 H 3.093598 -2.990720 2.088720 0
M  V30 40 H 3.915491 -1.531042 3.808394 0
M  V30 41 H 2.525412 -2.087092 4.769977 0
M  V30 42 H 2.795324 2.981366 4.184688 0
M  V30 43 H 2.003535 5.246367 3.882928 0
M  V30 44 H -1.567101 7.168505 1.839196 0
M  V30 45 H -4.275457 3.541845 -0.086281 0
M  V30 46 H -2.471903 0.899648 1.759427 0
M  V30 47 H -3.643860 1.279879 0.550959 0
M  V30 48 H -0.703955 1.185213 -0.287551 0
M  V30 49 H -1.951768 -0.050598 -0.537426 0
M  V30 50 H -3.022003 1.141115 -1.923730 0
M  V30 51 H -0.402266 1.355708 2.105114 0
M  V30 52 H -1.536376 -3.184596 2.289236 0
M  V30 53 H -2.750907 -4.523864 0.718330 0
M  V30 54 H -1.631939 -5.820654 -1.023033 0
M  V30 55 H 2.017966 -6.169358 -1.034013 0
M  V30 56 H 0.403128 -6.811640 -1.614331 0
M  V30 57 H -0.783314 -5.786987 -3.310744 0
M  V30 58 H -0.798898 -4.519813 -5.361981 0
M  V30 59 H 2.949890 -4.154652 -2.184830 0
M  V30 END ATOM
M  V30 BEGIN BOND
M  V30 1 2 1 2
M  V30 2 1 2 3
M  V30 3 1 3 4
M  V30 4 1 4 5
M  V30 5 3 5 6
M  V30 6 1 6 7
M  V30 7 2 7 8
M  V30 8 1 8 9
M  V30 9 2 9 10
M  V30 10 1 10 11
M  V30 11 2 11 12
M  V30 12 1 12 13
M  V30 13 1 13 14
M  V30 14 2 14 15
M  V30 15 1 15 16
M  V30 16 1 16 17
M  V30 17 1 17 18
M  V30 18 1 18 19
M  V30 19 1 16 20
M  V30 20 1 20 21
M  V30 21 2 21 22
M  V30 22 1 2 23
M  V30 23 2 23 24
M  V30 24 1 24 25
M  V30 25 2 25 26
M  V30 26 1 26 27
M  V30 27 1 27 28
M  V30 28 1 28 29
M  V30 29 2 29 30
M  V30 30 1 30 31
M  V30 31 2 31 32
M  V30 32 1 32 33
M  V30 33 1 32 34
M  V30 34 1 34 35
M  V30 35 2 34 36
M  V30 36 1 27 37
M  V30 37 2 37 38
M  V30 38 1 22 7
M  V30 39 1 37 23
M  V30 40 1 21 10
M  V30 41 1 36 29
M  V30 42 2 20 13
M  V30 43 1 3 39
M  V30 44 1 4 40
M  V30 45 1 4 41
M  V30 46 1 8 42
M  V30 47 1 9 43
M  V30 48 1 12 44
M  V30 49 1 15 45
M  V30 50 1 17 46
M  V30 51 1 17 47
M  V30 52 1 18 48
M  V30 53 1 18 49
M  V30 54 1 19 50
M  V30 55 1 22 51
M  V30 56 1 24 52
M  V30 57 1 25 53
M  V30 58 1 26 54
M  V30 59 1 28 55
M  V30 60 1 28 56
M  V30 61 1 30 57
M  V30 62 1 31 58
M  V30 63 1 36 59
M  V30 END BOND
M  V30 END CTAB
M  END
>  <Dataset>  (311) 
ChEMBL_Kinases

>  <Ligand_Instance>  (311) 
nan

>  <PDB_ID>  (311) 
nan

>  <Standardized_SMILES>  (311) 
O=C(NCC#Cc1ccc2ncc3ncn(CCO)c3c2c1)c1cccn(Cc2ccc(F)c(F)c2)c1=O

>  <Name>  (311) 
nan

>  <Pocket>  (311) 
nan

>  <ATP_Site>  (311) 
nan

>  <Peripheral>  (311) 
nan

>  <Num_H_Atoms_ProtBoundConf>  (311) 
nan

>  <Num_Resolved_Atoms>  (311) 
nan

>  <Num_Not_Resolved_Atoms>  (311) 
nan

$$$$
CHEMBL3644737
     RDKit          3D

  0  0  0  0  0  0  0  0  0  0999 V3000
M  V30 BEGIN CTAB
M  V30 COUNTS 66 70 0 0 0
M  V30 BEGIN ATOM
M  V30 1 C 1.864397 -0.432535 1.673059 0
M  V30 2 N 2.902454 -0.511431 2.680003 0
M  V30 3 C 2.361590 -0.520915 4.019213 0
M  V30 4 C 3.847414 -1.531174 2.527469 0
M  V30 5 C 4.878306 -1.493404 1.451916 0
M  V30 6 N 5.806930 -0.422345 1.466152 0
M  V30 7 C 6.893040 -0.603858 2.302113 0
M  V30 8 N 7.721110 0.447420 2.295904 0
M  V30 9 C 7.237586 1.381473 1.460659 0
M  V30 10 C 7.553273 2.626274 0.991952 0
M  V30 11 N 6.813261 3.309710 0.108608 0
M  V30 12 C 5.668157 2.713218 -0.348662 0
M  V30 13 C 4.953238 3.450458 -1.259304 0
M  V30 14 C 3.802406 2.876565 -1.749045 0
M  V30 15 C 3.360324 1.624443 -1.361388 0
M  V30 16 C 2.121229 1.071286 -1.897853 0
M  V30 17 C 1.110399 0.598242 -2.330474 0
M  V30 18 C -0.155355 0.015745 -2.860609 0
M  V30 19 N -0.851297 -0.473781 -1.686370 0
M  V30 20 C -2.023528 -1.104749 -1.744224 0
M  V30 21 O -2.680171 -1.354594 -2.814947 0
M  V30 22 C -3.179544 -1.784915 -1.229156 0
M  V30 23 C -2.569540 -1.569456 0.147678 0
M  V30 24 C -3.098251 -1.971370 1.427338 0
M  V30 25 C -4.331670 -2.650778 1.443847 0
M  V30 26 N -4.880756 -2.846447 0.223769 0
M  V30 27 C -6.119160 -3.506338 -0.033671 0
M  V30 28 C -7.320152 -2.658045 -0.007434 0
M  V30 29 C -7.813034 -1.870955 -1.037221 0
M  V30 30 C -8.969900 -1.151371 -0.830961 0
M  V30 31 C -9.717163 -1.140124 0.355147 0
M  V30 32 C -9.211381 -1.933072 1.378158 0
M  V30 33 C -8.065311 -2.640867 1.163526 0
M  V30 34 C -4.171254 -2.371730 -0.752414 0
M  V30 35 O -4.619058 -2.513187 -1.969816 0
M  V30 36 C 4.171336 0.977341 -0.434278 0
M  V30 37 C 5.323120 1.470244 0.099743 0
M  V30 38 C 6.081342 0.789340 0.996239 0
M  V30 39 H 2.001837 -1.184356 0.860577 0
M  V30 40 H 1.778966 0.589103 1.287436 0
M  V30 41 H 0.898787 -0.686786 2.154170 0
M  V30 42 H 1.704329 0.345703 4.212107 0
M  V30 43 H 3.158344 -0.672147 4.756204 0
M  V30 44 H 1.680222 -1.416300 4.130879 0
M  V30 45 H 4.284849 -1.762837 3.535354 0
M  V30 46 H 3.248591 -2.485694 2.320915 0
M  V30 47 H 5.433241 -2.496756 1.640850 0
M  V30 48 H 4.397218 -1.757134 0.492327 0
M  V30 49 H 7.205407 -1.428370 2.961523 0
M  V30 50 H 8.474745 3.069075 1.381056 0
M  V30 51 H 5.283897 4.430879 -1.569873 0
M  V30 52 H 3.238785 3.454487 -2.466012 0
M  V30 53 H 0.034168 -0.795432 -3.587851 0
M  V30 54 H -0.678128 0.828144 -3.368640 0
M  V30 55 H -0.592732 -0.426502 -0.693237 0
M  V30 56 H -1.660393 -1.113900 0.689443 0
M  V30 57 H -2.820291 -1.913876 2.501375 0
M  V30 58 H -4.923372 -3.043611 2.246826 0
M  V30 59 H -6.078048 -4.048444 -1.010573 0
M  V30 60 H -6.237791 -4.304661 0.767020 0
M  V30 61 H -7.256612 -1.865073 -1.955845 0
M  V30 62 H -9.301509 -0.552102 -1.685395 0
M  V30 63 H -10.604391 -0.527206 0.378059 0
M  V30 64 H -9.812804 -1.900127 2.277517 0
M  V30 65 H -7.737530 -3.239867 2.024545 0
M  V30 66 H 3.742611 0.035172 -0.228187 0
M  V30 END ATOM
M  V30 BEGIN BOND
M  V30 1 1 1 2
M  V30 2 1 2 3
M  V30 3 1 2 4
M  V30 4 1 4 5
M  V30 5 1 5 6
M  V30 6 1 6 7
M  V30 7 2 7 8
M  V30 8 1 8 9
M  V30 9 2 9 10
M  V30 10 1 10 11
M  V30 11 2 11 12
M  V30 12 1 12 13
M  V30 13 2 13 14
M  V30 14 1 14 15
M  V30 15 1 15 16
M  V30 16 3 16 17
M  V30 17 1 17 18
M  V30 18 1 18 19
M  V30 19 1 19 20
M  V30 20 2 20 21
M  V30 21 1 20 22
M  V30 22 2 22 23
M  V30 23 1 23 24
M  V30 24 2 24 25
M  V30 25 1 25 26
M  V30 26 1 26 27
M  V30 27 1 27 28
M  V30 28 2 28 29
M  V30 29 1 29 30
M  V30 30 2 30 31
M  V30 31 1 31 32
M  V30 32 2 32 33
M  V30 33 1 26 34
M  V30 34 2 34 35
M  V30 35 2 15 36
M  V30 36 1 36 37
M  V30 37 2 37 38
M  V30 38 1 38 6
M  V30 39 1 38 9
M  V30 40 1 37 12
M  V30 41 1 34 22
M  V30 42 1 33 28
M  V30 43 1 1 39
M  V30 44 1 1 40
M  V30 45 1 1 41
M  V30 46 1 3 42
M  V30 47 1 3 43
M  V30 48 1 3 44
M  V30 49 1 4 45
M  V30 50 1 4 46
M  V30 51 1 5 47
M  V30 52 1 5 48
M  V30 53 1 7 49
M  V30 54 1 10 50
M  V30 55 1 13 51
M  V30 56 1 14 52
M  V30 57 1 18 53
M  V30 58 1 18 54
M  V30 59 1 19 55
M  V30 60 1 23 56
M  V30 61 1 24 57
M  V30 62 1 25 58
M  V30 63 1 27 59
M  V30 64 1 27 60
M  V30 65 1 29 61
M  V30 66 1 30 62
M  V30 67 1 31 63
M  V30 68 1 32 64
M  V30 69 1 33 65
M  V30 70 1 36 66
M  V30 END BOND
M  V30 END CTAB
M  END
>  <Dataset>  (312) 
ChEMBL_Kinases

>  <Ligand_Instance>  (312) 
nan

>  <PDB_ID>  (312) 
nan

>  <Standardized_SMILES>  (312) 
CN(C)CCn1cnc2cnc3ccc(C#CCNC(=O)c4cccn(Cc5ccccc5)c4=O)cc3c21

>  <Name>  (312) 
nan

>  <Pocket>  (312) 
nan

>  <ATP_Site>  (312) 
nan

>  <Peripheral>  (312) 
nan

>  <Num_H_Atoms_ProtBoundConf>  (312) 
nan

>  <Num_Resolved_Atoms>  (312) 
nan

>  <Num_Not_Resolved_Atoms>  (312) 
nan

$$$$
CHEMBL3644736
     RDKit          3D

  0  0  0  0  0  0  0  0  0  0999 V3000
M  V30 BEGIN CTAB
M  V30 COUNTS 52 56 0 0 0
M  V30 BEGIN ATOM
M  V30 1 O 0.665012 -1.830209 3.188811 0
M  V30 2 C 0.164494 -2.680125 2.397039 0
M  V30 3 N 1.121388 -3.657766 2.083179 0
M  V30 4 C 2.385474 -3.371214 2.776710 0
M  V30 5 C 2.894934 -2.046240 2.357838 0
M  V30 6 C 3.291082 -0.957464 2.017592 0
M  V30 7 C 3.746915 0.344456 1.593970 0
M  V30 8 C 4.989112 0.532103 1.047867 0
M  V30 9 C 5.340671 1.814049 0.670851 0
M  V30 10 C 4.458868 2.862883 0.844528 0
M  V30 11 N 4.837803 4.092848 0.465636 0
M  V30 12 C 4.009853 5.146900 0.616166 0
M  V30 13 C 2.748300 5.009296 1.161193 0
M  V30 14 N 1.736920 5.848400 1.426261 0
M  V30 15 C 0.717723 5.137911 1.975077 0
M  V30 16 N 1.104562 3.838178 2.050883 0
M  V30 17 C 2.357992 3.745150 1.550962 0
M  V30 18 C 3.201993 2.663704 1.398770 0
M  V30 19 C 2.832249 1.384260 1.782829 0
M  V30 20 C -1.197007 -2.592129 1.928576 0
M  V30 21 C -1.941534 -1.505058 2.401963 0
M  V30 22 C -3.252478 -1.308639 2.029318 0
M  V30 23 C -3.901564 -2.171231 1.170766 0
M  V30 24 N -3.165879 -3.207419 0.729639 0
M  V30 25 C -3.826287 -4.128803 -0.176407 0
M  V30 26 C -3.600139 -3.626551 -1.557791 0
M  V30 27 C -2.567993 -3.945904 -2.415052 0
M  V30 28 C -2.508053 -3.383673 -3.672932 0
M  V30 29 C -3.467789 -2.487122 -4.123150 0
M  V30 30 F -3.344091 -1.975140 -5.370473 0
M  V30 31 C -4.513058 -2.143250 -3.297638 0
M  V30 32 F -5.465866 -1.275789 -3.697593 0
M  V30 33 C -4.547588 -2.720698 -2.045522 0
M  V30 34 C -1.897448 -3.408136 1.082764 0
M  V30 35 O -1.277376 -4.383701 0.639443 0
M  V30 36 H 0.860422 -4.429965 1.439285 0
M  V30 37 H 3.166085 -4.102571 2.510530 0
M  V30 38 H 2.177536 -3.409933 3.863736 0
M  V30 39 H 5.619980 -0.320195 0.942075 0
M  V30 40 H 6.308798 1.969342 0.243594 0
M  V30 41 H 4.370653 6.113835 0.292350 0
M  V30 42 H -0.217648 5.597574 2.277504 0
M  V30 43 H 0.495652 3.063658 2.442136 0
M  V30 44 H 1.854317 1.257151 2.209026 0
M  V30 45 H -1.484920 -0.781044 3.088218 0
M  V30 46 H -3.769714 -0.448258 2.432069 0
M  V30 47 H -4.926231 -1.939107 0.934686 0
M  V30 48 H -4.913072 -4.153696 0.029443 0
M  V30 49 H -3.412629 -5.156250 -0.044302 0
M  V30 50 H -1.855520 -4.636626 -2.030406 0
M  V30 51 H -1.654453 -3.709476 -4.253492 0
M  V30 52 H -5.386112 -2.424853 -1.424836 0
M  V30 END ATOM
M  V30 BEGIN BOND
M  V30 1 2 1 2
M  V30 2 1 2 3
M  V30 3 1 3 4
M  V30 4 1 4 5
M  V30 5 3 5 6
M  V30 6 1 6 7
M  V30 7 2 7 8
M  V30 8 1 8 9
M  V30 9 2 9 10
M  V30 10 1 10 11
M  V30 11 2 11 12
M  V30 12 1 12 13
M  V30 13 1 13 14
M  V30 14 2 14 15
M  V30 15 1 15 16
M  V30 16 1 16 17
M  V30 17 1 17 18
M  V30 18 2 18 19
M  V30 19 1 2 20
M  V30 20 2 20 21
M  V30 21 1 21 22
M  V30 22 2 22 23
M  V30 23 1 23 24
M  V30 24 1 24 25
M  V30 25 1 25 26
M  V30 26 2 26 27
M  V30 27 1 27 28
M  V30 28 2 28 29
M  V30 29 1 29 30
M  V30 30 1 29 31
M  V30 31 1 31 32
M  V30 32 2 31 33
M  V30 33 1 24 34
M  V30 34 2 34 35
M  V30 35 1 19 7
M  V30 36 1 34 20
M  V30 37 1 18 10
M  V30 38 1 33 26
M  V30 39 2 17 13
M  V30 40 1 3 36
M  V30 41 1 4 37
M  V30 42 1 4 38
M  V30 43 1 8 39
M  V30 44 1 9 40
M  V30 45 1 12 41
M  V30 46 1 15 42
M  V30 47 1 16 43
M  V30 48 1 19 44
M  V30 49 1 21 45
M  V30 50 1 22 46
M  V30 51 1 23 47
M  V30 52 1 25 48
M  V30 53 1 25 49
M  V30 54 1 27 50
M  V30 55 1 28 51
M  V30 56 1 33 52
M  V30 END BOND
M  V30 END CTAB
M  END
>  <Dataset>  (313) 
ChEMBL_Kinases

>  <Ligand_Instance>  (313) 
nan

>  <PDB_ID>  (313) 
nan

>  <Standardized_SMILES>  (313) 
O=C(NCC#Cc1ccc2ncc3nc[nH]c3c2c1)c1cccn(Cc2ccc(F)c(F)c2)c1=O

>  <Name>  (313) 
nan

>  <Pocket>  (313) 
nan

>  <ATP_Site>  (313) 
nan

>  <Peripheral>  (313) 
nan

>  <Num_H_Atoms_ProtBoundConf>  (313) 
nan

>  <Num_Resolved_Atoms>  (313) 
nan

>  <Num_Not_Resolved_Atoms>  (313) 
nan

$$$$
CHEMBL3644735
     RDKit          3D

  0  0  0  0  0  0  0  0  0  0999 V3000
M  V30 BEGIN CTAB
M  V30 COUNTS 71 76 0 0 0
M  V30 BEGIN ATOM
M  V30 1 O 0.287834 -2.708654 2.121429 0
M  V30 2 C 1.290147 -2.828390 1.364766 0
M  V30 3 N 2.445377 -3.080058 2.148472 0
M  V30 4 C 2.054206 -3.109844 3.565373 0
M  V30 5 C 1.464602 -1.816163 3.947874 0
M  V30 6 C 0.964334 -0.764044 4.252238 0
M  V30 7 C 0.349854 0.484326 4.598793 0
M  V30 8 C 0.892761 1.164941 5.667665 0
M  V30 9 C 0.404521 2.375440 6.110999 0
M  V30 10 C -0.671616 2.884418 5.423982 0
M  V30 11 N -1.128634 4.080345 5.890054 0
M  V30 12 C -2.180581 4.638838 5.268019 0
M  V30 13 C -2.743233 3.989589 4.202890 0
M  V30 14 N -3.790590 4.328937 3.414489 0
M  V30 15 C -3.936070 3.338815 2.502750 0
M  V30 16 N -3.017017 2.333342 2.647041 0
M  V30 17 C -2.984697 1.203804 1.800053 0
M  V30 18 C -3.847576 1.539607 0.547910 0
M  V30 19 C -3.810102 0.316548 -0.367534 0
M  V30 20 N -4.553643 -0.761560 0.246842 0
M  V30 21 C -4.849745 -0.493382 1.640400 0
M  V30 22 C -3.620828 -0.049687 2.349308 0
M  V30 23 C -2.317218 2.779279 3.694572 0
M  V30 24 C -1.249777 2.251343 4.356158 0
M  V30 25 C -0.742930 1.052389 3.940801 0
M  V30 26 C 1.214584 -2.715891 -0.083505 0
M  V30 27 C -0.069848 -2.462247 -0.580533 0
M  V30 28 C -0.299219 -2.330214 -1.931015 0
M  V30 29 C 0.708276 -2.438137 -2.867070 0
M  V30 30 N 1.924757 -2.681094 -2.354550 0
M  V30 31 C 3.042921 -2.807876 -3.271985 0 CFG=2
M  V30 32 C 3.860270 -1.532872 -3.150036 0
M  V30 33 O 4.968638 -1.544901 -3.993656 0
M  V30 34 C 2.567207 -3.020212 -4.660570 0
M  V30 35 C 2.351134 -4.316536 -5.140754 0
M  V30 36 C 1.913060 -4.504445 -6.420965 0
M  V30 37 C 1.664196 -3.464898 -7.292483 0
M  V30 38 C 1.875404 -2.175175 -6.825776 0
M  V30 39 C 2.322424 -1.964947 -5.521503 0
M  V30 40 C 2.177863 -2.813236 -1.061791 0
M  V30 41 O 3.326791 -3.040528 -0.611207 0
M  V30 42 H 3.355208 -3.202818 1.661179 0
M  V30 43 H 2.961812 -3.338781 4.150995 0
M  V30 44 H 1.296086 -3.880395 3.694700 0
M  V30 45 H 1.739926 0.756524 6.202107 0
M  V30 46 H 0.844435 2.889235 6.948104 0
M  V30 47 H -2.574948 5.587357 5.605664 0
M  V30 48 H -4.743087 3.477881 1.799454 0
M  V30 49 H -2.031291 0.928437 1.329193 0
M  V30 50 H -4.884105 1.727281 0.806897 0
M  V30 51 H -3.388522 2.374707 0.012078 0
M  V30 52 H -4.307401 0.635748 -1.304951 0
M  V30 53 H -2.743221 0.021133 -0.563533 0
M  V30 54 H -5.492984 -0.897088 -0.224795 0
M  V30 55 H -5.722316 0.180729 1.777699 0
M  V30 56 H -5.171444 -1.454016 2.114099 0
M  V30 57 H -3.904925 0.093379 3.434561 0
M  V30 58 H -2.902116 -0.897349 2.378094 0
M  V30 59 H -1.040012 0.409795 3.153005 0
M  V30 60 H -0.929743 -2.360809 0.082211 0
M  V30 61 H -1.300352 -2.135489 -2.275987 0
M  V30 62 H 0.484093 -2.327833 -3.914840 0
M  V30 63 H 3.674732 -3.634104 -2.910662 0
M  V30 64 H 4.238447 -1.492471 -2.108967 0
M  V30 65 H 3.215164 -0.666959 -3.296197 0
M  V30 66 H 4.957148 -0.708266 -4.539649 0
M  V30 67 H 2.532246 -5.171289 -4.494734 0
M  V30 68 H 1.738453 -5.513993 -6.813141 0
M  V30 69 H 1.314303 -3.596170 -8.317828 0
M  V30 70 H 1.693197 -1.325717 -7.475457 0
M  V30 71 H 2.470655 -0.945063 -5.207644 0
M  V30 END ATOM
M  V30 BEGIN BOND
M  V30 1 2 1 2
M  V30 2 1 2 3
M  V30 3 1 3 4
M  V30 4 1 4 5
M  V30 5 3 5 6
M  V30 6 1 6 7
M  V30 7 2 7 8
M  V30 8 1 8 9
M  V30 9 2 9 10
M  V30 10 1 10 11
M  V30 11 2 11 12
M  V30 12 1 12 13
M  V30 13 1 13 14
M  V30 14 2 14 15
M  V30 15 1 15 16
M  V30 16 1 16 17
M  V30 17 1 17 18
M  V30 18 1 18 19
M  V30 19 1 19 20
M  V30 20 1 20 21
M  V30 21 1 21 22
M  V30 22 1 16 23
M  V30 23 1 23 24
M  V30 24 2 24 25
M  V30 25 1 2 26
M  V30 26 2 26 27
M  V30 27 1 27 28
M  V30 28 2 28 29
M  V30 29 1 29 30
M  V30 30 1 30 31
M  V30 31 1 31 32
M  V30 32 1 32 33
M  V30 33 1 31 34
M  V30 34 2 34 35
M  V30 35 1 35 36
M  V30 36 2 36 37
M  V30 37 1 37 38
M  V30 38 2 38 39
M  V30 39 1 30 40
M  V30 40 2 40 41
M  V30 41 1 25 7
M  V30 42 1 40 26
M  V30 43 1 24 10
M  V30 44 1 39 34
M  V30 45 2 23 13
M  V30 46 1 22 17
M  V30 47 1 3 42
M  V30 48 1 4 43
M  V30 49 1 4 44
M  V30 50 1 8 45
M  V30 51 1 9 46
M  V30 52 1 12 47
M  V30 53 1 15 48
M  V30 54 1 17 49
M  V30 55 1 18 50
M  V30 56 1 18 51
M  V30 57 1 19 52
M  V30 58 1 19 53
M  V30 59 1 20 54
M  V30 60 1 21 55
M  V30 61 1 21 56
M  V30 62 1 22 57
M  V30 63 1 22 58
M  V30 64 1 25 59
M  V30 65 1 27 60
M  V30 66 1 28 61
M  V30 67 1 29 62
M  V30 68 1 31 63 CFG=1
M  V30 69 1 32 64
M  V30 70 1 32 65
M  V30 71 1 33 66
M  V30 72 1 35 67
M  V30 73 1 36 68
M  V30 74 1 37 69
M  V30 75 1 38 70
M  V30 76 1 39 71
M  V30 END BOND
M  V30 END CTAB
M  END
>  <Dataset>  (314) 
ChEMBL_Kinases

>  <Ligand_Instance>  (314) 
nan

>  <PDB_ID>  (314) 
nan

>  <Standardized_SMILES>  (314) 
O=C(NCC#Cc1ccc2ncc3ncn(C4CCNCC4)c3c2c1)c1cccn([C@H](CO)c2ccccc2)c1=O

>  <Name>  (314) 
nan

>  <Pocket>  (314) 
nan

>  <ATP_Site>  (314) 
nan

>  <Peripheral>  (314) 
nan

>  <Num_H_Atoms_ProtBoundConf>  (314) 
nan

>  <Num_Resolved_Atoms>  (314) 
nan

>  <Num_Not_Resolved_Atoms>  (314) 
nan

$$$$
CHEMBL3644734
     RDKit          3D

  0  0  0  0  0  0  0  0  0  0999 V3000
M  V30 BEGIN CTAB
M  V30 COUNTS 70 75 0 0 0
M  V30 BEGIN ATOM
M  V30 1 C 1.422089 -0.912220 5.753618 0
M  V30 2 C 2.220785 -0.182705 4.710040 0
M  V30 3 N 3.515701 0.099469 4.939963 0
M  V30 4 C 3.953024 0.734339 3.865490 0
M  V30 5 C 5.201267 1.241186 3.591995 0
M  V30 6 N 5.430893 1.861807 2.422257 0
M  V30 7 C 4.398176 1.956986 1.556826 0
M  V30 8 C 4.685490 2.603320 0.378331 0
M  V30 9 C 3.659769 2.726505 -0.533519 0
M  V30 10 C 2.385775 2.230675 -0.299776 0
M  V30 11 C 1.410544 2.428669 -1.335686 0
M  V30 12 C 0.581013 2.578658 -2.197351 0
M  V30 13 C -0.452264 2.741419 -3.251437 0
M  V30 14 N -1.434434 1.651698 -3.139888 0
M  V30 15 C -2.052751 1.677396 -1.884165 0
M  V30 16 O -1.577046 2.647979 -1.202113 0
M  V30 17 C -3.060650 0.804822 -1.358879 0
M  V30 18 C -3.501222 1.066450 -0.056034 0
M  V30 19 C -4.463312 0.301084 0.560641 0
M  V30 20 Cl -4.957865 0.692383 2.186349 0
M  V30 21 N -4.994962 -0.729076 -0.110937 0
M  V30 22 N -4.624089 -1.032000 -1.345700 0
M  V30 23 C -5.203166 -2.137667 -2.047482 0
M  V30 24 C -4.444771 -3.407822 -1.821110 0
M  V30 25 C -4.823666 -4.185854 -0.746424 0
M  V30 26 C -4.191860 -5.375376 -0.447482 0
M  V30 27 C -3.146756 -5.830096 -1.225065 0
M  V30 28 F -2.448404 -6.981726 -1.031736 0
M  V30 29 C -2.762000 -5.055034 -2.303763 0
M  V30 30 F -1.752966 -5.404638 -3.129590 0
M  V30 31 C -3.404008 -3.869019 -2.588445 0
M  V30 32 C -3.683624 -0.272083 -1.929001 0
M  V30 33 O -3.323273 -0.547263 -3.097097 0
M  V30 34 C 2.137545 1.581406 0.909458 0
M  V30 35 C 3.150227 1.454077 1.821718 0
M  V30 36 C 2.883573 0.818720 2.997970 0
M  V30 37 N 1.768951 0.255275 3.484239 0
M  V30 38 C 0.443443 0.059408 3.014010 0
M  V30 39 C 0.145910 -1.213105 2.302932 0
M  V30 40 C 0.877287 -1.549911 1.104487 0
M  V30 41 C 2.074471 -2.256030 1.256620 0
M  V30 42 C 2.895525 -2.666993 0.227397 0
M  V30 43 C 2.519332 -2.364605 -1.064508 0
M  V30 44 C 1.352146 -1.671036 -1.291709 0
M  V30 45 C 0.566971 -1.282683 -0.235941 0
M  V30 46 H 0.570150 -1.472724 5.275061 0
M  V30 47 H 1.024829 -0.198222 6.494103 0
M  V30 48 H 2.072247 -1.683489 6.212420 0
M  V30 49 H 6.001243 1.137988 4.325152 0
M  V30 50 H 5.647991 2.997276 0.160974 0
M  V30 51 H 3.877917 3.234479 -1.464529 0
M  V30 52 H 0.027688 2.701408 -4.252077 0
M  V30 53 H -0.949036 3.699483 -3.041463 0
M  V30 54 H -1.720037 0.910803 -3.813678 0
M  V30 55 H -3.082341 1.895247 0.501614 0
M  V30 56 H -6.258419 -2.258283 -1.730800 0
M  V30 57 H -5.217862 -1.942569 -3.134340 0
M  V30 58 H -5.623739 -3.952470 -0.054731 0
M  V30 59 H -4.441887 -6.026412 0.377512 0
M  V30 60 H -3.109382 -3.266413 -3.422747 0
M  V30 61 H 1.143592 1.262257 0.948128 0
M  V30 62 H -0.177819 -0.087633 3.997895 0
M  V30 63 H -0.109384 0.954701 2.662436 0
M  V30 64 H -0.967303 -1.196562 2.084620 0
M  V30 65 H 0.222842 -2.111582 2.989083 0
M  V30 66 H 2.418161 -2.520136 2.249961 0
M  V30 67 H 3.808761 -3.210964 0.424329 0
M  V30 68 H 3.100546 -2.646796 -1.926304 0
M  V30 69 H 1.023292 -1.414266 -2.303541 0
M  V30 70 H -0.377097 -0.726233 -0.350073 0
M  V30 END ATOM
M  V30 BEGIN BOND
M  V30 1 1 1 2
M  V30 2 2 2 3
M  V30 3 1 3 4
M  V30 4 2 4 5
M  V30 5 1 5 6
M  V30 6 2 6 7
M  V30 7 1 7 8
M  V30 8 2 8 9
M  V30 9 1 9 10
M  V30 10 1 10 11
M  V30 11 3 11 12
M  V30 12 1 12 13
M  V30 13 1 13 14
M  V30 14 1 14 15
M  V30 15 2 15 16
M  V30 16 1 15 17
M  V30 17 2 17 18
M  V30 18 1 18 19
M  V30 19 1 19 20
M  V30 20 2 19 21
M  V30 21 1 21 22
M  V30 22 1 22 23
M  V30 23 1 23 24
M  V30 24 2 24 25
M  V30 25 1 25 26
M  V30 26 2 26 27
M  V30 27 1 27 28
M  V30 28 1 27 29
M  V30 29 1 29 30
M  V30 30 2 29 31
M  V30 31 1 22 32
M  V30 32 2 32 33
M  V30 33 2 10 34
M  V30 34 1 34 35
M  V30 35 2 35 36
M  V30 36 1 36 37
M  V30 37 1 37 38
M  V30 38 1 38 39
M  V30 39 1 39 40
M  V30 40 2 40 41
M  V30 41 1 41 42
M  V30 42 2 42 43
M  V30 43 1 43 44
M  V30 44 2 44 45
M  V30 45 1 37 2
M  V30 46 1 45 40
M  V30 47 1 36 4
M  V30 48 1 35 7
M  V30 49 1 32 17
M  V30 50 1 31 24
M  V30 51 1 1 46
M  V30 52 1 1 47
M  V30 53 1 1 48
M  V30 54 1 5 49
M  V30 55 1 8 50
M  V30 56 1 9 51
M  V30 57 1 13 52
M  V30 58 1 13 53
M  V30 59 1 14 54
M  V30 60 1 18 55
M  V30 61 1 23 56
M  V30 62 1 23 57
M  V30 63 1 25 58
M  V30 64 1 26 59
M  V30 65 1 31 60
M  V30 66 1 34 61
M  V30 67 1 38 62
M  V30 68 1 38 63
M  V30 69 1 39 64
M  V30 70 1 39 65
M  V30 71 1 41 66
M  V30 72 1 42 67
M  V30 73 1 43 68
M  V30 74 1 44 69
M  V30 75 1 45 70
M  V30 END BOND
M  V30 END CTAB
M  END
>  <Dataset>  (315) 
ChEMBL_Kinases

>  <Ligand_Instance>  (315) 
nan

>  <PDB_ID>  (315) 
nan

>  <Standardized_SMILES>  (315) 
Cc1nc2cnc3ccc(C#CCNC(=O)c4cc(Cl)nn(Cc5ccc(F)c(F)c5)c4=O)cc3c2n1CCc1ccccc1

>  <Name>  (315) 
nan

>  <Pocket>  (315) 
nan

>  <ATP_Site>  (315) 
nan

>  <Peripheral>  (315) 
nan

>  <Num_H_Atoms_ProtBoundConf>  (315) 
nan

>  <Num_Resolved_Atoms>  (315) 
nan

>  <Num_Not_Resolved_Atoms>  (315) 
nan

$$$$
CHEMBL3644733
     RDKit          3D

  0  0  0  0  0  0  0  0  0  0999 V3000
M  V30 BEGIN CTAB
M  V30 COUNTS 76 81 0 0 0
M  V30 BEGIN ATOM
M  V30 1 C 3.671762 -2.211802 4.615854 0
M  V30 2 C 4.129216 -1.139430 3.738489 0
M  V30 3 N 5.428338 -0.708999 3.849706 0
M  V30 4 C 5.642782 0.252163 2.940977 0
M  V30 5 C 6.793430 0.933471 2.722698 0
M  V30 6 N 6.783835 1.857382 1.748153 0
M  V30 7 C 5.670161 2.061224 1.051177 0
M  V30 8 C 5.761814 3.017912 0.063261 0
M  V30 9 C 4.635297 3.253610 -0.697601 0
M  V30 10 C 3.459460 2.562608 -0.484353 0
M  V30 11 C 2.333009 2.866316 -1.319908 0
M  V30 12 C 1.388599 3.135826 -2.018139 0
M  V30 13 C 0.226518 3.479599 -2.852087 0
M  V30 14 N -0.854269 2.532633 -2.721200 0
M  V30 15 C -0.663107 1.182184 -3.048321 0
M  V30 16 O 0.543794 1.016469 -3.439231 0
M  V30 17 C -1.625292 0.094126 -2.981156 0
M  V30 18 C -1.132902 -1.155834 -3.377262 0
M  V30 19 C -1.940022 -2.271759 -3.361573 0
M  V30 20 C -3.255071 -2.227073 -2.963083 0
M  V30 21 N -3.695969 -1.013831 -2.589608 0
M  V30 22 C -5.067640 -0.885172 -2.157968 0 CFG=1
M  V30 23 C -6.035308 -1.304213 -3.256449 0
M  V30 24 C -5.366025 -1.749588 -0.968784 0
M  V30 25 C -5.827000 -3.043460 -0.985315 0
M  V30 26 C -6.056330 -3.715489 0.193962 0
M  V30 27 C -5.845018 -3.151600 1.430142 0
M  V30 28 F -6.074986 -3.824697 2.583603 0
M  V30 29 C -5.381395 -1.850764 1.472891 0
M  V30 30 F -5.159977 -1.256949 2.674866 0
M  V30 31 C -5.154236 -1.184705 0.284041 0
M  V30 32 C -2.936885 0.093412 -2.592792 0
M  V30 33 O -3.380803 1.192419 -2.241312 0
M  V30 34 C 3.461882 1.616811 0.534867 0
M  V30 35 C 4.547757 1.338698 1.325345 0
M  V30 36 C 4.427496 0.367348 2.297110 0
M  V30 37 N 3.468121 -0.460223 2.749183 0
M  V30 38 C 2.117725 -0.568513 2.322725 0
M  V30 39 C 1.906404 -1.519604 1.176958 0
M  V30 40 C 0.477377 -1.936588 0.935787 0
M  V30 41 N -0.149313 -2.494939 2.109026 0
M  V30 42 C -0.724740 -3.784799 1.929492 0
M  V30 43 C 0.774382 -2.436889 3.247061 0
M  V30 44 C 1.130347 -1.006930 3.404269 0
M  V30 45 H 4.499397 -2.422496 5.363692 0
M  V30 46 H 2.815032 -2.039418 5.253324 0
M  V30 47 H 3.635152 -3.212156 4.081925 0
M  V30 48 H 7.688253 0.762732 3.288765 0
M  V30 49 H 6.666493 3.570774 -0.124137 0
M  V30 50 H 4.694144 4.004524 -1.478306 0
M  V30 51 H -0.140520 4.491660 -2.571745 0
M  V30 52 H 0.579277 3.472166 -3.907045 0
M  V30 53 H -1.795222 2.829138 -2.382736 0
M  V30 54 H -0.093262 -1.276280 -3.709426 0
M  V30 55 H -1.517839 -3.207961 -3.674059 0
M  V30 56 H -3.836443 -3.135039 -2.972628 0
M  V30 57 H -5.323749 0.156335 -1.877879 0
M  V30 58 H -6.015046 -0.622511 -4.110721 0
M  V30 59 H -7.057910 -1.405693 -2.859942 0
M  V30 60 H -5.710296 -2.310438 -3.618196 0
M  V30 61 H -5.986356 -3.466982 -1.962924 0
M  V30 62 H -6.417751 -4.728136 0.109137 0
M  V30 63 H -4.786974 -0.155698 0.366851 0
M  V30 64 H 2.542480 1.156345 0.589780 0
M  V30 65 H 1.661340 0.444334 2.090888 0
M  V30 66 H 2.200873 -1.072699 0.193138 0
M  V30 67 H 2.487717 -2.470568 1.345816 0
M  V30 68 H -0.124414 -1.125900 0.478994 0
M  V30 69 H 0.522349 -2.748485 0.180826 0
M  V30 70 H -0.992057 -3.919898 0.850681 0
M  V30 71 H -1.691375 -3.810609 2.478314 0
M  V30 72 H -0.095945 -4.630684 2.273554 0
M  V30 73 H 1.579549 -3.136064 2.964686 0
M  V30 74 H 0.303452 -2.870894 4.143691 0
M  V30 75 H 0.159038 -0.434512 3.145016 0
M  V30 76 H 1.329998 -0.615073 4.392621 0
M  V30 END ATOM
M  V30 BEGIN BOND
M  V30 1 1 1 2
M  V30 2 2 2 3
M  V30 3 1 3 4
M  V30 4 2 4 5
M  V30 5 1 5 6
M  V30 6 2 6 7
M  V30 7 1 7 8
M  V30 8 2 8 9
M  V30 9 1 9 10
M  V30 10 1 10 11
M  V30 11 3 11 12
M  V30 12 1 12 13
M  V30 13 1 13 14
M  V30 14 1 14 15
M  V30 15 2 15 16
M  V30 16 1 15 17
M  V30 17 2 17 18
M  V30 18 1 18 19
M  V30 19 2 19 20
M  V30 20 1 20 21
M  V30 21 1 21 22
M  V30 22 1 22 23
M  V30 23 1 22 24
M  V30 24 2 24 25
M  V30 25 1 25 26
M  V30 26 2 26 27
M  V30 27 1 27 28
M  V30 28 1 27 29
M  V30 29 1 29 30
M  V30 30 2 29 31
M  V30 31 1 21 32
M  V30 32 2 32 33
M  V30 33 2 10 34
M  V30 34 1 34 35
M  V30 35 2 35 36
M  V30 36 1 36 37
M  V30 37 1 37 38
M  V30 38 1 38 39
M  V30 39 1 39 40
M  V30 40 1 40 41
M  V30 41 1 41 42
M  V30 42 1 41 43
M  V30 43 1 43 44
M  V30 44 1 37 2
M  V30 45 1 44 38
M  V30 46 1 36 4
M  V30 47 1 35 7
M  V30 48 1 32 17
M  V30 49 1 31 24
M  V30 50 1 1 45
M  V30 51 1 1 46
M  V30 52 1 1 47
M  V30 53 1 5 48
M  V30 54 1 8 49
M  V30 55 1 9 50
M  V30 56 1 13 51
M  V30 57 1 13 52
M  V30 58 1 14 53
M  V30 59 1 18 54
M  V30 60 1 19 55
M  V30 61 1 20 56
M  V30 62 1 22 57 CFG=1
M  V30 63 1 23 58
M  V30 64 1 23 59
M  V30 65 1 23 60
M  V30 66 1 25 61
M  V30 67 1 26 62
M  V30 68 1 31 63
M  V30 69 1 34 64
M  V30 70 1 38 65
M  V30 71 1 39 66
M  V30 72 1 39 67
M  V30 73 1 40 68
M  V30 74 1 40 69
M  V30 75 1 42 70
M  V30 76 1 42 71
M  V30 77 1 42 72
M  V30 78 1 43 73
M  V30 79 1 43 74
M  V30 80 1 44 75
M  V30 81 1 44 76
M  V30 END BOND
M  V30 END CTAB
M  END
>  <Dataset>  (316) 
ChEMBL_Kinases

>  <Ligand_Instance>  (316) 
nan

>  <PDB_ID>  (316) 
nan

>  <Standardized_SMILES>  (316) 
Cc1nc2cnc3ccc(C#CCNC(=O)c4cccn([C@@H](C)c5ccc(F)c(F)c5)c4=O)cc3c2n1C1CCN(C)CC1

>  <Name>  (316) 
nan

>  <Pocket>  (316) 
nan

>  <ATP_Site>  (316) 
nan

>  <Peripheral>  (316) 
nan

>  <Num_H_Atoms_ProtBoundConf>  (316) 
nan

>  <Num_Resolved_Atoms>  (316) 
nan

>  <Num_Not_Resolved_Atoms>  (316) 
nan

$$$$
CHEMBL3644732
     RDKit          3D

  0  0  0  0  0  0  0  0  0  0999 V3000
M  V30 BEGIN CTAB
M  V30 COUNTS 82 87 0 0 0
M  V30 BEGIN ATOM
M  V30 1 C 5.058397 -4.157363 2.729403 0
M  V30 2 C 5.105274 -2.839763 2.048912 0
M  V30 3 N 6.372832 -2.626812 1.641069 0
M  V30 4 C 6.500368 -1.414636 1.068029 0
M  V30 5 C 7.645028 -0.864173 0.558796 0
M  V30 6 N 7.501959 0.380890 0.069878 0
M  V30 7 C 6.287976 0.976598 0.115536 0
M  V30 8 C 6.156844 2.288724 -0.375238 0
M  V30 9 C 4.916846 2.941232 -0.314687 0
M  V30 10 C 3.813728 2.309166 0.225468 0
M  V30 11 C 2.499654 2.904922 0.287658 0
M  V30 12 C 1.392468 3.385444 0.332036 0
M  V30 13 C 0.013961 3.954193 0.387785 0
M  V30 14 N -0.903158 2.863661 0.135403 0
M  V30 15 C -2.247762 2.922034 0.136496 0
M  V30 16 O -2.892654 3.989803 0.374010 0
M  V30 17 C -3.484054 2.332413 -0.005795 0
M  V30 18 C -2.824290 1.085045 -0.560320 0
M  V30 19 C -3.411891 -0.151377 -1.011412 0
M  V30 20 C -4.811918 -0.217112 -0.926904 0
M  V30 21 N -5.475977 0.875697 -0.433310 0
M  V30 22 C -6.895255 0.859757 -0.267463 0 CFG=1
M  V30 23 C -7.571297 1.285010 -1.543266 0
M  V30 24 C -7.303995 -0.565779 0.066577 0
M  V30 25 C -8.027915 -1.533219 -0.585458 0
M  V30 26 C -8.164488 -2.832304 -0.086446 0
M  V30 27 C -7.504260 -3.059446 1.127751 0
M  V30 28 F -7.712222 -4.368284 1.504984 0
M  V30 29 C -6.781952 -2.127380 1.804923 0
M  V30 30 F -6.249763 -2.599101 2.953845 0
M  V30 31 C -6.661304 -0.840269 1.288261 0
M  V30 32 C -4.608157 1.774501 -0.140543 0
M  V30 33 O -5.179365 2.867944 0.344822 0
M  V30 34 C 4.073178 1.029497 0.671794 0
M  V30 35 C 5.206631 0.313382 0.657959 0
M  V30 36 C 5.208073 -0.969788 1.188336 0
M  V30 37 N 4.302467 -1.754118 1.755446 0
M  V30 38 C 2.973836 -1.722916 1.996321 0 CFG=1
M  V30 39 C 1.808097 -1.074547 1.469427 0
M  V30 40 C 1.480250 -1.143102 0.022201 0
M  V30 41 C 1.681419 -2.507590 -0.545671 0 CFG=1
M  V30 42 N 2.014616 -2.497328 -1.949368 0
M  V30 43 C 3.242297 -1.832733 -2.257435 0
M  V30 44 C 0.942271 -1.866106 -2.716006 0
M  V30 45 C 2.790699 -3.273707 0.187759 0
M  V30 46 C 2.472901 -3.197273 1.665509 0
M  V30 47 H 4.766003 -5.008375 2.103556 0
M  V30 48 H 6.079719 -4.490852 3.111494 0
M  V30 49 H 4.513101 -4.090716 3.721503 0
M  V30 50 H 8.574762 -1.412447 0.558943 0
M  V30 51 H 7.028666 2.769170 -0.788855 0
M  V30 52 H 4.801372 3.950111 -0.683030 0
M  V30 53 H -0.181548 4.418549 1.357704 0
M  V30 54 H -0.049426 4.641048 -0.491003 0
M  V30 55 H -0.584848 1.917064 -0.070168 0
M  V30 56 H -1.787610 0.671669 -0.819684 0
M  V30 57 H -3.090320 -1.114915 -1.426355 0
M  V30 58 H -5.468878 -1.054580 -1.214437 0
M  V30 59 H -7.203781 1.524007 0.556948 0
M  V30 60 H -8.627153 0.873947 -1.551361 0
M  V30 61 H -7.584113 2.405541 -1.642190 0
M  V30 62 H -6.986032 0.904528 -2.394997 0
M  V30 63 H -8.425181 -1.117258 -1.489762 0
M  V30 64 H -8.764270 -3.416752 -0.765656 0
M  V30 65 H -6.064814 -0.230030 1.936948 0
M  V30 66 H 3.238562 0.649500 1.133434 0
M  V30 67 H 2.822461 -1.744240 3.135258 0
M  V30 68 H 1.443721 -0.149274 2.007683 0
M  V30 69 H 0.905137 -1.677768 1.893092 0
M  V30 70 H 0.380357 -0.897452 -0.102162 0
M  V30 71 H 1.954444 -0.348261 -0.605333 0
M  V30 72 H 0.765013 -3.130089 -0.424927 0
M  V30 73 H 3.601667 -1.103008 -1.514726 0
M  V30 74 H 4.073006 -2.590865 -2.322179 0
M  V30 75 H 3.150578 -1.393376 -3.285119 0
M  V30 76 H 0.162335 -2.601723 -3.012388 0
M  V30 77 H 1.304809 -1.395456 -3.655872 0
M  V30 78 H 0.404705 -1.100033 -2.120919 0
M  V30 79 H 2.836335 -4.308278 -0.199570 0
M  V30 80 H 3.734254 -2.766261 -0.073737 0
M  V30 81 H 2.877663 -3.932523 2.264649 0
M  V30 82 H 1.342531 -3.213452 1.749867 0
M  V30 END ATOM
M  V30 BEGIN BOND
M  V30 1 1 1 2
M  V30 2 2 2 3
M  V30 3 1 3 4
M  V30 4 2 4 5
M  V30 5 1 5 6
M  V30 6 2 6 7
M  V30 7 1 7 8
M  V30 8 2 8 9
M  V30 9 1 9 10
M  V30 10 1 10 11
M  V30 11 3 11 12
M  V30 12 1 12 13
M  V30 13 1 13 14
M  V30 14 1 14 15
M  V30 15 2 15 16
M  V30 16 1 15 17
M  V30 17 2 17 18
M  V30 18 1 18 19
M  V30 19 2 19 20
M  V30 20 1 20 21
M  V30 21 1 21 22
M  V30 22 1 22 23
M  V30 23 1 22 24
M  V30 24 2 24 25
M  V30 25 1 25 26
M  V30 26 2 26 27
M  V30 27 1 27 28
M  V30 28 1 27 29
M  V30 29 1 29 30
M  V30 30 2 29 31
M  V30 31 1 21 32
M  V30 32 2 32 33
M  V30 33 2 10 34
M  V30 34 1 34 35
M  V30 35 2 35 36
M  V30 36 1 36 37
M  V30 37 1 37 38
M  V30 38 1 38 39
M  V30 39 1 39 40
M  V30 40 1 40 41
M  V30 41 1 41 42
M  V30 42 1 42 43
M  V30 43 1 42 44
M  V30 44 1 41 45
M  V30 45 1 45 46
M  V30 46 1 37 2
M  V30 47 1 46 38
M  V30 48 1 36 4
M  V30 49 1 35 7
M  V30 50 1 32 17
M  V30 51 1 31 24
M  V30 52 1 1 47
M  V30 53 1 1 48
M  V30 54 1 1 49
M  V30 55 1 5 50
M  V30 56 1 8 51
M  V30 57 1 9 52
M  V30 58 1 13 53
M  V30 59 1 13 54
M  V30 60 1 14 55
M  V30 61 1 18 56
M  V30 62 1 19 57
M  V30 63 1 20 58
M  V30 64 1 22 59 CFG=1
M  V30 65 1 23 60
M  V30 66 1 23 61
M  V30 67 1 23 62
M  V30 68 1 25 63
M  V30 69 1 26 64
M  V30 70 1 31 65
M  V30 71 1 34 66
M  V30 72 1 38 67 CFG=1
M  V30 73 1 39 68
M  V30 74 1 39 69
M  V30 75 1 40 70
M  V30 76 1 40 71
M  V30 77 1 41 72 CFG=3
M  V30 78 1 43 73
M  V30 79 1 43 74
M  V30 80 1 43 75
M  V30 81 1 44 76
M  V30 82 1 44 77
M  V30 83 1 44 78
M  V30 84 1 45 79
M  V30 85 1 45 80
M  V30 86 1 46 81
M  V30 87 1 46 82
M  V30 END BOND
M  V30 END CTAB
M  END
>  <Dataset>  (317) 
ChEMBL_Kinases

>  <Ligand_Instance>  (317) 
nan

>  <PDB_ID>  (317) 
nan

>  <Standardized_SMILES>  (317) 
Cc1nc2cnc3ccc(C#CCNC(=O)c4cccn([C@@H](C)c5ccc(F)c(F)c5)c4=O)cc3c2n1[C@H]1CC[C@@H](N(C)C)CC1

>  <Name>  (317) 
nan

>  <Pocket>  (317) 
nan

>  <ATP_Site>  (317) 
nan

>  <Peripheral>  (317) 
nan

>  <Num_H_Atoms_ProtBoundConf>  (317) 
nan

>  <Num_Resolved_Atoms>  (317) 
nan

>  <Num_Not_Resolved_Atoms>  (317) 
nan

$$$$
CHEMBL3644731
     RDKit          3D

  0  0  0  0  0  0  0  0  0  0999 V3000
M  V30 BEGIN CTAB
M  V30 COUNTS 78 83 0 0 0
M  V30 BEGIN ATOM
M  V30 1 C 3.517101 -2.735486 4.572848 0
M  V30 2 C 3.616636 -1.440907 3.805634 0
M  V30 3 N 4.774882 -0.806434 4.159942 0
M  V30 4 C 4.823914 0.371411 3.513909 0
M  V30 5 C 5.780487 1.360078 3.550795 0
M  V30 6 N 5.596156 2.467676 2.821868 0
M  V30 7 C 4.462711 2.542095 2.089877 0
M  V30 8 C 4.284340 3.719439 1.407539 0
M  V30 9 C 3.113885 3.868629 0.697601 0
M  V30 10 C 2.113709 2.883304 0.645930 0
M  V30 11 C 0.956427 3.224928 -0.107329 0
M  V30 12 C -0.015322 3.521598 -0.719344 0
M  V30 13 C -1.202844 3.904747 -1.451757 0
M  V30 14 N -2.065228 2.777370 -1.662744 0
M  V30 15 C -1.724935 1.612476 -2.379026 0
M  V30 16 O -0.539336 1.734882 -2.797866 0
M  V30 17 C -2.545752 0.444397 -2.628025 0
M  V30 18 C -1.962288 -0.560079 -3.378597 0
M  V30 19 C -2.616951 -1.726013 -3.704246 0
M  V30 20 N -3.891070 -1.904683 -3.273768 0
M  V30 21 N -4.468576 -0.960094 -2.555983 0
M  V30 22 C -5.821819 -1.178156 -2.106347 0
M  V30 23 C -5.791414 -1.871085 -0.784883 0
M  V30 24 C -5.813305 -3.257279 -0.856880 0
M  V30 25 C -5.791328 -4.096507 0.250870 0
M  V30 26 C -5.743911 -3.491661 1.486263 0
M  V30 27 F -5.717946 -4.181332 2.650646 0
M  V30 28 C -5.720591 -2.103469 1.593282 0
M  V30 29 F -5.673242 -1.440504 2.784392 0
M  V30 30 C -5.744142 -1.312956 0.466384 0
M  V30 31 C -3.838389 0.181031 -2.232506 0
M  V30 32 O -4.397525 1.056272 -1.558234 0
M  V30 33 C 2.426669 1.758556 1.371384 0
M  V30 34 C 3.538909 1.533208 2.082807 0
M  V30 35 C 3.663106 0.388243 2.785550 0
M  V30 36 N 2.876302 -0.677397 2.900483 0
M  V30 37 C 1.731588 -1.220656 2.413402 0
M  V30 38 C 2.157448 -2.680087 1.971235 0
M  V30 39 C 2.083848 -2.948270 0.527962 0
M  V30 40 N 1.873421 -1.780906 -0.313530 0
M  V30 41 C 1.883965 -2.256585 -1.682503 0
M  V30 42 C 0.799494 -3.215159 -2.025622 0
M  V30 43 C 1.848783 -1.086089 -2.625791 0
M  V30 44 C 0.684913 -1.084450 0.073000 0
M  V30 45 C 0.639901 -1.010239 1.575395 0
M  V30 46 H 2.532702 -3.190967 4.531575 0
M  V30 47 H 4.324506 -3.405359 4.292642 0
M  V30 48 H 3.667575 -2.548400 5.688569 0
M  V30 49 H 6.634898 1.179194 4.173476 0
M  V30 50 H 5.028917 4.491859 1.425976 0
M  V30 51 H 3.011871 4.811994 0.170899 0
M  V30 52 H -0.946229 4.294942 -2.481923 0
M  V30 53 H -1.721588 4.745404 -0.952996 0
M  V30 54 H -3.024252 2.834100 -1.245969 0
M  V30 55 H -0.955350 -0.513077 -3.767220 0
M  V30 56 H -2.176312 -2.512974 -4.287079 0
M  V30 57 H -6.283865 -0.172564 -1.964918 0
M  V30 58 H -6.398919 -1.763095 -2.833002 0
M  V30 59 H -5.852150 -3.806878 -1.808088 0
M  V30 60 H -5.809612 -5.167062 0.191860 0
M  V30 61 H -5.726724 -0.225408 0.476050 0
M  V30 62 H 1.593050 1.146260 1.284556 0
M  V30 63 H 1.167898 -1.489628 3.437621 0
M  V30 64 H 3.198516 -2.882764 2.282479 0
M  V30 65 H 1.501631 -3.383610 2.473103 0
M  V30 66 H 1.345670 -3.766228 0.257708 0
M  V30 67 H 3.047704 -3.375984 0.187054 0
M  V30 68 H 2.887568 -2.755996 -1.881927 0
M  V30 69 H -0.002037 -3.322486 -1.267340 0
M  V30 70 H 0.399579 -3.057762 -3.049582 0
M  V30 71 H 1.243547 -4.253870 -2.078427 0
M  V30 72 H 1.638864 -1.511652 -3.655599 0
M  V30 73 H 2.837986 -0.579589 -2.659533 0
M  V30 74 H 0.998525 -0.459536 -2.388722 0
M  V30 75 H -0.263269 -1.545310 -0.324626 0
M  V30 76 H 0.723398 -0.105809 -0.444254 0
M  V30 77 H -0.069203 -1.907011 1.774089 0
M  V30 78 H -0.182725 -0.275060 1.911447 0
M  V30 END ATOM
M  V30 BEGIN BOND
M  V30 1 1 1 2
M  V30 2 2 2 3
M  V30 3 1 3 4
M  V30 4 2 4 5
M  V30 5 1 5 6
M  V30 6 2 6 7
M  V30 7 1 7 8
M  V30 8 2 8 9
M  V30 9 1 9 10
M  V30 10 1 10 11
M  V30 11 3 11 12
M  V30 12 1 12 13
M  V30 13 1 13 14
M  V30 14 1 14 15
M  V30 15 2 15 16
M  V30 16 1 15 17
M  V30 17 2 17 18
M  V30 18 1 18 19
M  V30 19 2 19 20
M  V30 20 1 20 21
M  V30 21 1 21 22
M  V30 22 1 22 23
M  V30 23 2 23 24
M  V30 24 1 24 25
M  V30 25 2 25 26
M  V30 26 1 26 27
M  V30 27 1 26 28
M  V30 28 1 28 29
M  V30 29 2 28 30
M  V30 30 1 21 31
M  V30 31 2 31 32
M  V30 32 2 10 33
M  V30 33 1 33 34
M  V30 34 2 34 35
M  V30 35 1 35 36
M  V30 36 1 36 37
M  V30 37 1 37 38
M  V30 38 1 38 39
M  V30 39 1 39 40
M  V30 40 1 40 41
M  V30 41 1 41 42
M  V30 42 1 41 43
M  V30 43 1 40 44
M  V30 44 1 44 45
M  V30 45 1 36 2
M  V30 46 1 45 37
M  V30 47 1 35 4
M  V30 48 1 34 7
M  V30 49 1 31 17
M  V30 50 1 30 23
M  V30 51 1 1 46
M  V30 52 1 1 47
M  V30 53 1 1 48
M  V30 54 1 5 49
M  V30 55 1 8 50
M  V30 56 1 9 51
M  V30 57 1 13 52
M  V30 58 1 13 53
M  V30 59 1 14 54
M  V30 60 1 18 55
M  V30 61 1 19 56
M  V30 62 1 22 57
M  V30 63 1 22 58
M  V30 64 1 24 59
M  V30 65 1 25 60
M  V30 66 1 30 61
M  V30 67 1 33 62
M  V30 68 1 37 63
M  V30 69 1 38 64
M  V30 70 1 38 65
M  V30 71 1 39 66
M  V30 72 1 39 67
M  V30 73 1 41 68
M  V30 74 1 42 69
M  V30 75 1 42 70
M  V30 76 1 42 71
M  V30 77 1 43 72
M  V30 78 1 43 73
M  V30 79 1 43 74
M  V30 80 1 44 75
M  V30 81 1 44 76
M  V30 82 1 45 77
M  V30 83 1 45 78
M  V30 END BOND
M  V30 END CTAB
M  END
>  <Dataset>  (318) 
ChEMBL_Kinases

>  <Ligand_Instance>  (318) 
nan

>  <PDB_ID>  (318) 
nan

>  <Standardized_SMILES>  (318) 
Cc1nc2cnc3ccc(C#CCNC(=O)c4ccnn(Cc5ccc(F)c(F)c5)c4=O)cc3c2n1C1CCN(C(C)C)CC1

>  <Name>  (318) 
nan

>  <Pocket>  (318) 
nan

>  <ATP_Site>  (318) 
nan

>  <Peripheral>  (318) 
nan

>  <Num_H_Atoms_ProtBoundConf>  (318) 
nan

>  <Num_Resolved_Atoms>  (318) 
nan

>  <Num_Not_Resolved_Atoms>  (318) 
nan

$$$$
CHEMBL3644730
     RDKit          3D

  0  0  0  0  0  0  0  0  0  0999 V3000
M  V30 BEGIN CTAB
M  V30 COUNTS 78 83 0 0 0
M  V30 BEGIN ATOM
M  V30 1 C 5.679733 -5.143149 3.481698 0
M  V30 2 C 4.731069 -4.082248 2.933141 0
M  V30 3 C 4.606521 -3.972122 1.501612 0
M  V30 4 C 3.714850 -2.975866 0.914561 0
M  V30 5 C 3.624772 -2.919945 -0.497519 0
M  V30 6 O 4.328345 -3.700272 -1.173412 0
M  V30 7 N 2.750053 -1.995251 -1.112332 0
M  V30 8 C 2.743695 -2.037801 -2.568011 0
M  V30 9 C 1.781571 -1.037970 -3.091083 0
M  V30 10 C 1.000988 -0.237336 -3.491865 0
M  V30 11 C 0.058791 0.752039 -3.967332 0
M  V30 12 C 0.428941 1.507468 -5.044609 0
M  V30 13 C -0.341479 2.494888 -5.633543 0
M  V30 14 C -1.575069 2.666853 -5.018163 0
M  V30 15 N -2.374581 3.606341 -5.542504 0
M  V30 16 C -3.598373 3.909492 -5.087589 0
M  V30 17 C -3.961163 3.142930 -4.001659 0
M  V30 18 N -5.125516 3.180365 -3.287817 0
M  V30 19 C -5.024900 2.251324 -2.320427 0
M  V30 20 N -3.827852 1.593729 -2.365862 0
M  V30 21 C -3.537310 0.572353 -1.402059 0 CFG=1
M  V30 22 C -4.559915 0.683488 -0.224368 0
M  V30 23 C -4.003112 -0.196130 0.867262 0
M  V30 24 C -3.294417 -1.429836 0.293390 0 CFG=1
M  V30 25 N -3.297101 -2.477258 1.299732 0
M  V30 26 C -2.626861 -1.943853 2.472140 0
M  V30 27 C -2.524214 -3.625761 0.872324 0
M  V30 28 C -4.102295 -1.818943 -0.924093 0
M  V30 29 C -3.870095 -0.771029 -1.994946 0
M  V30 30 C -3.204765 2.157153 -3.397471 0
M  V30 31 C -1.979108 1.929452 -3.938734 0
M  V30 32 C -1.195013 0.957773 -3.374858 0
M  V30 33 C 3.433717 -2.631346 2.176872 0
M  V30 34 O 2.566995 -1.657123 1.683855 0
M  V30 35 N 3.171074 -2.309743 3.343407 0
M  V30 36 C 2.413546 -1.461779 4.179046 0
M  V30 37 C 3.012345 -0.163601 4.520461 0
M  V30 38 C 3.899827 0.076711 5.562154 0
M  V30 39 C 4.365916 1.354198 5.761381 0
M  V30 40 C 4.021940 2.456286 4.996943 0
M  V30 41 F 4.491843 3.705240 5.211375 0
M  V30 42 C 3.129493 2.240348 3.941054 0
M  V30 43 F 2.704550 3.227442 3.113852 0
M  V30 44 C 2.668996 0.955553 3.750149 0
M  V30 45 N 4.022724 -3.263971 3.778619 0
M  V30 46 H 5.693354 -6.009764 2.822749 0
M  V30 47 H 6.682864 -4.733129 3.628353 0
M  V30 48 H 5.231485 -5.428664 4.448165 0
M  V30 49 H 5.236375 -4.701812 0.940612 0
M  V30 50 H 2.156878 -1.335600 -0.565886 0
M  V30 51 H 2.383826 -3.020518 -2.910011 0
M  V30 52 H 3.760224 -1.894903 -2.931818 0
M  V30 53 H 1.405979 1.348292 -5.501825 0
M  V30 54 H -0.070851 3.090280 -6.470603 0
M  V30 55 H -4.271161 4.650431 -5.472445 0
M  V30 56 H -5.869603 2.147050 -1.657037 0
M  V30 57 H -2.598322 0.654371 -0.865751 0
M  V30 58 H -5.555161 0.352471 -0.576149 0
M  V30 59 H -4.558392 1.719413 0.150620 0
M  V30 60 H -4.908146 -0.631159 1.386452 0
M  V30 61 H -3.376634 0.344159 1.592232 0
M  V30 62 H -2.266449 -1.243941 -0.002120 0
M  V30 63 H -1.841377 -1.207667 2.179448 0
M  V30 64 H -2.100167 -2.732912 3.052358 0
M  V30 65 H -3.340049 -1.376218 3.109184 0
M  V30 66 H -2.225772 -4.142048 1.835638 0
M  V30 67 H -3.120292 -4.374995 0.334844 0
M  V30 68 H -1.576534 -3.363639 0.386223 0
M  V30 69 H -3.847468 -2.826284 -1.305808 0
M  V30 70 H -5.169135 -1.825184 -0.596163 0
M  V30 71 H -3.176484 -1.150261 -2.740814 0
M  V30 72 H -4.885133 -0.632475 -2.479477 0
M  V30 73 H -1.338366 0.306547 -2.564441 0
M  V30 74 H 1.435111 -1.244583 3.650585 0
M  V30 75 H 2.103871 -2.053985 5.091956 0
M  V30 76 H 4.182136 -0.767288 6.172210 0
M  V30 77 H 5.059329 1.571114 6.566795 0
M  V30 78 H 1.969762 0.793342 2.919065 0
M  V30 END ATOM
M  V30 BEGIN BOND
M  V30 1 1 1 2
M  V30 2 1 2 3
M  V30 3 2 3 4
M  V30 4 1 4 5
M  V30 5 2 5 6
M  V30 6 1 5 7
M  V30 7 1 7 8
M  V30 8 1 8 9
M  V30 9 3 9 10
M  V30 10 1 10 11
M  V30 11 2 11 12
M  V30 12 1 12 13
M  V30 13 2 13 14
M  V30 14 1 14 15
M  V30 15 2 15 16
M  V30 16 1 16 17
M  V30 17 1 17 18
M  V30 18 2 18 19
M  V30 19 1 19 20
M  V30 20 1 20 21
M  V30 21 1 21 22
M  V30 22 1 22 23
M  V30 23 1 23 24
M  V30 24 1 24 25
M  V30 25 1 25 26
M  V30 26 1 25 27
M  V30 27 1 24 28
M  V30 28 1 28 29
M  V30 29 1 20 30
M  V30 30 1 30 31
M  V30 31 2 31 32
M  V30 32 1 4 33
M  V30 33 2 33 34
M  V30 34 1 33 35
M  V30 35 1 35 36
M  V30 36 1 36 37
M  V30 37 2 37 38
M  V30 38 1 38 39
M  V30 39 2 39 40
M  V30 40 1 40 41
M  V30 41 1 40 42
M  V30 42 1 42 43
M  V30 43 2 42 44
M  V30 44 1 35 45
M  V30 45 2 45 2
M  V30 46 1 32 11
M  V30 47 1 44 37
M  V30 48 1 31 14
M  V30 49 2 30 17
M  V30 50 1 29 21
M  V30 51 1 1 46
M  V30 52 1 1 47
M  V30 53 1 1 48
M  V30 54 1 3 49
M  V30 55 1 7 50
M  V30 56 1 8 51
M  V30 57 1 8 52
M  V30 58 1 12 53
M  V30 59 1 13 54
M  V30 60 1 16 55
M  V30 61 1 19 56
M  V30 62 1 21 57 CFG=1
M  V30 63 1 22 58
M  V30 64 1 22 59
M  V30 65 1 23 60
M  V30 66 1 23 61
M  V30 67 1 24 62 CFG=3
M  V30 68 1 26 63
M  V30 69 1 26 64
M  V30 70 1 26 65
M  V30 71 1 27 66
M  V30 72 1 27 67
M  V30 73 1 27 68
M  V30 74 1 28 69
M  V30 75 1 28 70
M  V30 76 1 29 71
M  V30 77 1 29 72
M  V30 78 1 32 73
M  V30 79 1 36 74
M  V30 80 1 36 75
M  V30 81 1 38 76
M  V30 82 1 39 77
M  V30 83 1 44 78
M  V30 END BOND
M  V30 END CTAB
M  END
>  <Dataset>  (319) 
ChEMBL_Kinases

>  <Ligand_Instance>  (319) 
nan

>  <PDB_ID>  (319) 
nan

>  <Standardized_SMILES>  (319) 
Cc1cc(C(=O)NCC#Cc2ccc3ncc4ncn([C@H]5CC[C@@H](N(C)C)CC5)c4c3c2)c(=O)n(Cc2ccc(F)c(F)c2)n1

>  <Name>  (319) 
nan

>  <Pocket>  (319) 
nan

>  <ATP_Site>  (319) 
nan

>  <Peripheral>  (319) 
nan

>  <Num_H_Atoms_ProtBoundConf>  (319) 
nan

>  <Num_Resolved_Atoms>  (319) 
nan

>  <Num_Not_Resolved_Atoms>  (319) 
nan

$$$$
CHEMBL3644729
     RDKit          3D

  0  0  0  0  0  0  0  0  0  0999 V3000
M  V30 BEGIN CTAB
M  V30 COUNTS 79 84 0 0 0
M  V30 BEGIN ATOM
M  V30 1 C -0.249260 -4.008043 -3.059450 0
M  V30 2 C 0.169331 -4.655818 -1.770598 0
M  V30 3 C 1.400341 -5.474782 -2.037598 0
M  V30 4 N 0.385382 -3.618835 -0.745836 0
M  V30 5 C 0.635256 -4.259449 0.543005 0
M  V30 6 C 1.804483 -3.730129 1.282068 0
M  V30 7 C 1.716360 -2.162806 1.371794 0
M  V30 8 N 2.888715 -1.725531 1.996363 0
M  V30 9 C 4.060029 -2.229595 1.483177 0
M  V30 10 N 5.133414 -1.784031 2.167986 0
M  V30 11 C 4.694138 -0.975744 3.145074 0
M  V30 12 C 5.348872 -0.265149 4.128978 0
M  V30 13 N 4.616143 0.484758 5.006271 0
M  V30 14 C 3.281138 0.480452 4.844427 0
M  V30 15 C 2.555440 1.265106 5.697899 0
M  V30 16 C 1.185658 1.364685 5.592920 0
M  V30 17 C 0.497719 0.657646 4.596386 0
M  V30 18 C -0.937132 0.869581 4.455477 0
M  V30 19 C -2.111768 1.059973 4.327114 0
M  V30 20 C -3.566190 1.320652 4.157007 0
M  V30 21 N -3.786430 1.417121 2.745937 0
M  V30 22 C -4.213575 1.590186 1.476483 0
M  V30 23 O -5.379709 2.140956 1.448238 0
M  V30 24 C -3.875453 1.413894 0.141068 0
M  V30 25 C -3.254932 0.048268 0.443169 0
M  V30 26 C -2.594472 -0.948852 -0.345384 0
M  V30 27 C -2.472531 -0.635167 -1.707671 0
M  V30 28 N -2.981220 0.547042 -2.089620 0
M  V30 29 C -2.980419 1.078830 -3.407126 0 CFG=1
M  V30 30 C -4.183619 1.908296 -3.739158 0
M  V30 31 C -1.706240 1.800752 -3.730488 0
M  V30 32 C -1.252764 2.176349 -4.980237 0
M  V30 33 C -0.056083 2.817074 -5.114431 0
M  V30 34 C 0.785067 3.136838 -4.055473 0
M  V30 35 F 1.970358 3.772059 -4.141917 0
M  V30 36 C 0.358645 2.770874 -2.775516 0
M  V30 37 F 1.094804 3.027933 -1.639686 0
M  V30 38 C -0.874467 2.114535 -2.651908 0
M  V30 39 C -3.517293 1.223735 -1.117471 0
M  V30 40 O -4.065983 2.419731 -1.272027 0
M  V30 41 C 1.261242 -0.121637 3.759925 0
M  V30 42 C 2.617674 -0.217700 3.873515 0
M  V30 43 C 3.322847 -0.976994 2.991422 0
M  V30 44 C 1.769538 -1.726626 -0.107069 0
M  V30 45 C 1.631967 -2.906571 -1.038748 0
M  V30 46 H -1.325572 -4.265275 -3.278425 0
M  V30 47 H 0.379808 -4.335921 -3.924264 0
M  V30 48 H -0.153783 -2.919876 -2.953488 0
M  V30 49 H -0.633038 -5.360835 -1.401834 0
M  V30 50 H 1.078754 -6.544591 -2.194263 0
M  V30 51 H 2.114475 -5.498859 -1.178283 0
M  V30 52 H 1.917912 -5.146766 -2.961732 0
M  V30 53 H 0.793924 -5.326669 0.352865 0
M  V30 54 H -0.307870 -4.167729 1.151582 0
M  V30 55 H 2.789947 -4.069955 1.011138 0
M  V30 56 H 1.678734 -4.013263 2.369796 0
M  V30 57 H 0.735914 -2.051625 1.777634 0
M  V30 58 H 4.362221 -2.882876 0.678330 0
M  V30 59 H 6.444170 -0.333109 4.165776 0
M  V30 60 H 3.052712 1.832881 6.484683 0
M  V30 61 H 0.643288 1.997782 6.290157 0
M  V30 62 H -3.784302 2.235669 4.699066 0
M  V30 63 H -4.139092 0.414109 4.515918 0
M  V30 64 H -2.828316 1.092878 2.400934 0
M  V30 65 H -3.108118 -0.610349 1.410920 0
M  V30 66 H -2.138546 -1.936379 -0.211590 0
M  V30 67 H -2.052177 -1.140887 -2.554877 0
M  V30 68 H -3.001360 0.219124 -4.149024 0
M  V30 69 H -4.044159 2.968228 -3.531965 0
M  V30 70 H -4.462447 1.796424 -4.835216 0
M  V30 71 H -5.063887 1.507934 -3.163840 0
M  V30 72 H -1.896203 1.923179 -5.793033 0
M  V30 73 H 0.291661 3.114892 -6.108610 0
M  V30 74 H -1.199322 1.837325 -1.674013 0
M  V30 75 H 0.607754 -0.576331 3.057715 0
M  V30 76 H 1.009475 -0.947244 -0.331790 0
M  V30 77 H 2.734933 -1.253873 -0.363121 0
M  V30 78 H 2.524028 -3.534200 -0.936244 0
M  V30 79 H 1.573921 -2.483961 -2.065390 0
M  V30 END ATOM
M  V30 BEGIN BOND
M  V30 1 1 1 2
M  V30 2 1 2 3
M  V30 3 1 2 4
M  V30 4 1 4 5
M  V30 5 1 5 6
M  V30 6 1 6 7
M  V30 7 1 7 8
M  V30 8 1 8 9
M  V30 9 2 9 10
M  V30 10 1 10 11
M  V30 11 2 11 12
M  V30 12 1 12 13
M  V30 13 2 13 14
M  V30 14 1 14 15
M  V30 15 2 15 16
M  V30 16 1 16 17
M  V30 17 1 17 18
M  V30 18 3 18 19
M  V30 19 1 19 20
M  V30 20 1 20 21
M  V30 21 1 21 22
M  V30 22 2 22 23
M  V30 23 1 22 24
M  V30 24 2 24 25
M  V30 25 1 25 26
M  V30 26 2 26 27
M  V30 27 1 27 28
M  V30 28 1 28 29
M  V30 29 1 29 30
M  V30 30 1 29 31
M  V30 31 2 31 32
M  V30 32 1 32 33
M  V30 33 2 33 34
M  V30 34 1 34 35
M  V30 35 1 34 36
M  V30 36 1 36 37
M  V30 37 2 36 38
M  V30 38 1 28 39
M  V30 39 2 39 40
M  V30 40 2 17 41
M  V30 41 1 41 42
M  V30 42 2 42 43
M  V30 43 1 7 44
M  V30 44 1 44 45
M  V30 45 1 45 4
M  V30 46 1 43 8
M  V30 47 1 43 11
M  V30 48 1 42 14
M  V30 49 1 39 24
M  V30 50 1 38 31
M  V30 51 1 1 46
M  V30 52 1 1 47
M  V30 53 1 1 48
M  V30 54 1 2 49
M  V30 55 1 3 50
M  V30 56 1 3 51
M  V30 57 1 3 52
M  V30 58 1 5 53
M  V30 59 1 5 54
M  V30 60 1 6 55
M  V30 61 1 6 56
M  V30 62 1 7 57
M  V30 63 1 9 58
M  V30 64 1 12 59
M  V30 65 1 15 60
M  V30 66 1 16 61
M  V30 67 1 20 62
M  V30 68 1 20 63
M  V30 69 1 21 64
M  V30 70 1 25 65
M  V30 71 1 26 66
M  V30 72 1 27 67
M  V30 73 1 29 68 CFG=3
M  V30 74 1 30 69
M  V30 75 1 30 70
M  V30 76 1 30 71
M  V30 77 1 32 72
M  V30 78 1 33 73
M  V30 79 1 38 74
M  V30 80 1 41 75
M  V30 81 1 44 76
M  V30 82 1 44 77
M  V30 83 1 45 78
M  V30 84 1 45 79
M  V30 END BOND
M  V30 END CTAB
M  END
>  <Dataset>  (320) 
ChEMBL_Kinases

>  <Ligand_Instance>  (320) 
nan

>  <PDB_ID>  (320) 
nan

>  <Standardized_SMILES>  (320) 
CC(C)N1CCC(n2cnc3cnc4ccc(C#CCNC(=O)c5cccn([C@@H](C)c6ccc(F)c(F)c6)c5=O)cc4c32)CC1

>  <Name>  (320) 
nan

>  <Pocket>  (320) 
nan

>  <ATP_Site>  (320) 
nan

>  <Peripheral>  (320) 
nan

>  <Num_H_Atoms_ProtBoundConf>  (320) 
nan

>  <Num_Resolved_Atoms>  (320) 
nan

>  <Num_Not_Resolved_Atoms>  (320) 
nan

$$$$
CHEMBL3644728
     RDKit          3D

  0  0  0  0  0  0  0  0  0  0999 V3000
M  V30 BEGIN CTAB
M  V30 COUNTS 68 73 0 0 0
M  V30 BEGIN ATOM
M  V30 1 O 0.551224 -2.594611 3.719436 0
M  V30 2 C 0.441475 -1.786917 2.764901 0
M  V30 3 N 1.269017 -1.581717 1.707416 0
M  V30 4 C 2.449968 -2.479258 1.673895 0
M  V30 5 C 3.117822 -2.062530 0.412939 0
M  V30 6 C 3.648867 -1.704107 -0.630920 0
M  V30 7 C 4.251806 -1.268947 -1.856246 0
M  V30 8 C 5.583925 -0.969849 -2.022059 0
M  V30 9 C 6.114944 -0.539446 -3.221307 0
M  V30 10 C 5.237299 -0.408575 -4.297710 0
M  V30 11 N 5.796778 0.039355 -5.456283 0
M  V30 12 C 4.959195 0.185845 -6.499392 0
M  V30 13 C 3.604263 -0.075880 -6.489057 0
M  V30 14 N 2.576125 -0.012573 -7.346094 0
M  V30 15 C 1.464493 -0.418606 -6.679146 0
M  V30 16 N 1.731622 -0.757551 -5.370531 0
M  V30 17 C 0.709127 -1.219310 -4.491421 0
M  V30 18 C 0.601044 -2.732305 -4.449608 0
M  V30 19 C -0.821758 -2.935086 -3.976922 0
M  V30 20 N -1.551722 -1.703662 -4.252989 0
M  V30 21 C -0.671517 -0.941853 -5.142325 0
M  V30 22 C 3.046457 -0.532252 -5.301974 0
M  V30 23 C 3.895040 -0.678422 -4.245524 0
M  V30 24 C 3.464858 -1.099931 -3.017850 0
M  V30 25 C -0.730415 -1.392318 3.356199 0
M  V30 26 C -1.248344 -0.546358 2.196161 0
M  V30 27 C -2.503419 0.183284 2.174658 0
M  V30 28 C -3.309085 0.090856 3.348403 0
M  V30 29 N -2.911490 -0.664353 4.474813 0
M  V30 30 C -3.661464 -0.753654 5.649011 0 CFG=2
M  V30 31 C -5.121424 -1.063924 5.374720 0
M  V30 32 O -5.843433 -1.147604 6.552186 0
M  V30 33 C -3.529184 0.511568 6.449977 0
M  V30 34 C -2.506949 0.595223 7.383585 0
M  V30 35 C -2.368724 1.768981 8.132677 0
M  V30 36 C -3.229498 2.861969 7.970636 0
M  V30 37 C -4.234970 2.751831 7.042743 0
M  V30 38 C -4.361037 1.595121 6.310303 0
M  V30 39 C -1.781363 -1.035191 3.881688 0
M  V30 40 O -1.345221 -1.790177 4.970082 0
M  V30 41 H 0.936559 -0.825430 1.095437 0
M  V30 42 H 2.070871 -3.492328 1.595396 0
M  V30 43 H 3.066392 -2.250622 2.539542 0
M  V30 44 H 6.234311 -1.096491 -1.120938 0
M  V30 45 H 7.169274 -0.329060 -3.260815 0
M  V30 46 H 5.311106 0.540993 -7.478010 0
M  V30 47 H 0.586948 -0.409758 -7.303231 0
M  V30 48 H 0.585574 -0.706087 -3.539755 0
M  V30 49 H 1.277948 -3.221689 -3.753408 0
M  V30 50 H 0.653814 -3.057073 -5.510481 0
M  V30 51 H -0.809972 -3.068638 -2.878146 0
M  V30 52 H -1.295201 -3.803166 -4.489634 0
M  V30 53 H -1.638450 -1.133324 -3.361026 0
M  V30 54 H -0.686571 -1.436559 -6.112808 0
M  V30 55 H -0.905224 0.132725 -5.120064 0
M  V30 56 H 2.455959 -1.371649 -2.803608 0
M  V30 57 H -0.914993 -0.238191 1.134455 0
M  V30 58 H -2.954403 0.814233 1.383886 0
M  V30 59 H -4.275717 0.634493 3.364604 0
M  V30 60 H -3.282753 -1.603989 6.259090 0
M  V30 61 H -5.199855 -2.048925 4.889759 0
M  V30 62 H -5.519166 -0.235196 4.751611 0
M  V30 63 H -5.927671 -0.244934 6.927036 0
M  V30 64 H -1.781569 -0.206928 7.592557 0
M  V30 65 H -1.570792 1.809903 8.860180 0
M  V30 66 H -3.128197 3.773997 8.541860 0
M  V30 67 H -4.890144 3.596055 6.921943 0
M  V30 68 H -5.169632 1.609709 5.610262 0
M  V30 END ATOM
M  V30 BEGIN BOND
M  V30 1 2 1 2
M  V30 2 1 2 3
M  V30 3 1 3 4
M  V30 4 1 4 5
M  V30 5 3 5 6
M  V30 6 1 6 7
M  V30 7 2 7 8
M  V30 8 1 8 9
M  V30 9 2 9 10
M  V30 10 1 10 11
M  V30 11 2 11 12
M  V30 12 1 12 13
M  V30 13 1 13 14
M  V30 14 2 14 15
M  V30 15 1 15 16
M  V30 16 1 16 17
M  V30 17 1 17 18
M  V30 18 1 18 19
M  V30 19 1 19 20
M  V30 20 1 20 21
M  V30 21 1 16 22
M  V30 22 1 22 23
M  V30 23 2 23 24
M  V30 24 1 2 25
M  V30 25 2 25 26
M  V30 26 1 26 27
M  V30 27 2 27 28
M  V30 28 1 28 29
M  V30 29 1 29 30
M  V30 30 1 30 31
M  V30 31 1 31 32
M  V30 32 1 30 33
M  V30 33 2 33 34
M  V30 34 1 34 35
M  V30 35 2 35 36
M  V30 36 1 36 37
M  V30 37 2 37 38
M  V30 38 1 29 39
M  V30 39 2 39 40
M  V30 40 1 24 7
M  V30 41 1 39 25
M  V30 42 1 23 10
M  V30 43 1 38 33
M  V30 44 2 22 13
M  V30 45 1 21 17
M  V30 46 1 3 41
M  V30 47 1 4 42
M  V30 48 1 4 43
M  V30 49 1 8 44
M  V30 50 1 9 45
M  V30 51 1 12 46
M  V30 52 1 15 47
M  V30 53 1 17 48
M  V30 54 1 18 49
M  V30 55 1 18 50
M  V30 56 1 19 51
M  V30 57 1 19 52
M  V30 58 1 20 53
M  V30 59 1 21 54
M  V30 60 1 21 55
M  V30 61 1 24 56
M  V30 62 1 26 57
M  V30 63 1 27 58
M  V30 64 1 28 59
M  V30 65 1 30 60 CFG=1
M  V30 66 1 31 61
M  V30 67 1 31 62
M  V30 68 1 32 63
M  V30 69 1 34 64
M  V30 70 1 35 65
M  V30 71 1 36 66
M  V30 72 1 37 67
M  V30 73 1 38 68
M  V30 END BOND
M  V30 END CTAB
M  END
>  <Dataset>  (321) 
ChEMBL_Kinases

>  <Ligand_Instance>  (321) 
nan

>  <PDB_ID>  (321) 
nan

>  <Standardized_SMILES>  (321) 
O=C(NCC#Cc1ccc2ncc3ncn(C4CCNC4)c3c2c1)c1cccn([C@H](CO)c2ccccc2)c1=O

>  <Name>  (321) 
nan

>  <Pocket>  (321) 
nan

>  <ATP_Site>  (321) 
nan

>  <Peripheral>  (321) 
nan

>  <Num_H_Atoms_ProtBoundConf>  (321) 
nan

>  <Num_Resolved_Atoms>  (321) 
nan

>  <Num_Not_Resolved_Atoms>  (321) 
nan

$$$$
CHEMBL3644727
     RDKit          3D

  0  0  0  0  0  0  0  0  0  0999 V3000
M  V30 BEGIN CTAB
M  V30 COUNTS 76 81 0 0 0
M  V30 BEGIN ATOM
M  V30 1 C 1.339732 -5.367577 1.571581 0
M  V30 2 C 1.566071 -4.775215 0.174931 0
M  V30 3 C 2.787904 -5.440332 -0.392212 0
M  V30 4 N 1.607024 -3.350339 0.205504 0
M  V30 5 C 1.799994 -2.815041 -1.101568 0
M  V30 6 C 3.100712 -2.062510 -1.244226 0
M  V30 7 C 3.059510 -0.802598 -0.321937 0
M  V30 8 N 4.305348 -0.140466 -0.507463 0
M  V30 9 C 5.412862 -0.733057 -1.060033 0
M  V30 10 N 6.483745 0.072774 -1.148715 0
M  V30 11 C 6.104001 1.256795 -0.642205 0
M  V30 12 C 6.796699 2.429266 -0.491138 0
M  V30 13 N 6.191684 3.500021 0.050454 0
M  V30 14 C 4.886561 3.368807 0.434078 0
M  V30 15 C 4.337656 4.490029 0.976323 0
M  V30 16 C 3.023892 4.407333 1.381719 0
M  V30 17 C 2.294128 3.245325 1.246994 0
M  V30 18 C 0.933179 3.290015 1.711739 0
M  V30 19 C -0.200989 3.311869 2.113955 0
M  V30 20 C -1.601236 3.313036 2.608218 0
M  V30 21 N -2.299251 2.131729 2.086235 0
M  V30 22 C -3.650206 1.969136 2.460483 0
M  V30 23 O -4.003107 2.930475 3.211346 0
M  V30 24 C -4.544436 0.885750 2.073575 0
M  V30 25 C -5.838701 0.991805 2.602043 0
M  V30 26 C -6.801577 0.043499 2.327440 0
M  V30 27 C -6.484276 -1.027251 1.518873 0
M  V30 28 N -5.243294 -1.127940 1.012898 0
M  V30 29 C -4.909897 -2.254144 0.163716 0
M  V30 30 C -5.161534 -2.004587 -1.273793 0
M  V30 31 C -4.216001 -1.480300 -2.133216 0
M  V30 32 C -4.436716 -1.242804 -3.473642 0
M  V30 33 C -5.662451 -1.535617 -4.015576 0
M  V30 34 F -5.998099 -1.345344 -5.320466 0
M  V30 35 C -6.671156 -2.067952 -3.214005 0
M  V30 36 F -7.905242 -2.383080 -3.671576 0
M  V30 37 C -6.373873 -2.279301 -1.873941 0
M  V30 38 C -4.327860 -0.216266 1.280406 0
M  V30 39 O -3.188959 -0.304364 0.818864 0
M  V30 40 C 2.908098 2.139512 0.688052 0
M  V30 41 C 4.209796 2.187022 0.274869 0
M  V30 42 C 4.787737 1.083066 -0.268951 0
M  V30 43 C 2.805106 -1.374781 1.038314 0
M  V30 44 C 2.608810 -2.852780 1.095168 0
M  V30 45 H 0.944156 -6.375858 1.444565 0
M  V30 46 H 2.223694 -5.310428 2.205374 0
M  V30 47 H 0.504721 -4.771572 2.025669 0
M  V30 48 H 0.709125 -5.131316 -0.439715 0
M  V30 49 H 2.628115 -6.547414 -0.227078 0
M  V30 50 H 3.726018 -5.224339 0.143073 0
M  V30 51 H 2.844530 -5.338378 -1.487388 0
M  V30 52 H 0.965040 -2.131837 -1.399640 0
M  V30 53 H 1.795915 -3.634441 -1.842721 0
M  V30 54 H 3.896277 -2.696860 -0.863335 0
M  V30 55 H 3.295458 -1.715369 -2.253274 0
M  V30 56 H 2.161575 -0.301531 -0.719219 0
M  V30 57 H 5.565062 -1.743909 -1.437365 0
M  V30 58 H 7.826658 2.512297 -0.800292 0
M  V30 59 H 4.889261 5.411516 1.092011 0
M  V30 60 H 2.578346 5.292888 1.813555 0
M  V30 61 H -2.048779 4.241707 2.236791 0
M  V30 62 H -1.649188 3.242445 3.714706 0
M  V30 63 H -1.859415 1.420868 1.466616 0
M  V30 64 H -6.132933 1.831709 3.252154 0
M  V30 65 H -7.781161 0.161830 2.751689 0
M  V30 66 H -7.268659 -1.747749 1.329389 0
M  V30 67 H -3.817548 -2.420996 0.274182 0
M  V30 68 H -5.381075 -3.194480 0.516303 0
M  V30 69 H -3.235336 -1.231590 -1.764358 0
M  V30 70 H -3.673277 -0.831866 -4.115014 0
M  V30 71 H -7.163514 -2.696172 -1.245752 0
M  V30 72 H 2.223524 1.330714 0.656845 0
M  V30 73 H 1.994330 -0.821583 1.585076 0
M  V30 74 H 3.737745 -1.148158 1.635954 0
M  V30 75 H 3.595442 -3.382682 1.001715 0
M  V30 76 H 2.307107 -3.090891 2.163823 0
M  V30 END ATOM
M  V30 BEGIN BOND
M  V30 1 1 1 2
M  V30 2 1 2 3
M  V30 3 1 2 4
M  V30 4 1 4 5
M  V30 5 1 5 6
M  V30 6 1 6 7
M  V30 7 1 7 8
M  V30 8 1 8 9
M  V30 9 2 9 10
M  V30 10 1 10 11
M  V30 11 2 11 12
M  V30 12 1 12 13
M  V30 13 2 13 14
M  V30 14 1 14 15
M  V30 15 2 15 16
M  V30 16 1 16 17
M  V30 17 1 17 18
M  V30 18 3 18 19
M  V30 19 1 19 20
M  V30 20 1 20 21
M  V30 21 1 21 22
M  V30 22 2 22 23
M  V30 23 1 22 24
M  V30 24 2 24 25
M  V30 25 1 25 26
M  V30 26 2 26 27
M  V30 27 1 27 28
M  V30 28 1 28 29
M  V30 29 1 29 30
M  V30 30 2 30 31
M  V30 31 1 31 32
M  V30 32 2 32 33
M  V30 33 1 33 34
M  V30 34 1 33 35
M  V30 35 1 35 36
M  V30 36 2 35 37
M  V30 37 1 28 38
M  V30 38 2 38 39
M  V30 39 2 17 40
M  V30 40 1 40 41
M  V30 41 2 41 42
M  V30 42 1 7 43
M  V30 43 1 43 44
M  V30 44 1 44 4
M  V30 45 1 42 8
M  V30 46 1 42 11
M  V30 47 1 41 14
M  V30 48 1 38 24
M  V30 49 1 37 30
M  V30 50 1 1 45
M  V30 51 1 1 46
M  V30 52 1 1 47
M  V30 53 1 2 48
M  V30 54 1 3 49
M  V30 55 1 3 50
M  V30 56 1 3 51
M  V30 57 1 5 52
M  V30 58 1 5 53
M  V30 59 1 6 54
M  V30 60 1 6 55
M  V30 61 1 7 56
M  V30 62 1 9 57
M  V30 63 1 12 58
M  V30 64 1 15 59
M  V30 65 1 16 60
M  V30 66 1 20 61
M  V30 67 1 20 62
M  V30 68 1 21 63
M  V30 69 1 25 64
M  V30 70 1 26 65
M  V30 71 1 27 66
M  V30 72 1 29 67
M  V30 73 1 29 68
M  V30 74 1 31 69
M  V30 75 1 32 70
M  V30 76 1 37 71
M  V30 77 1 40 72
M  V30 78 1 43 73
M  V30 79 1 43 74
M  V30 80 1 44 75
M  V30 81 1 44 76
M  V30 END BOND
M  V30 END CTAB
M  END
>  <Dataset>  (322) 
ChEMBL_Kinases

>  <Ligand_Instance>  (322) 
nan

>  <PDB_ID>  (322) 
nan

>  <Standardized_SMILES>  (322) 
CC(C)N1CCC(n2cnc3cnc4ccc(C#CCNC(=O)c5cccn(Cc6ccc(F)c(F)c6)c5=O)cc4c32)CC1

>  <Name>  (322) 
nan

>  <Pocket>  (322) 
nan

>  <ATP_Site>  (322) 
nan

>  <Peripheral>  (322) 
nan

>  <Num_H_Atoms_ProtBoundConf>  (322) 
nan

>  <Num_Resolved_Atoms>  (322) 
nan

>  <Num_Not_Resolved_Atoms>  (322) 
nan

$$$$
CHEMBL3644726
     RDKit          3D

  0  0  0  0  0  0  0  0  0  0999 V3000
M  V30 BEGIN CTAB
M  V30 COUNTS 73 78 0 0 0
M  V30 BEGIN ATOM
M  V30 1 C 5.558546 -1.279319 3.751260 0
M  V30 2 C 5.632348 -0.317681 2.592749 0
M  V30 3 N 6.812001 0.172324 2.193247 0
M  V30 4 C 6.571386 0.991525 1.150630 0
M  V30 5 C 7.440602 1.730651 0.395180 0
M  V30 6 N 6.953437 2.484147 -0.610677 0
M  V30 7 C 5.609040 2.473572 -0.831460 0
M  V30 8 C 5.142005 3.252076 -1.886902 0
M  V30 9 C 3.779880 3.265835 -2.165779 0
M  V30 10 C 2.863031 2.520996 -1.418610 0
M  V30 11 C 1.448945 2.493513 -1.683535 0
M  V30 12 C 0.264978 2.449286 -1.906035 0
M  V30 13 C -1.207154 2.371268 -2.169659 0
M  V30 14 N -1.530856 0.968780 -2.074284 0
M  V30 15 C -2.771333 0.449630 -2.225914 0
M  V30 16 O -3.816329 1.149608 -2.463013 0
M  V30 17 C -3.591321 -0.665592 -2.250679 0
M  V30 18 C -2.417691 -1.611780 -2.133429 0
M  V30 19 C -2.445197 -3.045203 -2.089873 0
M  V30 20 C -3.693060 -3.687546 -2.160608 0
M  V30 21 N -4.811257 -2.880161 -2.267868 0
M  V30 22 C -6.149139 -3.342978 -2.331403 0
M  V30 23 C -6.802226 -3.613956 -1.044901 0
M  V30 24 C -6.539989 -4.842719 -0.482654 0
M  V30 25 C -7.004887 -5.385784 0.690577 0
M  V30 26 C -7.871625 -4.541211 1.399678 0
M  V30 27 F -8.390286 -4.974993 2.577704 0
M  V30 28 C -8.190929 -3.298846 0.917431 0
M  V30 29 F -9.026186 -2.431438 1.551259 0
M  V30 30 C -7.670221 -2.828673 -0.288153 0
M  V30 31 C -4.328846 -1.690017 -2.271081 0
M  V30 32 O -5.382021 -0.842173 -2.373116 0
M  V30 33 C 3.476211 1.788845 -0.389398 0
M  V30 34 C 4.795312 1.721992 -0.052263 0
M  V30 35 C 5.183438 0.921359 0.997629 0
M  V30 36 N 4.547382 0.133423 1.855674 0
M  V30 37 C 3.164305 -0.185273 2.041970 0
M  V30 38 C 2.315640 0.835697 2.757446 0
M  V30 39 C 1.155351 0.055672 3.409654 0
M  V30 40 N 0.454215 -0.659623 2.419874 0
M  V30 41 C -0.506272 -1.595547 2.865318 0
M  V30 42 C 0.996790 -0.803349 1.132977 0
M  V30 43 C 2.480288 -1.130279 1.138645 0
M  V30 44 H 6.469398 -1.235659 4.336271 0
M  V30 45 H 4.701968 -0.964686 4.421362 0
M  V30 46 H 5.295007 -2.310635 3.397990 0
M  V30 47 H 8.498392 1.700777 0.613451 0
M  V30 48 H 5.849197 3.827737 -2.466907 0
M  V30 49 H 3.397480 3.870169 -2.983356 0
M  V30 50 H -1.790161 2.931691 -1.438739 0
M  V30 51 H -1.358023 2.806447 -3.164307 0
M  V30 52 H -0.857936 0.237063 -1.879319 0
M  V30 53 H -1.278166 -1.585583 -2.055233 0
M  V30 54 H -1.677613 -3.843800 -2.007760 0
M  V30 55 H -3.866114 -4.766019 -2.137632 0
M  V30 56 H -6.795866 -2.658406 -2.974082 0
M  V30 57 H -6.158205 -4.303756 -2.928213 0
M  V30 58 H -5.866535 -5.540611 -0.996717 0
M  V30 59 H -6.748613 -6.357882 1.060896 0
M  V30 60 H -7.875628 -1.853337 -0.741696 0
M  V30 61 H 2.709640 1.261965 0.107718 0
M  V30 62 H 3.263866 -0.885814 2.970163 0
M  V30 63 H 1.785898 1.568023 2.178249 0
M  V30 64 H 2.930730 1.262050 3.583754 0
M  V30 65 H 0.495138 0.806255 3.925288 0
M  V30 66 H 1.578753 -0.563797 4.235865 0
M  V30 67 H -1.555396 -1.194183 2.732603 0
M  V30 68 H -0.444582 -1.810949 3.951703 0
M  V30 69 H -0.512799 -2.551139 2.294200 0
M  V30 70 H 0.742756 0.084837 0.513207 0
M  V30 71 H 0.420773 -1.650279 0.633150 0
M  V30 72 H 2.881709 -1.153328 0.100701 0
M  V30 73 H 2.507360 -2.208833 1.412907 0
M  V30 END ATOM
M  V30 BEGIN BOND
M  V30 1 1 1 2
M  V30 2 2 2 3
M  V30 3 1 3 4
M  V30 4 2 4 5
M  V30 5 1 5 6
M  V30 6 2 6 7
M  V30 7 1 7 8
M  V30 8 2 8 9
M  V30 9 1 9 10
M  V30 10 1 10 11
M  V30 11 3 11 12
M  V30 12 1 12 13
M  V30 13 1 13 14
M  V30 14 1 14 15
M  V30 15 2 15 16
M  V30 16 1 15 17
M  V30 17 2 17 18
M  V30 18 1 18 19
M  V30 19 2 19 20
M  V30 20 1 20 21
M  V30 21 1 21 22
M  V30 22 1 22 23
M  V30 23 2 23 24
M  V30 24 1 24 25
M  V30 25 2 25 26
M  V30 26 1 26 27
M  V30 27 1 26 28
M  V30 28 1 28 29
M  V30 29 2 28 30
M  V30 30 1 21 31
M  V30 31 2 31 32
M  V30 32 2 10 33
M  V30 33 1 33 34
M  V30 34 2 34 35
M  V30 35 1 35 36
M  V30 36 1 36 37
M  V30 37 1 37 38
M  V30 38 1 38 39
M  V30 39 1 39 40
M  V30 40 1 40 41
M  V30 41 1 40 42
M  V30 42 1 42 43
M  V30 43 1 36 2
M  V30 44 1 43 37
M  V30 45 1 35 4
M  V30 46 1 34 7
M  V30 47 1 31 17
M  V30 48 1 30 23
M  V30 49 1 1 44
M  V30 50 1 1 45
M  V30 51 1 1 46
M  V30 52 1 5 47
M  V30 53 1 8 48
M  V30 54 1 9 49
M  V30 55 1 13 50
M  V30 56 1 13 51
M  V30 57 1 14 52
M  V30 58 1 18 53
M  V30 59 1 19 54
M  V30 60 1 20 55
M  V30 61 1 22 56
M  V30 62 1 22 57
M  V30 63 1 24 58
M  V30 64 1 25 59
M  V30 65 1 30 60
M  V30 66 1 33 61
M  V30 67 1 37 62
M  V30 68 1 38 63
M  V30 69 1 38 64
M  V30 70 1 39 65
M  V30 71 1 39 66
M  V30 72 1 41 67
M  V30 73 1 41 68
M  V30 74 1 41 69
M  V30 75 1 42 70
M  V30 76 1 42 71
M  V30 77 1 43 72
M  V30 78 1 43 73
M  V30 END BOND
M  V30 END CTAB
M  END
>  <Dataset>  (323) 
ChEMBL_Kinases

>  <Ligand_Instance>  (323) 
nan

>  <PDB_ID>  (323) 
nan

>  <Standardized_SMILES>  (323) 
Cc1nc2cnc3ccc(C#CCNC(=O)c4cccn(Cc5ccc(F)c(F)c5)c4=O)cc3c2n1C1CCN(C)CC1

>  <Name>  (323) 
nan

>  <Pocket>  (323) 
nan

>  <ATP_Site>  (323) 
nan

>  <Peripheral>  (323) 
nan

>  <Num_H_Atoms_ProtBoundConf>  (323) 
nan

>  <Num_Resolved_Atoms>  (323) 
nan

>  <Num_Not_Resolved_Atoms>  (323) 
nan

$$$$
CHEMBL3643963
     RDKit          3D

  0  0  0  0  0  0  0  0  0  0999 V3000
M  V30 BEGIN CTAB
M  V30 COUNTS 59 61 0 0 0
M  V30 BEGIN ATOM
M  V30 1 C 5.611575 -2.391597 2.605743 0
M  V30 2 N 5.304692 -3.454488 3.562497 0
M  V30 3 C 3.980770 -3.904108 3.808799 0
M  V30 4 N 2.949015 -3.355103 3.152377 0
M  V30 5 C 1.666395 -3.692927 3.296395 0
M  V30 6 N 0.588905 -3.119436 2.607973 0
M  V30 7 C 0.550460 -2.086506 1.634916 0
M  V30 8 C 1.718570 -1.438629 1.213036 0
M  V30 9 C 1.759662 -0.429168 0.274698 0
M  V30 10 C 0.582362 -0.003739 -0.309793 0
M  V30 11 C 0.448935 1.042015 -1.315589 0
M  V30 12 O 1.265694 0.900426 -2.250539 0
M  V30 13 N -0.514112 2.082727 -1.204254 0
M  V30 14 C -1.543181 2.446125 -0.227288 0
M  V30 15 C -2.945748 2.224417 -0.810686 0
M  V30 16 C -2.742107 1.954053 -2.273173 0
M  V30 17 N -3.947362 1.768805 -3.012140 0
M  V30 18 C -4.787955 0.707972 -2.532321 0
M  V30 19 C -3.736028 1.698989 -4.443765 0
M  V30 20 C -2.014252 3.158495 -2.828864 0
M  V30 21 C -0.604711 3.087297 -2.251806 0
M  V30 22 C -0.581855 -0.623628 0.086354 0
M  V30 23 C -0.601570 -1.628771 1.024261 0
M  V30 24 O -1.776687 -2.214919 1.386541 0
M  V30 25 C -3.066402 -1.967931 0.950766 0
M  V30 26 N 1.415938 -4.659018 4.171419 0
M  V30 27 C 2.361779 -5.280576 4.883581 0
M  V30 28 C 3.668013 -4.897774 4.700594 0
M  V30 29 C 4.801177 -5.521255 5.441212 0
M  V30 30 F 5.488546 -4.611154 6.194321 0
M  V30 31 F 5.645612 -6.198115 4.557865 0
M  V30 32 F 4.283053 -6.485648 6.282822 0
M  V30 33 H 4.936317 -1.500116 2.751072 0
M  V30 34 H 6.641604 -2.039811 2.702427 0
M  V30 35 H 5.348876 -2.782002 1.601809 0
M  V30 36 H 6.099047 -3.896316 4.082932 0
M  V30 37 H -0.379155 -3.476148 2.805964 0
M  V30 38 H 2.695323 -1.671691 1.587785 0
M  V30 39 H 2.651683 0.072347 -0.053832 0
M  V30 40 H -1.413164 3.502056 0.127060 0
M  V30 41 H -1.370327 1.831815 0.682165 0
M  V30 42 H -3.393380 1.398251 -0.255394 0
M  V30 43 H -3.487029 3.170386 -0.711195 0
M  V30 44 H -2.088092 1.080175 -2.411003 0
M  V30 45 H -5.174229 0.162724 -3.417379 0
M  V30 46 H -5.673241 1.164419 -2.041660 0
M  V30 47 H -4.255593 -0.039804 -1.913889 0
M  V30 48 H -3.867024 2.717622 -4.857222 0
M  V30 49 H -4.429115 0.974287 -4.928730 0
M  V30 50 H -2.702626 1.382697 -4.645295 0
M  V30 51 H -2.561976 4.049519 -2.401891 0
M  V30 52 H -2.047210 3.145865 -3.918792 0
M  V30 53 H 0.057254 2.797217 -3.088040 0
M  V30 54 H -0.354288 4.055805 -1.804508 0
M  V30 55 H -1.531031 -0.333668 -0.336489 0
M  V30 56 H -3.268058 -1.002848 0.484161 0
M  V30 57 H -3.360763 -2.769944 0.223961 0
M  V30 58 H -3.830962 -2.057038 1.777332 0
M  V30 59 H 2.196846 -6.057565 5.592244 0
M  V30 END ATOM
M  V30 BEGIN BOND
M  V30 1 1 1 2
M  V30 2 1 2 3
M  V30 3 2 3 4
M  V30 4 1 4 5
M  V30 5 1 5 6
M  V30 6 1 6 7
M  V30 7 2 7 8
M  V30 8 1 8 9
M  V30 9 2 9 10
M  V30 10 1 10 11
M  V30 11 2 11 12
M  V30 12 1 11 13
M  V30 13 1 13 14
M  V30 14 1 14 15
M  V30 15 1 15 16
M  V30 16 1 16 17
M  V30 17 1 17 18
M  V30 18 1 17 19
M  V30 19 1 16 20
M  V30 20 1 20 21
M  V30 21 1 10 22
M  V30 22 2 22 23
M  V30 23 1 23 24
M  V30 24 1 24 25
M  V30 25 2 5 26
M  V30 26 1 26 27
M  V30 27 2 27 28
M  V30 28 1 28 29
M  V30 29 1 29 30
M  V30 30 1 29 31
M  V30 31 1 29 32
M  V30 32 1 28 3
M  V30 33 1 23 7
M  V30 34 1 21 13
M  V30 35 1 1 33
M  V30 36 1 1 34
M  V30 37 1 1 35
M  V30 38 1 2 36
M  V30 39 1 6 37
M  V30 40 1 8 38
M  V30 41 1 9 39
M  V30 42 1 14 40
M  V30 43 1 14 41
M  V30 44 1 15 42
M  V30 45 1 15 43
M  V30 46 1 16 44
M  V30 47 1 18 45
M  V30 48 1 18 46
M  V30 49 1 18 47
M  V30 50 1 19 48
M  V30 51 1 19 49
M  V30 52 1 19 50
M  V30 53 1 20 51
M  V30 54 1 20 52
M  V30 55 1 21 53
M  V30 56 1 21 54
M  V30 57 1 22 55
M  V30 58 1 25 56
M  V30 59 1 25 57
M  V30 60 1 25 58
M  V30 61 1 27 59
M  V30 END BOND
M  V30 END CTAB
M  END
>  <Dataset>  (324) 
ChEMBL_Kinases

>  <Ligand_Instance>  (324) 
nan

>  <PDB_ID>  (324) 
nan

>  <Standardized_SMILES>  (324) 
CNc1nc(Nc2ccc(C(=O)N3CCC(N(C)C)CC3)cc2OC)ncc1C(F)(F)F

>  <Name>  (324) 
nan

>  <Pocket>  (324) 
nan

>  <ATP_Site>  (324) 
nan

>  <Peripheral>  (324) 
nan

>  <Num_H_Atoms_ProtBoundConf>  (324) 
nan

>  <Num_Resolved_Atoms>  (324) 
nan

>  <Num_Not_Resolved_Atoms>  (324) 
nan

$$$$
CHEMBL3644709
     RDKit          3D

  0  0  0  0  0  0  0  0  0  0999 V3000
M  V30 BEGIN CTAB
M  V30 COUNTS 68 72 0 0 0
M  V30 BEGIN ATOM
M  V30 1 C 4.351438 -2.496060 4.557971 0
M  V30 2 C 4.420215 -1.237886 3.729086 0
M  V30 3 N 5.644882 -0.674386 3.493008 0
M  V30 4 C 5.423349 0.414464 2.739109 0
M  V30 5 C 6.323047 1.319236 2.237090 0
M  V30 6 N 5.865171 2.343272 1.498842 0
M  V30 7 C 4.536079 2.418454 1.295226 0
M  V30 8 C 4.135601 3.490859 0.528721 0
M  V30 9 C 2.784574 3.619947 0.283854 0
M  V30 10 C 1.846789 2.713960 0.781859 0
M  V30 11 C 0.479454 2.983566 0.440664 0
M  V30 12 C -0.674040 3.192820 0.165185 0
M  V30 13 C -2.098702 3.432070 -0.161627 0
M  V30 14 N -2.772757 2.161548 -0.430318 0
M  V30 15 C -2.198167 1.450630 -1.522858 0
M  V30 16 O -1.217652 1.964171 -2.115205 0
M  V30 17 C -2.706988 0.175236 -1.958709 0
M  V30 18 C -2.190187 -0.553702 -3.007295 0
M  V30 19 C -1.036721 -0.158422 -3.857953 0
M  V30 20 N -2.922141 -1.681227 -3.113330 0
M  V30 21 C -2.666970 -2.696434 -4.113807 0
M  V30 22 N -3.875719 -1.722819 -2.199994 0
M  V30 23 C -4.880225 -2.750568 -1.962719 0
M  V30 24 C -4.333106 -3.743798 -0.996688 0
M  V30 25 C -4.538413 -3.531541 0.334144 0
M  V30 26 C -4.075696 -4.387746 1.322113 0
M  V30 27 C -3.366243 -5.520511 0.937323 0
M  V30 28 F -2.909429 -6.364236 1.896228 0
M  V30 29 C -3.146538 -5.755797 -0.400901 0
M  V30 30 F -2.461990 -6.846023 -0.801497 0
M  V30 31 C -3.626838 -4.874155 -1.351510 0
M  V30 32 C -3.743006 -0.583651 -1.492176 0
M  V30 33 O -4.490631 -0.281234 -0.529298 0
M  V30 34 C 2.324401 1.665409 1.541457 0
M  V30 35 C 3.657409 1.509091 1.802761 0
M  V30 36 C 4.062382 0.441531 2.564467 0
M  V30 37 N 3.376530 -0.545016 3.146045 0
M  V30 38 C 2.007639 -0.917828 3.246766 0
M  V30 39 C 1.114044 -0.075521 4.123467 0
M  V30 40 C 1.371767 -1.515822 2.028176 0
M  V30 41 H 5.324726 -2.981763 4.582628 0
M  V30 42 H 3.554923 -3.178992 4.132648 0
M  V30 43 H 3.999993 -2.274002 5.596650 0
M  V30 44 H 7.369887 1.206148 2.433385 0
M  V30 45 H 4.827394 4.209222 0.127728 0
M  V30 46 H 2.472419 4.462276 -0.317793 0
M  V30 47 H -2.102763 4.002772 -1.100619 0
M  V30 48 H -2.609715 3.972717 0.648054 0
M  V30 49 H -3.590300 1.782356 0.099659 0
M  V30 50 H -1.261014 0.732191 -4.471330 0
M  V30 51 H -0.177703 0.006108 -3.176785 0
M  V30 52 H -0.775713 -1.009255 -4.521930 0
M  V30 53 H -2.528815 -2.203417 -5.115376 0
M  V30 54 H -1.744756 -3.258803 -3.906716 0
M  V30 55 H -3.499010 -3.427485 -4.175918 0
M  V30 56 H -5.796241 -2.285320 -1.551404 0
M  V30 57 H -5.149538 -3.253704 -2.925066 0
M  V30 58 H -5.077060 -2.677981 0.694682 0
M  V30 59 H -4.246373 -4.204945 2.361464 0
M  V30 60 H -3.461633 -5.046622 -2.404754 0
M  V30 61 H 1.511079 1.092185 1.827659 0
M  V30 62 H 2.053796 -1.868422 3.905856 0
M  V30 63 H 0.064509 -0.069227 3.768028 0
M  V30 64 H 1.510140 0.977983 4.231726 0
M  V30 65 H 1.049445 -0.405115 5.179635 0
M  V30 66 H 1.990498 -1.179496 1.143888 0
M  V30 67 H 1.331113 -2.595673 1.960995 0
M  V30 68 H 0.350872 -1.086478 1.830099 0
M  V30 END ATOM
M  V30 BEGIN BOND
M  V30 1 1 1 2
M  V30 2 2 2 3
M  V30 3 1 3 4
M  V30 4 2 4 5
M  V30 5 1 5 6
M  V30 6 2 6 7
M  V30 7 1 7 8
M  V30 8 2 8 9
M  V30 9 1 9 10
M  V30 10 1 10 11
M  V30 11 3 11 12
M  V30 12 1 12 13
M  V30 13 1 13 14
M  V30 14 1 14 15
M  V30 15 2 15 16
M  V30 16 1 15 17
M  V30 17 2 17 18
M  V30 18 1 18 19
M  V30 19 1 18 20
M  V30 20 1 20 21
M  V30 21 1 20 22
M  V30 22 1 22 23
M  V30 23 1 23 24
M  V30 24 2 24 25
M  V30 25 1 25 26
M  V30 26 2 26 27
M  V30 27 1 27 28
M  V30 28 1 27 29
M  V30 29 1 29 30
M  V30 30 2 29 31
M  V30 31 1 22 32
M  V30 32 2 32 33
M  V30 33 2 10 34
M  V30 34 1 34 35
M  V30 35 2 35 36
M  V30 36 1 36 37
M  V30 37 1 37 38
M  V30 38 1 38 39
M  V30 39 1 38 40
M  V30 40 1 37 2
M  V30 41 1 36 4
M  V30 42 1 35 7
M  V30 43 1 32 17
M  V30 44 1 31 24
M  V30 45 1 1 41
M  V30 46 1 1 42
M  V30 47 1 1 43
M  V30 48 1 5 44
M  V30 49 1 8 45
M  V30 50 1 9 46
M  V30 51 1 13 47
M  V30 52 1 13 48
M  V30 53 1 14 49
M  V30 54 1 19 50
M  V30 55 1 19 51
M  V30 56 1 19 52
M  V30 57 1 21 53
M  V30 58 1 21 54
M  V30 59 1 21 55
M  V30 60 1 23 56
M  V30 61 1 23 57
M  V30 62 1 25 58
M  V30 63 1 26 59
M  V30 64 1 31 60
M  V30 65 1 34 61
M  V30 66 1 38 62
M  V30 67 1 39 63
M  V30 68 1 39 64
M  V30 69 1 39 65
M  V30 70 1 40 66
M  V30 71 1 40 67
M  V30 72 1 40 68
M  V30 END BOND
M  V30 END CTAB
M  END
>  <Dataset>  (325) 
ChEMBL_Kinases

>  <Ligand_Instance>  (325) 
nan

>  <PDB_ID>  (325) 
nan

>  <Standardized_SMILES>  (325) 
Cc1nc2cnc3ccc(C#CCNC(=O)c4c(C)n(C)n(Cc5ccc(F)c(F)c5)c4=O)cc3c2n1C(C)C

>  <Name>  (325) 
nan

>  <Pocket>  (325) 
nan

>  <ATP_Site>  (325) 
nan

>  <Peripheral>  (325) 
nan

>  <Num_H_Atoms_ProtBoundConf>  (325) 
nan

>  <Num_Resolved_Atoms>  (325) 
nan

>  <Num_Not_Resolved_Atoms>  (325) 
nan

$$$$
CHEMBL3644710
     RDKit          3D

  0  0  0  0  0  0  0  0  0  0999 V3000
M  V30 BEGIN CTAB
M  V30 COUNTS 67 71 0 0 0
M  V30 BEGIN ATOM
M  V30 1 C 3.751701 -1.625000 4.481410 0
M  V30 2 C 3.932329 -0.472763 3.571879 0
M  V30 3 N 5.107714 0.233001 3.659727 0
M  V30 4 C 5.084020 1.242352 2.795774 0
M  V30 5 C 6.026645 2.193515 2.546681 0
M  V30 6 N 5.737872 3.115327 1.611752 0
M  V30 7 C 4.553310 3.073770 0.964775 0
M  V30 8 C 4.362679 4.068253 0.052197 0
M  V30 9 C 3.158113 4.078528 -0.619921 0
M  V30 10 C 2.188871 3.122807 -0.377251 0
M  V30 11 C 0.980165 3.220856 -1.121616 0
M  V30 12 C -0.049948 3.287021 -1.741184 0
M  V30 13 C -1.328469 3.347973 -2.491864 0
M  V30 14 N -2.098310 2.166415 -2.075245 0
M  V30 15 C -1.372885 1.008556 -2.395012 0
M  V30 16 O -0.270501 1.353582 -2.948577 0
M  V30 17 C -1.743317 -0.377319 -2.168159 0
M  V30 18 C -0.799809 -1.316571 -2.602368 0
M  V30 19 C -1.019876 -2.666329 -2.450678 0
M  V30 20 C -2.162475 -3.175292 -1.871935 0
M  V30 21 N -3.049271 -2.250332 -1.465168 0
M  V30 22 C -4.295158 -2.648887 -0.838874 0 CFG=1
M  V30 23 C -5.211741 -3.188639 -1.926549 0
M  V30 24 C -4.072406 -3.793583 0.100688 0
M  V30 25 C -3.767464 -3.507022 1.413620 0
M  V30 26 C -3.554593 -4.525054 2.312614 0
M  V30 27 C -3.650252 -5.820169 1.883412 0
M  V30 28 F -3.435639 -6.804423 2.790295 0
M  V30 29 C -3.956276 -6.174828 0.564876 0
M  V30 30 F -4.045572 -7.465140 0.162981 0
M  V30 31 C -4.154142 -5.118683 -0.269155 0
M  V30 32 C -2.864016 -0.927995 -1.598861 0
M  V30 33 O -3.705589 -0.081108 -1.211865 0
M  V30 34 C 2.478436 2.146816 0.574206 0
M  V30 35 C 3.660463 2.098314 1.262359 0
M  V30 36 C 3.848904 1.104111 2.195763 0
M  V30 37 N 3.113324 0.072499 2.633841 0
M  V30 38 C 1.843006 -0.405418 2.251376 0
M  V30 39 C 1.667211 -1.919125 2.573159 0
M  V30 40 C 0.659410 0.238190 2.937498 0
M  V30 41 H 4.646621 -1.702783 5.179402 0
M  V30 42 H 2.932909 -1.417322 5.240464 0
M  V30 43 H 3.703050 -2.606079 4.026655 0
M  V30 44 H 6.964359 2.194066 3.087133 0
M  V30 45 H 5.100714 4.826033 -0.156440 0
M  V30 46 H 2.981325 4.856679 -1.349840 0
M  V30 47 H -1.124716 3.309544 -3.574384 0
M  V30 48 H -1.865500 4.270745 -2.228294 0
M  V30 49 H -3.022948 2.057647 -1.616854 0
M  V30 50 H 0.138831 -1.005487 -3.074368 0
M  V30 51 H -0.267505 -3.354701 -2.798874 0
M  V30 52 H -2.322816 -4.230769 -1.759055 0
M  V30 53 H -4.755682 -1.849201 -0.255044 0
M  V30 54 H -4.559777 -3.753950 -2.622950 0
M  V30 55 H -5.718370 -2.394407 -2.473531 0
M  V30 56 H -5.940369 -3.903861 -1.485067 0
M  V30 57 H -3.687568 -2.487876 1.771175 0
M  V30 58 H -3.311629 -4.305914 3.358514 0
M  V30 59 H -4.396097 -5.352362 -1.310541 0
M  V30 60 H 1.653744 1.497006 0.678553 0
M  V30 61 H 1.625585 -0.437984 1.153377 0
M  V30 62 H 2.446026 -2.525839 2.093411 0
M  V30 63 H 0.722417 -2.265130 2.032586 0
M  V30 64 H 1.436421 -2.060796 3.608340 0
M  V30 65 H -0.242550 0.255797 2.296483 0
M  V30 66 H 0.346579 -0.272690 3.867335 0
M  V30 67 H 0.981242 1.251211 3.249989 0
M  V30 END ATOM
M  V30 BEGIN BOND
M  V30 1 1 1 2
M  V30 2 2 2 3
M  V30 3 1 3 4
M  V30 4 2 4 5
M  V30 5 1 5 6
M  V30 6 2 6 7
M  V30 7 1 7 8
M  V30 8 2 8 9
M  V30 9 1 9 10
M  V30 10 1 10 11
M  V30 11 3 11 12
M  V30 12 1 12 13
M  V30 13 1 13 14
M  V30 14 1 14 15
M  V30 15 2 15 16
M  V30 16 1 15 17
M  V30 17 2 17 18
M  V30 18 1 18 19
M  V30 19 2 19 20
M  V30 20 1 20 21
M  V30 21 1 21 22
M  V30 22 1 22 23
M  V30 23 1 22 24
M  V30 24 2 24 25
M  V30 25 1 25 26
M  V30 26 2 26 27
M  V30 27 1 27 28
M  V30 28 1 27 29
M  V30 29 1 29 30
M  V30 30 2 29 31
M  V30 31 1 21 32
M  V30 32 2 32 33
M  V30 33 2 10 34
M  V30 34 1 34 35
M  V30 35 2 35 36
M  V30 36 1 36 37
M  V30 37 1 37 38
M  V30 38 1 38 39
M  V30 39 1 38 40
M  V30 40 1 37 2
M  V30 41 1 36 4
M  V30 42 1 35 7
M  V30 43 1 32 17
M  V30 44 1 31 24
M  V30 45 1 1 41
M  V30 46 1 1 42
M  V30 47 1 1 43
M  V30 48 1 5 44
M  V30 49 1 8 45
M  V30 50 1 9 46
M  V30 51 1 13 47
M  V30 52 1 13 48
M  V30 53 1 14 49
M  V30 54 1 18 50
M  V30 55 1 19 51
M  V30 56 1 20 52
M  V30 57 1 22 53 CFG=1
M  V30 58 1 23 54
M  V30 59 1 23 55
M  V30 60 1 23 56
M  V30 61 1 25 57
M  V30 62 1 26 58
M  V30 63 1 31 59
M  V30 64 1 34 60
M  V30 65 1 38 61
M  V30 66 1 39 62
M  V30 67 1 39 63
M  V30 68 1 39 64
M  V30 69 1 40 65
M  V30 70 1 40 66
M  V30 71 1 40 67
M  V30 END BOND
M  V30 END CTAB
M  END
>  <Dataset>  (326) 
ChEMBL_Kinases

>  <Ligand_Instance>  (326) 
nan

>  <PDB_ID>  (326) 
nan

>  <Standardized_SMILES>  (326) 
Cc1nc2cnc3ccc(C#CCNC(=O)c4cccn([C@@H](C)c5ccc(F)c(F)c5)c4=O)cc3c2n1C(C)C

>  <Name>  (326) 
nan

>  <Pocket>  (326) 
nan

>  <ATP_Site>  (326) 
nan

>  <Peripheral>  (326) 
nan

>  <Num_H_Atoms_ProtBoundConf>  (326) 
nan

>  <Num_Resolved_Atoms>  (326) 
nan

>  <Num_Not_Resolved_Atoms>  (326) 
nan

$$$$
CHEMBL3644711
     RDKit          3D

  0  0  0  0  0  0  0  0  0  0999 V3000
M  V30 BEGIN CTAB
M  V30 COUNTS 70 74 0 0 0
M  V30 BEGIN ATOM
M  V30 1 C 5.579696 -2.545631 2.221728 0
M  V30 2 C 5.309806 -1.093721 2.088261 0
M  V30 3 N 6.276005 -0.241559 2.566008 0
M  V30 4 C 5.851503 1.019300 2.396844 0
M  V30 5 C 6.492904 2.175949 2.733427 0
M  V30 6 N 5.835435 3.320458 2.460175 0
M  V30 7 C 4.601375 3.286415 1.881621 0
M  V30 8 C 4.031523 4.520087 1.675945 0
M  V30 9 C 2.774583 4.526337 1.114601 0
M  V30 10 C 2.134438 3.351424 0.782973 0
M  V30 11 C 0.826962 3.457447 0.203446 0
M  V30 12 C -0.268108 3.567169 -0.280692 0
M  V30 13 C -1.578563 3.722543 -0.852892 0
M  V30 14 N -2.391495 2.547181 -0.875601 0
M  V30 15 C -2.757024 1.848817 0.290061 0
M  V30 16 O -2.239275 2.452109 1.294107 0
M  V30 17 C -3.563209 0.658921 0.453245 0
M  V30 18 C -3.737328 0.217662 1.764238 0
M  V30 19 C -4.467454 -0.881220 2.078821 0
M  V30 20 C -5.069364 -1.607550 1.099295 0
M  V30 21 N -4.912413 -1.194355 -0.191461 0
M  V30 22 C -5.563387 -1.990546 -1.189810 0
M  V30 23 C -4.767833 -3.124782 -1.735801 0
M  V30 24 C -3.502783 -2.641411 -2.389603 0
M  V30 25 C -2.773947 -3.841563 -2.999486 0
M  V30 26 C -2.381450 -4.768499 -1.874758 0
M  V30 27 C -3.660338 -5.290787 -1.252559 0
M  V30 28 C -4.489217 -4.165100 -0.669889 0
M  V30 29 C -4.190563 -0.107235 -0.503839 0
M  V30 30 O -4.043358 0.276277 -1.675832 0
M  V30 31 C 2.796167 2.159432 1.030804 0
M  V30 32 C 4.047995 2.085674 1.584568 0
M  V30 33 C 4.613967 0.848865 1.808303 0
M  V30 34 N 4.254463 -0.433868 1.603125 0
M  V30 35 C 3.067851 -0.945800 0.990065 0
M  V30 36 C 3.350616 -2.349789 0.390081 0
M  V30 37 C 1.919047 -1.172020 1.934316 0
M  V30 38 H 5.712883 -3.101295 1.305726 0
M  V30 39 H 6.531936 -2.708231 2.824673 0
M  V30 40 H 4.827377 -3.066013 2.891992 0
M  V30 41 H 7.470728 2.160473 3.191734 0
M  V30 42 H 4.537200 5.439419 1.938398 0
M  V30 43 H 2.306536 5.479839 0.941210 0
M  V30 44 H -2.099754 4.532530 -0.281426 0
M  V30 45 H -1.543396 4.135317 -1.904121 0
M  V30 46 H -2.755247 2.149578 -1.776245 0
M  V30 47 H -3.282419 0.752566 2.594073 0
M  V30 48 H -4.580484 -1.193317 3.107162 0
M  V30 49 H -5.649185 -2.483215 1.393662 0
M  V30 50 H -6.508798 -2.429252 -0.756618 0
M  V30 51 H -5.945877 -1.350183 -2.030064 0
M  V30 52 H -5.339535 -3.666940 -2.532679 0
M  V30 53 H -2.828417 -2.179951 -1.665614 0
M  V30 54 H -3.808199 -1.960938 -3.219036 0
M  V30 55 H -1.881553 -3.457881 -3.541376 0
M  V30 56 H -3.440031 -4.416862 -3.662208 0
M  V30 57 H -1.686046 -4.322053 -1.145454 0
M  V30 58 H -1.857144 -5.669163 -2.285164 0
M  V30 59 H -3.406666 -5.978320 -0.416044 0
M  V30 60 H -4.203265 -5.851389 -2.024370 0
M  V30 61 H -5.466575 -4.595483 -0.372206 0
M  V30 62 H -4.007373 -3.769088 0.230909 0
M  V30 63 H 2.191268 1.336279 0.758969 0
M  V30 64 H 2.790316 -0.416120 0.043545 0
M  V30 65 H 3.362787 -3.102455 1.152892 0
M  V30 66 H 2.475982 -2.567477 -0.317218 0
M  V30 67 H 4.215730 -2.352803 -0.267173 0
M  V30 68 H 1.562318 -2.232032 1.975437 0
M  V30 69 H 2.139596 -0.791549 2.957441 0
M  V30 70 H 1.039853 -0.604946 1.553867 0
M  V30 END ATOM
M  V30 BEGIN BOND
M  V30 1 1 1 2
M  V30 2 2 2 3
M  V30 3 1 3 4
M  V30 4 2 4 5
M  V30 5 1 5 6
M  V30 6 2 6 7
M  V30 7 1 7 8
M  V30 8 2 8 9
M  V30 9 1 9 10
M  V30 10 1 10 11
M  V30 11 3 11 12
M  V30 12 1 12 13
M  V30 13 1 13 14
M  V30 14 1 14 15
M  V30 15 2 15 16
M  V30 16 1 15 17
M  V30 17 2 17 18
M  V30 18 1 18 19
M  V30 19 2 19 20
M  V30 20 1 20 21
M  V30 21 1 21 22
M  V30 22 1 22 23
M  V30 23 1 23 24
M  V30 24 1 24 25
M  V30 25 1 25 26
M  V30 26 1 26 27
M  V30 27 1 27 28
M  V30 28 1 21 29
M  V30 29 2 29 30
M  V30 30 2 10 31
M  V30 31 1 31 32
M  V30 32 2 32 33
M  V30 33 1 33 34
M  V30 34 1 34 35
M  V30 35 1 35 36
M  V30 36 1 35 37
M  V30 37 1 34 2
M  V30 38 1 33 4
M  V30 39 1 32 7
M  V30 40 1 29 17
M  V30 41 1 28 23
M  V30 42 1 1 38
M  V30 43 1 1 39
M  V30 44 1 1 40
M  V30 45 1 5 41
M  V30 46 1 8 42
M  V30 47 1 9 43
M  V30 48 1 13 44
M  V30 49 1 13 45
M  V30 50 1 14 46
M  V30 51 1 18 47
M  V30 52 1 19 48
M  V30 53 1 20 49
M  V30 54 1 22 50
M  V30 55 1 22 51
M  V30 56 1 23 52
M  V30 57 1 24 53
M  V30 58 1 24 54
M  V30 59 1 25 55
M  V30 60 1 25 56
M  V30 61 1 26 57
M  V30 62 1 26 58
M  V30 63 1 27 59
M  V30 64 1 27 60
M  V30 65 1 28 61
M  V30 66 1 28 62
M  V30 67 1 31 63
M  V30 68 1 35 64
M  V30 69 1 36 65
M  V30 70 1 36 66
M  V30 71 1 36 67
M  V30 72 1 37 68
M  V30 73 1 37 69
M  V30 74 1 37 70
M  V30 END BOND
M  V30 END CTAB
M  END
>  <Dataset>  (327) 
ChEMBL_Kinases

>  <Ligand_Instance>  (327) 
nan

>  <PDB_ID>  (327) 
nan

>  <Standardized_SMILES>  (327) 
Cc1nc2cnc3ccc(C#CCNC(=O)c4cccn(CC5CCCCC5)c4=O)cc3c2n1C(C)C

>  <Name>  (327) 
nan

>  <Pocket>  (327) 
nan

>  <ATP_Site>  (327) 
nan

>  <Peripheral>  (327) 
nan

>  <Num_H_Atoms_ProtBoundConf>  (327) 
nan

>  <Num_Resolved_Atoms>  (327) 
nan

>  <Num_Not_Resolved_Atoms>  (327) 
nan

$$$$
CHEMBL3644712
     RDKit          3D

  0  0  0  0  0  0  0  0  0  0999 V3000
M  V30 BEGIN CTAB
M  V30 COUNTS 67 71 0 0 0
M  V30 BEGIN ATOM
M  V30 1 C 1.793346 -3.717793 4.678645 0
M  V30 2 O 1.573310 -3.180013 3.374543 0
M  V30 3 C 2.103391 -1.971257 2.975546 0
M  V30 4 C 1.862706 -1.494601 1.706801 0
M  V30 5 C 2.390988 -0.269157 1.279982 0
M  V30 6 C 2.048611 0.089437 -0.072362 0
M  V30 7 O 1.324570 -0.635435 -0.837628 0
M  V30 8 N 2.420969 1.253608 -0.796308 0
M  V30 9 C 1.980271 1.451236 -2.164752 0
M  V30 10 C 0.519345 1.484039 -2.277474 0
M  V30 11 C -0.682081 1.519167 -2.389195 0
M  V30 12 C -2.111283 1.560691 -2.543503 0
M  V30 13 C -2.666266 2.749175 -2.974353 0
M  V30 14 C -4.027161 2.879470 -3.150421 0
M  V30 15 C -4.779277 1.760557 -2.871475 0
M  V30 16 N -6.122650 1.920670 -3.041441 0
M  V30 17 C -6.976202 0.908651 -2.793265 0
M  V30 18 C -6.421752 -0.253301 -2.373464 0
M  V30 19 N -7.046588 -1.398104 -2.057283 0
M  V30 20 C -6.104676 -2.322425 -1.677701 0
M  V30 21 C -6.597065 -3.659641 -1.273494 0
M  V30 22 N -4.832239 -1.811743 -1.734653 0
M  V30 23 C -3.600928 -2.441421 -1.450862 0
M  V30 24 C -3.027497 -2.230627 -0.076495 0
M  V30 25 C -3.759226 -3.976120 -1.526611 0
M  V30 26 C -5.073477 -0.542721 -2.162679 0
M  V30 27 C -4.302675 0.541967 -2.439663 0
M  V30 28 C -2.960762 0.485227 -2.287827 0
M  V30 29 C 3.148216 0.387455 2.223086 0
M  V30 30 O 3.614525 1.473446 1.840614 0
M  V30 31 N 3.375754 -0.087513 3.456835 0
M  V30 32 C 4.188312 0.702023 4.345811 0
M  V30 33 C 5.620150 0.347551 4.223157 0
M  V30 34 C 6.556071 0.902648 3.391100 0
M  V30 35 C 7.868248 0.492388 3.359034 0
M  V30 36 C 8.315818 -0.526224 4.186888 0
M  V30 37 F 9.609774 -0.899296 4.125266 0
M  V30 38 C 7.376088 -1.080852 5.019749 0
M  V30 39 F 7.841367 -2.081922 5.825044 0
M  V30 40 C 6.059030 -0.680949 5.063281 0
M  V30 41 N 2.859322 -1.240809 3.811067 0
M  V30 42 H 2.892965 -3.841565 4.850266 0
M  V30 43 H 1.349169 -4.718318 4.711953 0
M  V30 44 H 1.341367 -3.036496 5.437205 0
M  V30 45 H 1.248021 -2.114859 1.064314 0
M  V30 46 H 3.019310 1.954045 -0.306927 0
M  V30 47 H 2.407828 2.404787 -2.536469 0
M  V30 48 H 2.342835 0.594719 -2.768810 0
M  V30 49 H -2.052749 3.613105 -3.186809 0
M  V30 50 H -4.475587 3.801010 -3.485989 0
M  V30 51 H -8.032344 1.019426 -2.921531 0
M  V30 52 H -7.626695 -3.504707 -0.804677 0
M  V30 53 H -6.052555 -4.135197 -0.451269 0
M  V30 54 H -6.841835 -4.329049 -2.128933 0
M  V30 55 H -2.840469 -2.336238 -2.287445 0
M  V30 56 H -3.319562 -3.038689 0.659767 0
M  V30 57 H -3.341838 -1.302008 0.415117 0
M  V30 58 H -1.906379 -2.358361 -0.136125 0
M  V30 59 H -4.484909 -4.301486 -2.256898 0
M  V30 60 H -3.800750 -4.366915 -0.515573 0
M  V30 61 H -2.776657 -4.418043 -1.923492 0
M  V30 62 H -2.422216 -0.333861 -1.960428 0
M  V30 63 H 4.023524 1.800784 4.157264 0
M  V30 64 H 3.849031 0.544783 5.391746 0
M  V30 65 H 6.195305 1.695316 2.751602 0
M  V30 66 H 8.511916 1.016553 2.650932 0
M  V30 67 H 5.445658 -1.216429 5.772448 0
M  V30 END ATOM
M  V30 BEGIN BOND
M  V30 1 1 1 2
M  V30 2 1 2 3
M  V30 3 1 3 4
M  V30 4 2 4 5
M  V30 5 1 5 6
M  V30 6 2 6 7
M  V30 7 1 6 8
M  V30 8 1 8 9
M  V30 9 1 9 10
M  V30 10 3 10 11
M  V30 11 1 11 12
M  V30 12 2 12 13
M  V30 13 1 13 14
M  V30 14 2 14 15
M  V30 15 1 15 16
M  V30 16 2 16 17
M  V30 17 1 17 18
M  V30 18 1 18 19
M  V30 19 2 19 20
M  V30 20 1 20 21
M  V30 21 1 20 22
M  V30 22 1 22 23
M  V30 23 1 23 24
M  V30 24 1 23 25
M  V30 25 1 22 26
M  V30 26 1 26 27
M  V30 27 2 27 28
M  V30 28 1 5 29
M  V30 29 2 29 30
M  V30 30 1 29 31
M  V30 31 1 31 32
M  V30 32 1 32 33
M  V30 33 2 33 34
M  V30 34 1 34 35
M  V30 35 2 35 36
M  V30 36 1 36 37
M  V30 37 1 36 38
M  V30 38 1 38 39
M  V30 39 2 38 40
M  V30 40 1 31 41
M  V30 41 2 41 3
M  V30 42 1 28 12
M  V30 43 1 40 33
M  V30 44 1 27 15
M  V30 45 2 26 18
M  V30 46 1 1 42
M  V30 47 1 1 43
M  V30 48 1 1 44
M  V30 49 1 4 45
M  V30 50 1 8 46
M  V30 51 1 9 47
M  V30 52 1 9 48
M  V30 53 1 13 49
M  V30 54 1 14 50
M  V30 55 1 17 51
M  V30 56 1 21 52
M  V30 57 1 21 53
M  V30 58 1 21 54
M  V30 59 1 23 55
M  V30 60 1 24 56
M  V30 61 1 24 57
M  V30 62 1 24 58
M  V30 63 1 25 59
M  V30 64 1 25 60
M  V30 65 1 25 61
M  V30 66 1 28 62
M  V30 67 1 32 63
M  V30 68 1 32 64
M  V30 69 1 34 65
M  V30 70 1 35 66
M  V30 71 1 40 67
M  V30 END BOND
M  V30 END CTAB
M  END
>  <Dataset>  (328) 
ChEMBL_Kinases

>  <Ligand_Instance>  (328) 
nan

>  <PDB_ID>  (328) 
nan

>  <Standardized_SMILES>  (328) 
COc1cc(C(=O)NCC#Cc2ccc3ncc4nc(C)n(C(C)C)c4c3c2)c(=O)n(Cc2ccc(F)c(F)c2)n1

>  <Name>  (328) 
nan

>  <Pocket>  (328) 
nan

>  <ATP_Site>  (328) 
nan

>  <Peripheral>  (328) 
nan

>  <Num_H_Atoms_ProtBoundConf>  (328) 
nan

>  <Num_Resolved_Atoms>  (328) 
nan

>  <Num_Not_Resolved_Atoms>  (328) 
nan

$$$$
CHEMBL3644713
     RDKit          3D

  0  0  0  0  0  0  0  0  0  0999 V3000
M  V30 BEGIN CTAB
M  V30 COUNTS 68 72 0 0 0
M  V30 BEGIN ATOM
M  V30 1 C 4.521007 -2.574616 2.890861 0
M  V30 2 C 4.195394 -1.113372 3.078499 0
M  V30 3 N 5.065845 -0.340134 3.778411 0
M  V30 4 C 4.549203 0.889187 3.786471 0
M  V30 5 C 5.052900 2.025593 4.364228 0
M  V30 6 N 4.361225 3.168497 4.248166 0
M  V30 7 C 3.202321 3.128136 3.562782 0
M  V30 8 C 2.533854 4.329984 3.470842 0
M  V30 9 C 1.346000 4.329402 2.774593 0
M  V30 10 C 0.795291 3.188779 2.168179 0
M  V30 11 C -0.455570 3.383382 1.494892 0
M  V30 12 C -1.490651 3.561536 0.950528 0
M  V30 13 C -2.750612 3.804822 0.287444 0
M  V30 14 N -2.925436 2.885323 -0.810695 0
M  V30 15 C -2.918683 1.571218 -0.491419 0
M  V30 16 O -2.756819 1.066772 0.676089 0
M  V30 17 C -3.005978 0.202744 -0.759324 0
M  V30 18 C -3.314725 0.515817 -2.193368 0
M  V30 19 C -3.576784 -0.353942 -3.299604 0
M  V30 20 C -3.541345 -1.739281 -3.007324 0
M  V30 21 N -3.271067 -2.118070 -1.744837 0
M  V30 22 C -3.157889 -3.420021 -1.139798 0 CFG=1
M  V30 23 C -4.400342 -4.230181 -1.444970 0
M  V30 24 O -4.628824 -4.441036 -2.782756 0
M  V30 25 C -1.926061 -4.070195 -1.687399 0
M  V30 26 C -1.848488 -5.198507 -2.449796 0
M  V30 27 C -0.652034 -5.673198 -2.899737 0
M  V30 28 C 0.543019 -5.035011 -2.605432 0
M  V30 29 C 0.479542 -3.874297 -1.822255 0
M  V30 30 C -0.753910 -3.421938 -1.383713 0
M  V30 31 C -3.086783 -1.062772 -1.007549 0
M  V30 32 O -2.806566 -1.270177 0.276871 0
M  V30 33 C 1.529223 2.030218 2.309053 0
M  V30 34 C 2.713269 1.992126 2.993950 0
M  V30 35 C 3.370106 0.790333 3.076023 0
M  V30 36 N 3.093216 -0.422683 2.611929 0
M  V30 37 C 2.032198 -1.015526 1.859988 0
M  V30 38 C 0.697718 -1.172319 2.550234 0
M  V30 39 C 1.988635 -0.716212 0.393042 0
M  V30 40 H 5.583149 -2.756977 3.064930 0
M  V30 41 H 3.914223 -3.219073 3.553525 0
M  V30 42 H 4.219755 -2.826075 1.837909 0
M  V30 43 H 6.008493 1.985445 4.909607 0
M  V30 44 H 2.921427 5.226270 3.919870 0
M  V30 45 H 0.850342 5.288312 2.722802 0
M  V30 46 H -3.618551 3.719193 0.997154 0
M  V30 47 H -2.804195 4.838590 -0.124389 0
M  V30 48 H -3.059236 2.924879 -1.833340 0
M  V30 49 H -3.453686 1.419061 -2.900137 0
M  V30 50 H -3.815541 -0.307498 -4.377195 0
M  V30 51 H -3.701891 -2.577508 -3.670491 0
M  V30 52 H -3.069000 -3.406015 -0.048908 0
M  V30 53 H -4.431343 -5.163013 -0.847289 0
M  V30 54 H -5.253107 -3.602248 -1.079379 0
M  V30 55 H -5.146676 -5.287009 -2.857179 0
M  V30 56 H -2.746442 -5.730270 -2.700985 0
M  V30 57 H -0.577218 -6.565060 -3.503702 0
M  V30 58 H 1.515072 -5.408722 -2.966606 0
M  V30 59 H 1.449453 -3.425313 -1.632808 0
M  V30 60 H -0.612180 -2.530529 -0.802230 0
M  V30 61 H 0.999430 1.274298 1.798539 0
M  V30 62 H 2.344725 -2.131012 1.825179 0
M  V30 63 H -0.144774 -1.093491 1.806837 0
M  V30 64 H 0.548594 -0.458390 3.392221 0
M  V30 65 H 0.530148 -2.160755 3.022669 0
M  V30 66 H 2.458897 -1.495517 -0.250520 0
M  V30 67 H 0.968590 -0.590884 -0.022215 0
M  V30 68 H 2.502917 0.278067 0.227797 0
M  V30 END ATOM
M  V30 BEGIN BOND
M  V30 1 1 1 2
M  V30 2 2 2 3
M  V30 3 1 3 4
M  V30 4 2 4 5
M  V30 5 1 5 6
M  V30 6 2 6 7
M  V30 7 1 7 8
M  V30 8 2 8 9
M  V30 9 1 9 10
M  V30 10 1 10 11
M  V30 11 3 11 12
M  V30 12 1 12 13
M  V30 13 1 13 14
M  V30 14 1 14 15
M  V30 15 2 15 16
M  V30 16 1 15 17
M  V30 17 2 17 18
M  V30 18 1 18 19
M  V30 19 2 19 20
M  V30 20 1 20 21
M  V30 21 1 21 22
M  V30 22 1 22 23
M  V30 23 1 23 24
M  V30 24 1 22 25
M  V30 25 2 25 26
M  V30 26 1 26 27
M  V30 27 2 27 28
M  V30 28 1 28 29
M  V30 29 2 29 30
M  V30 30 1 21 31
M  V30 31 2 31 32
M  V30 32 2 10 33
M  V30 33 1 33 34
M  V30 34 2 34 35
M  V30 35 1 35 36
M  V30 36 1 36 37
M  V30 37 1 37 38
M  V30 38 1 37 39
M  V30 39 1 36 2
M  V30 40 1 35 4
M  V30 41 1 34 7
M  V30 42 1 31 17
M  V30 43 1 30 25
M  V30 44 1 1 40
M  V30 45 1 1 41
M  V30 46 1 1 42
M  V30 47 1 5 43
M  V30 48 1 8 44
M  V30 49 1 9 45
M  V30 50 1 13 46
M  V30 51 1 13 47
M  V30 52 1 14 48
M  V30 53 1 18 49
M  V30 54 1 19 50
M  V30 55 1 20 51
M  V30 56 1 22 52 CFG=1
M  V30 57 1 23 53
M  V30 58 1 23 54
M  V30 59 1 24 55
M  V30 60 1 26 56
M  V30 61 1 27 57
M  V30 62 1 28 58
M  V30 63 1 29 59
M  V30 64 1 30 60
M  V30 65 1 33 61
M  V30 66 1 37 62
M  V30 67 1 38 63
M  V30 68 1 38 64
M  V30 69 1 38 65
M  V30 70 1 39 66
M  V30 71 1 39 67
M  V30 72 1 39 68
M  V30 END BOND
M  V30 END CTAB
M  END
>  <Dataset>  (329) 
ChEMBL_Kinases

>  <Ligand_Instance>  (329) 
nan

>  <PDB_ID>  (329) 
nan

>  <Standardized_SMILES>  (329) 
Cc1nc2cnc3ccc(C#CCNC(=O)c4cccn([C@@H](CO)c5ccccc5)c4=O)cc3c2n1C(C)C

>  <Name>  (329) 
nan

>  <Pocket>  (329) 
nan

>  <ATP_Site>  (329) 
nan

>  <Peripheral>  (329) 
nan

>  <Num_H_Atoms_ProtBoundConf>  (329) 
nan

>  <Num_Resolved_Atoms>  (329) 
nan

>  <Num_Not_Resolved_Atoms>  (329) 
nan

$$$$
CHEMBL3644714
     RDKit          3D

  0  0  0  0  0  0  0  0  0  0999 V3000
M  V30 BEGIN CTAB
M  V30 COUNTS 69 73 0 0 0
M  V30 BEGIN ATOM
M  V30 1 C 4.611702 -1.995983 2.502610 0
M  V30 2 C 4.202261 -0.560169 2.514237 0
M  V30 3 N 5.019783 0.298721 3.192241 0
M  V30 4 C 4.510259 1.522505 3.115476 0
M  V30 5 C 4.985827 2.701594 3.643502 0
M  V30 6 N 4.263626 3.813301 3.412986 0
M  V30 7 C 3.122035 3.706504 2.682227 0
M  V30 8 C 2.422990 4.875283 2.482676 0
M  V30 9 C 1.267393 4.802011 1.754440 0
M  V30 10 C 0.773663 3.612385 1.213501 0
M  V30 11 C -0.444249 3.730476 0.470466 0
M  V30 12 C -1.458503 3.841614 -0.169088 0
M  V30 13 C -2.675223 3.989906 -0.962115 0
M  V30 14 N -2.848518 2.828297 -1.800111 0
M  V30 15 C -3.006238 1.623095 -1.210383 0
M  V30 16 O -3.020352 1.415090 0.056706 0
M  V30 17 C -3.192074 0.267669 -1.147221 0
M  V30 18 C -3.119083 0.228982 -2.652625 0
M  V30 19 C -3.221529 -0.886752 -3.555448 0
M  V30 20 C -3.422304 -2.151259 -2.959816 0
M  V30 21 N -3.501120 -2.212490 -1.626773 0
M  V30 22 C -3.727141 -3.318285 -0.732036 0 CFG=1
M  V30 23 C -4.571809 -4.415807 -1.280991 0
M  V30 24 N -4.098032 -5.086244 -2.437639 0
M  V30 25 C -2.435655 -3.817463 -0.179700 0
M  V30 26 C -1.566211 -4.567199 -0.943699 0
M  V30 27 C -0.364208 -5.078896 -0.499925 0
M  V30 28 C 0.005689 -4.828837 0.799471 0
M  V30 29 C -0.841749 -4.079313 1.596305 0
M  V30 30 C -2.017161 -3.594459 1.119402 0
M  V30 31 C -3.370084 -1.030678 -1.086774 0
M  V30 32 O -3.423752 -0.912569 0.227720 0
M  V30 33 C 1.517578 2.479031 1.448188 0
M  V30 34 C 2.674497 2.529086 2.171742 0
M  V30 35 C 3.361593 1.386036 2.372762 0
M  V30 36 N 3.145234 0.132975 1.990185 0
M  V30 37 C 2.202825 -0.594684 1.241731 0
M  V30 38 C 1.429395 -1.595330 2.134689 0
M  V30 39 C 2.983452 -1.500362 0.242056 0
M  V30 40 H 5.367181 -2.186832 3.318267 0
M  V30 41 H 3.769021 -2.661531 2.799306 0
M  V30 42 H 5.137595 -2.300755 1.581944 0
M  V30 43 H 5.921437 2.692112 4.224154 0
M  V30 44 H 2.783053 5.803136 2.887301 0
M  V30 45 H 0.747730 5.743180 1.619736 0
M  V30 46 H -2.635778 4.887686 -1.596905 0
M  V30 47 H -3.566229 4.148457 -0.296874 0
M  V30 48 H -2.887612 2.662192 -2.808887 0
M  V30 49 H -2.979064 0.920727 -3.550264 0
M  V30 50 H -3.196001 -1.097308 -4.642936 0
M  V30 51 H -3.522578 -3.111566 -3.434864 0
M  V30 52 H -4.289186 -2.972471 0.196826 0
M  V30 53 H -5.558715 -3.957636 -1.542202 0
M  V30 54 H -4.794885 -5.103292 -0.437954 0
M  V30 55 H -4.790775 -5.180289 -3.220534 0
M  V30 56 H -3.821027 -6.067839 -2.177070 0
M  V30 57 H -1.787255 -4.809392 -1.991044 0
M  V30 58 H 0.306066 -5.661050 -1.101426 0
M  V30 59 H 0.918496 -5.168969 1.274128 0
M  V30 60 H -0.564443 -3.868589 2.632164 0
M  V30 61 H -2.641850 -3.019206 1.788220 0
M  V30 62 H 1.022177 1.666862 0.995671 0
M  V30 63 H 1.453030 -0.152704 0.638062 0
M  V30 64 H 0.341720 -1.364336 2.145931 0
M  V30 65 H 1.770480 -1.424312 3.173296 0
M  V30 66 H 1.612266 -2.629091 1.866265 0
M  V30 67 H 2.989785 -2.543343 0.584196 0
M  V30 68 H 3.938519 -1.064663 -0.037073 0
M  V30 69 H 2.390869 -1.542735 -0.724081 0
M  V30 END ATOM
M  V30 BEGIN BOND
M  V30 1 1 1 2
M  V30 2 2 2 3
M  V30 3 1 3 4
M  V30 4 2 4 5
M  V30 5 1 5 6
M  V30 6 2 6 7
M  V30 7 1 7 8
M  V30 8 2 8 9
M  V30 9 1 9 10
M  V30 10 1 10 11
M  V30 11 3 11 12
M  V30 12 1 12 13
M  V30 13 1 13 14
M  V30 14 1 14 15
M  V30 15 2 15 16
M  V30 16 1 15 17
M  V30 17 2 17 18
M  V30 18 1 18 19
M  V30 19 2 19 20
M  V30 20 1 20 21
M  V30 21 1 21 22
M  V30 22 1 22 23
M  V30 23 1 23 24
M  V30 24 1 22 25
M  V30 25 2 25 26
M  V30 26 1 26 27
M  V30 27 2 27 28
M  V30 28 1 28 29
M  V30 29 2 29 30
M  V30 30 1 21 31
M  V30 31 2 31 32
M  V30 32 2 10 33
M  V30 33 1 33 34
M  V30 34 2 34 35
M  V30 35 1 35 36
M  V30 36 1 36 37
M  V30 37 1 37 38
M  V30 38 1 37 39
M  V30 39 1 36 2
M  V30 40 1 35 4
M  V30 41 1 34 7
M  V30 42 1 31 17
M  V30 43 1 30 25
M  V30 44 1 1 40
M  V30 45 1 1 41
M  V30 46 1 1 42
M  V30 47 1 5 43
M  V30 48 1 8 44
M  V30 49 1 9 45
M  V30 50 1 13 46
M  V30 51 1 13 47
M  V30 52 1 14 48
M  V30 53 1 18 49
M  V30 54 1 19 50
M  V30 55 1 20 51
M  V30 56 1 22 52 CFG=1
M  V30 57 1 23 53
M  V30 58 1 23 54
M  V30 59 1 24 55
M  V30 60 1 24 56
M  V30 61 1 26 57
M  V30 62 1 27 58
M  V30 63 1 28 59
M  V30 64 1 29 60
M  V30 65 1 30 61
M  V30 66 1 33 62
M  V30 67 1 37 63
M  V30 68 1 38 64
M  V30 69 1 38 65
M  V30 70 1 38 66
M  V30 71 1 39 67
M  V30 72 1 39 68
M  V30 73 1 39 69
M  V30 END BOND
M  V30 END CTAB
M  END
>  <Dataset>  (330) 
ChEMBL_Kinases

>  <Ligand_Instance>  (330) 
nan

>  <PDB_ID>  (330) 
nan

>  <Standardized_SMILES>  (330) 
Cc1nc2cnc3ccc(C#CCNC(=O)c4cccn([C@@H](CN)c5ccccc5)c4=O)cc3c2n1C(C)C

>  <Name>  (330) 
nan

>  <Pocket>  (330) 
nan

>  <ATP_Site>  (330) 
nan

>  <Peripheral>  (330) 
nan

>  <Num_H_Atoms_ProtBoundConf>  (330) 
nan

>  <Num_Resolved_Atoms>  (330) 
nan

>  <Num_Not_Resolved_Atoms>  (330) 
nan

$$$$
CHEMBL3644715
     RDKit          3D

  0  0  0  0  0  0  0  0  0  0999 V3000
M  V30 BEGIN CTAB
M  V30 COUNTS 71 76 0 0 0
M  V30 BEGIN ATOM
M  V30 1 C 4.127090 -2.681606 3.211921 0
M  V30 2 C 4.122023 -1.361241 2.532165 0
M  V30 3 N 5.362473 -0.820899 2.315876 0
M  V30 4 C 5.162818 0.366001 1.723945 0
M  V30 5 C 6.134510 1.254747 1.330781 0
M  V30 6 N 5.677276 2.390571 0.762464 0
M  V30 7 C 4.363465 2.625107 0.598552 0
M  V30 8 C 4.034135 3.827893 0.021025 0
M  V30 9 C 2.693885 4.104281 -0.143574 0
M  V30 10 C 1.721358 3.183611 0.268431 0
M  V30 11 C 0.362229 3.576391 0.050704 0
M  V30 12 C -0.774099 3.926538 -0.135286 0
M  V30 13 C -2.140206 4.372310 -0.370376 0
M  V30 14 N -2.905438 3.431759 -1.202922 0
M  V30 15 C -3.039162 2.188367 -0.671893 0
M  V30 16 O -2.550324 1.835338 0.463605 0
M  V30 17 C -3.435742 0.858098 -0.576508 0
M  V30 18 C -4.075460 1.033641 -1.930064 0
M  V30 19 C -4.806313 0.083046 -2.728521 0
M  V30 20 C -4.968473 -1.216918 -2.197640 0
M  V30 21 N -4.414416 -1.438998 -0.981285 0
M  V30 22 C -4.434996 -2.633568 -0.235814 0
M  V30 23 C -3.389085 -3.652312 -0.422511 0
M  V30 24 C -3.252828 -4.240091 -1.797278 0
M  V30 25 C -1.776232 -4.167334 -2.126684 0 CFG=2
M  V30 26 C -1.073696 -5.197842 -1.285550 0
M  V30 27 C -1.290670 -4.689779 0.123430 0
M  V30 28 C -1.996399 -3.335820 -0.036503 0 CFG=1
M  V30 29 C -1.389153 -2.908835 -1.356659 0
M  V30 30 C -3.807527 -0.388949 -0.487118 0
M  V30 31 O -3.215272 -0.417507 0.688932 0
M  V30 32 C 2.141838 1.998793 0.839357 0
M  V30 33 C 3.463650 1.674837 1.023839 0
M  V30 34 C 3.789081 0.472392 1.616904 0
M  V30 35 N 3.095949 -0.589747 2.108732 0
M  V30 36 C 1.705434 -0.787800 2.117855 0
M  V30 37 C 1.390296 -2.291479 2.249035 0
M  V30 38 C 0.976055 -0.193209 3.325891 0
M  V30 39 H 3.301223 -2.846754 3.908840 0
M  V30 40 H 5.037864 -2.747947 3.902569 0
M  V30 41 H 4.320233 -3.535310 2.507739 0
M  V30 42 H 7.173556 1.053259 1.468436 0
M  V30 43 H 4.795399 4.528597 -0.290734 0
M  V30 44 H 2.436271 5.046238 -0.598008 0
M  V30 45 H -2.101248 5.325909 -0.903903 0
M  V30 46 H -2.707723 4.513379 0.589333 0
M  V30 47 H -3.410210 3.371344 -2.101558 0
M  V30 48 H -4.244452 1.802937 -2.757170 0
M  V30 49 H -5.332789 0.009359 -3.701032 0
M  V30 50 H -5.456166 -2.085303 -2.557691 0
M  V30 51 H -4.481830 -2.435991 0.880972 0
M  V30 52 H -5.420947 -3.132593 -0.427268 0
M  V30 53 H -3.698037 -4.514321 0.274092 0
M  V30 54 H -3.885066 -3.819318 -2.570350 0
M  V30 55 H -3.486742 -5.344930 -1.778411 0
M  V30 56 H -1.549030 -4.157741 -3.175153 0
M  V30 57 H 0.024898 -5.209277 -1.470693 0
M  V30 58 H -1.500983 -6.217451 -1.442714 0
M  V30 59 H -0.350372 -4.603870 0.694013 0
M  V30 60 H -2.028665 -5.360242 0.613831 0
M  V30 61 H -1.815642 -2.683413 0.804312 0
M  V30 62 H -0.281664 -2.868273 -1.252016 0
M  V30 63 H -1.817298 -2.008919 -1.792487 0
M  V30 64 H 1.346803 1.420930 1.110988 0
M  V30 65 H 1.183994 -0.620805 1.148714 0
M  V30 66 H 2.160075 -2.938966 1.822971 0
M  V30 67 H 1.168958 -2.571238 3.269815 0
M  V30 68 H 0.460665 -2.578552 1.681324 0
M  V30 69 H -0.038391 0.081138 2.911875 0
M  V30 70 H 1.457563 0.718042 3.680993 0
M  V30 71 H 0.788957 -0.909137 4.130717 0
M  V30 END ATOM
M  V30 BEGIN BOND
M  V30 1 1 1 2
M  V30 2 2 2 3
M  V30 3 1 3 4
M  V30 4 2 4 5
M  V30 5 1 5 6
M  V30 6 2 6 7
M  V30 7 1 7 8
M  V30 8 2 8 9
M  V30 9 1 9 10
M  V30 10 1 10 11
M  V30 11 3 11 12
M  V30 12 1 12 13
M  V30 13 1 13 14
M  V30 14 1 14 15
M  V30 15 2 15 16
M  V30 16 1 15 17
M  V30 17 2 17 18
M  V30 18 1 18 19
M  V30 19 2 19 20
M  V30 20 1 20 21
M  V30 21 1 21 22
M  V30 22 1 22 23
M  V30 23 1 23 24
M  V30 24 1 24 25
M  V30 25 1 25 26
M  V30 26 1 26 27
M  V30 27 1 27 28
M  V30 28 1 28 29
M  V30 29 1 21 30
M  V30 30 2 30 31
M  V30 31 2 10 32
M  V30 32 1 32 33
M  V30 33 2 33 34
M  V30 34 1 34 35
M  V30 35 1 35 36
M  V30 36 1 36 37
M  V30 37 1 36 38
M  V30 38 1 35 2
M  V30 39 1 34 4
M  V30 40 1 33 7
M  V30 41 1 30 17
M  V30 42 1 28 23
M  V30 43 1 29 25
M  V30 44 1 1 39
M  V30 45 1 1 40
M  V30 46 1 1 41
M  V30 47 1 5 42
M  V30 48 1 8 43
M  V30 49 1 9 44
M  V30 50 1 13 45
M  V30 51 1 13 46
M  V30 52 1 14 47
M  V30 53 1 18 48
M  V30 54 1 19 49
M  V30 55 1 20 50
M  V30 56 1 22 51
M  V30 57 1 22 52
M  V30 58 1 23 53
M  V30 59 1 24 54
M  V30 60 1 24 55
M  V30 61 1 25 56 CFG=3
M  V30 62 1 26 57
M  V30 63 1 26 58
M  V30 64 1 27 59
M  V30 65 1 27 60
M  V30 66 1 28 61 CFG=1
M  V30 67 1 29 62
M  V30 68 1 29 63
M  V30 69 1 32 64
M  V30 70 1 36 65
M  V30 71 1 37 66
M  V30 72 1 37 67
M  V30 73 1 37 68
M  V30 74 1 38 69
M  V30 75 1 38 70
M  V30 76 1 38 71
M  V30 END BOND
M  V30 END CTAB
M  END
>  <Dataset>  (331) 
ChEMBL_Kinases

>  <Ligand_Instance>  (331) 
nan

>  <PDB_ID>  (331) 
nan

>  <Standardized_SMILES>  (331) 
Cc1nc2cnc3ccc(C#CCNC(=O)c4cccn(CC5C[C@@H]6CC[C@H]5C6)c4=O)cc3c2n1C(C)C

>  <Name>  (331) 
nan

>  <Pocket>  (331) 
nan

>  <ATP_Site>  (331) 
nan

>  <Peripheral>  (331) 
nan

>  <Num_H_Atoms_ProtBoundConf>  (331) 
nan

>  <Num_Resolved_Atoms>  (331) 
nan

>  <Num_Not_Resolved_Atoms>  (331) 
nan

$$$$
CHEMBL3644725
     RDKit          3D

  0  0  0  0  0  0  0  0  0  0999 V3000
M  V30 BEGIN CTAB
M  V30 COUNTS 78 83 0 0 0
M  V30 BEGIN ATOM
M  V30 1 C -0.737258 -3.966061 -2.098185 0
M  V30 2 C 0.217962 -4.241382 -0.991101 0
M  V30 3 N 0.795415 -3.062149 -0.375144 0
M  V30 4 C 1.685171 -2.404172 -1.336027 0
M  V30 5 C 2.411229 -1.256747 -0.761791 0
M  V30 6 C 2.447230 -1.191597 0.760403 0
M  V30 7 N 3.686550 -0.608836 1.113614 0
M  V30 8 C 4.787312 -1.288262 0.650161 0
M  V30 9 C 5.143396 -2.503529 -0.152967 0
M  V30 10 N 5.913285 -0.635230 1.053405 0
M  V30 11 C 5.559322 0.426119 1.750697 0
M  V30 12 C 6.338159 1.400284 2.369073 0
M  V30 13 N 5.692476 2.383430 3.020401 0
M  V30 14 C 4.326772 2.381066 3.045249 0
M  V30 15 C 3.724374 3.413643 3.726326 0
M  V30 16 C 2.347959 3.434023 3.764390 0
M  V30 17 C 1.536929 2.471393 3.154182 0
M  V30 18 C 0.137399 2.639303 3.285249 0
M  V30 19 C -1.050268 2.795622 3.382693 0
M  V30 20 C -2.494201 3.008680 3.489937 0
M  V30 21 N -3.089631 2.268932 2.374227 0
M  V30 22 C -2.918658 0.881662 2.256172 0
M  V30 23 O -2.211061 0.452080 3.226132 0
M  V30 24 C -3.434072 -0.001084 1.222197 0
M  V30 25 C -3.106803 -1.350141 1.364262 0
M  V30 26 C -3.529819 -2.296847 0.459946 0
M  V30 27 C -3.152425 -3.718768 0.658885 0
M  V30 28 N -4.276810 -1.895300 -0.581650 0
M  V30 29 N -4.611892 -0.631220 -0.758831 0
M  V30 30 C -5.409038 -0.239617 -1.887009 0
M  V30 31 C -4.582347 0.105341 -3.071692 0
M  V30 32 C -4.276785 -0.944390 -3.943105 0
M  V30 33 C -3.516600 -0.759321 -5.080150 0
M  V30 34 C -3.027081 0.513346 -5.387118 0
M  V30 35 F -2.280263 0.721572 -6.496241 0
M  V30 36 C -3.323421 1.576340 -4.525220 0
M  V30 37 F -2.874059 2.835096 -4.772416 0
M  V30 38 C -4.085864 1.348060 -3.400612 0
M  V30 39 C -4.202080 0.296934 0.120437 0
M  V30 40 O -4.503880 1.487328 -0.024977 0
M  V30 41 C 2.214883 1.474760 2.495063 0
M  V30 42 C 3.575775 1.425837 2.438721 0
M  V30 43 C 4.188019 0.428296 1.778524 0
M  V30 44 C 2.426838 -2.582388 1.403284 0
M  V30 45 C 1.705715 -3.615809 0.642809 0
M  V30 46 H -0.205967 -4.207625 -3.048509 0
M  V30 47 H -1.618428 -4.672149 -2.098474 0
M  V30 48 H -1.063322 -2.932027 -2.187281 0
M  V30 49 H 1.054172 -4.925525 -1.258476 0
M  V30 50 H -0.339905 -4.760051 -0.179086 0
M  V30 51 H 1.075531 -2.093436 -2.237808 0
M  V30 52 H 2.325549 -3.226609 -1.752851 0
M  V30 53 H 1.863624 -0.324803 -1.110928 0
M  V30 54 H 3.398793 -1.139853 -1.235999 0
M  V30 55 H 1.503254 -0.792664 1.035632 0
M  V30 56 H 5.799287 -3.173052 0.483361 0
M  V30 57 H 5.806612 -2.219023 -1.019084 0
M  V30 58 H 4.322641 -3.137862 -0.449235 0
M  V30 59 H 7.421379 1.371215 2.329529 0
M  V30 60 H 4.325686 4.161734 4.201317 0
M  V30 61 H 1.917536 4.259487 4.306947 0
M  V30 62 H -2.866252 2.646490 4.477962 0
M  V30 63 H -2.721371 4.080501 3.415474 0
M  V30 64 H -3.651043 2.763000 1.648758 0
M  V30 65 H -2.502855 -1.696935 2.201593 0
M  V30 66 H -3.273346 -4.322553 -0.259352 0
M  V30 67 H -3.872828 -4.140508 1.408765 0
M  V30 68 H -2.118283 -3.724821 1.052737 0
M  V30 69 H -6.175683 -0.982905 -2.141709 0
M  V30 70 H -5.948929 0.692527 -1.614131 0
M  V30 71 H -4.642557 -1.942622 -3.730917 0
M  V30 72 H -3.315771 -1.611145 -5.710743 0
M  V30 73 H -4.335218 2.144169 -2.711970 0
M  V30 74 H 1.498499 0.817937 2.081114 0
M  V30 75 H 3.426505 -2.939178 1.698180 0
M  V30 76 H 1.894525 -2.502918 2.404573 0
M  V30 77 H 1.014388 -4.237451 1.287812 0
M  V30 78 H 2.370772 -4.358111 0.172512 0
M  V30 END ATOM
M  V30 BEGIN BOND
M  V30 1 1 1 2
M  V30 2 1 2 3
M  V30 3 1 3 4
M  V30 4 1 4 5
M  V30 5 1 5 6
M  V30 6 1 6 7
M  V30 7 1 7 8
M  V30 8 1 8 9
M  V30 9 2 8 10
M  V30 10 1 10 11
M  V30 11 2 11 12
M  V30 12 1 12 13
M  V30 13 2 13 14
M  V30 14 1 14 15
M  V30 15 2 15 16
M  V30 16 1 16 17
M  V30 17 1 17 18
M  V30 18 3 18 19
M  V30 19 1 19 20
M  V30 20 1 20 21
M  V30 21 1 21 22
M  V30 22 2 22 23
M  V30 23 1 22 24
M  V30 24 2 24 25
M  V30 25 1 25 26
M  V30 26 1 26 27
M  V30 27 2 26 28
M  V30 28 1 28 29
M  V30 29 1 29 30
M  V30 30 1 30 31
M  V30 31 2 31 32
M  V30 32 1 32 33
M  V30 33 2 33 34
M  V30 34 1 34 35
M  V30 35 1 34 36
M  V30 36 1 36 37
M  V30 37 2 36 38
M  V30 38 1 29 39
M  V30 39 2 39 40
M  V30 40 2 17 41
M  V30 41 1 41 42
M  V30 42 2 42 43
M  V30 43 1 6 44
M  V30 44 1 44 45
M  V30 45 1 45 3
M  V30 46 1 43 7
M  V30 47 1 43 11
M  V30 48 1 42 14
M  V30 49 1 39 24
M  V30 50 1 38 31
M  V30 51 1 1 46
M  V30 52 1 1 47
M  V30 53 1 1 48
M  V30 54 1 2 49
M  V30 55 1 2 50
M  V30 56 1 4 51
M  V30 57 1 4 52
M  V30 58 1 5 53
M  V30 59 1 5 54
M  V30 60 1 6 55
M  V30 61 1 9 56
M  V30 62 1 9 57
M  V30 63 1 9 58
M  V30 64 1 12 59
M  V30 65 1 15 60
M  V30 66 1 16 61
M  V30 67 1 20 62
M  V30 68 1 20 63
M  V30 69 1 21 64
M  V30 70 1 25 65
M  V30 71 1 27 66
M  V30 72 1 27 67
M  V30 73 1 27 68
M  V30 74 1 30 69
M  V30 75 1 30 70
M  V30 76 1 32 71
M  V30 77 1 33 72
M  V30 78 1 38 73
M  V30 79 1 41 74
M  V30 80 1 44 75
M  V30 81 1 44 76
M  V30 82 1 45 77
M  V30 83 1 45 78
M  V30 END BOND
M  V30 END CTAB
M  END
>  <Dataset>  (332) 
ChEMBL_Kinases

>  <Ligand_Instance>  (332) 
nan

>  <PDB_ID>  (332) 
nan

>  <Standardized_SMILES>  (332) 
CCN1CCC(n2c(C)nc3cnc4ccc(C#CCNC(=O)c5cc(C)nn(Cc6ccc(F)c(F)c6)c5=O)cc4c32)CC1

>  <Name>  (332) 
nan

>  <Pocket>  (332) 
nan

>  <ATP_Site>  (332) 
nan

>  <Peripheral>  (332) 
nan

>  <Num_H_Atoms_ProtBoundConf>  (332) 
nan

>  <Num_Resolved_Atoms>  (332) 
nan

>  <Num_Not_Resolved_Atoms>  (332) 
nan

$$$$
CHEMBL3644717
     RDKit          3D

  0  0  0  0  0  0  0  0  0  0999 V3000
M  V30 BEGIN CTAB
M  V30 COUNTS 68 72 0 0 0
M  V30 BEGIN ATOM
M  V30 1 C 6.744254 -1.513876 3.329287 0
M  V30 2 C 6.310839 -0.801682 2.073131 0
M  V30 3 N 7.194805 -0.710512 1.036708 0
M  V30 4 C 6.575372 -0.054383 0.071648 0
M  V30 5 C 7.041317 0.290152 -1.171474 0
M  V30 6 N 6.218933 0.964778 -1.992822 0
M  V30 7 C 4.972626 1.272174 -1.557235 0
M  V30 8 C 4.197058 1.959435 -2.457674 0
M  V30 9 C 2.922741 2.284866 -2.045034 0
M  V30 10 C 2.428868 1.949019 -0.797778 0
M  V30 11 C 1.083300 2.361474 -0.519249 0
M  V30 12 C -0.039616 2.720296 -0.270346 0
M  V30 13 C -1.392562 3.171312 0.049228 0
M  V30 14 N -2.381303 2.116265 -0.053998 0
M  V30 15 C -2.613303 1.433510 -1.277604 0
M  V30 16 O -1.832724 1.914855 -2.161804 0
M  V30 17 C -3.560974 0.364220 -1.541213 0
M  V30 18 C -3.543479 -0.095121 -2.858754 0
M  V30 19 C -4.369652 -1.096493 -3.275003 0
M  V30 20 C -5.230254 -1.653961 -2.368666 0
M  V30 21 N -5.289559 -1.243958 -1.068092 0
M  V30 22 C -6.178026 -1.761395 -0.059603 0
M  V30 23 C -5.526209 -2.854925 0.714895 0
M  V30 24 C -5.144383 -3.975686 -0.215321 0
M  V30 25 C -4.253799 -4.937177 0.546121 0
M  V30 26 C -4.349833 -4.634500 2.005769 0
M  V30 27 C -5.742406 -4.321351 2.453321 0
M  V30 28 O -6.348001 -3.321555 1.744405 0
M  V30 29 C -4.458204 -0.258023 -0.709257 0
M  V30 30 O -4.459885 0.162763 0.456203 0
M  V30 31 C 3.272492 1.258381 0.047714 0
M  V30 32 C 4.540253 0.917503 -0.321516 0
M  V30 33 C 5.322691 0.229560 0.569844 0
M  V30 34 N 5.092391 -0.207865 1.812918 0
M  V30 35 C 3.996123 -0.157553 2.731805 0
M  V30 36 C 2.829236 -1.055392 2.446151 0
M  V30 37 C 3.679092 1.170782 3.356717 0
M  V30 38 H 5.854939 -2.104772 3.689382 0
M  V30 39 H 7.593688 -2.188913 3.109311 0
M  V30 40 H 7.075890 -0.773684 4.082563 0
M  V30 41 H 8.037914 0.028225 -1.482102 0
M  V30 42 H 4.560754 2.230695 -3.433174 0
M  V30 43 H 2.312074 2.827579 -2.756579 0
M  V30 44 H -1.445017 3.611377 1.066328 0
M  V30 45 H -1.605887 3.997936 -0.668147 0
M  V30 46 H -2.947129 1.834012 0.772052 0
M  V30 47 H -2.879261 0.315083 -3.614740 0
M  V30 48 H -4.351112 -1.449102 -4.296253 0
M  V30 49 H -5.897104 -2.438201 -2.663268 0
M  V30 50 H -6.571836 -0.942645 0.582812 0
M  V30 51 H -7.059408 -2.234405 -0.586450 0
M  V30 52 H -4.586704 -2.484495 1.187667 0
M  V30 53 H -4.579736 -3.605913 -1.081567 0
M  V30 54 H -6.055123 -4.483094 -0.600382 0
M  V30 55 H -3.204505 -4.767255 0.225400 0
M  V30 56 H -4.531098 -5.989888 0.315460 0
M  V30 57 H -4.056994 -5.572423 2.547553 0
M  V30 58 H -3.650475 -3.859469 2.355734 0
M  V30 59 H -5.683552 -3.981830 3.513036 0
M  V30 60 H -6.334087 -5.283135 2.425827 0
M  V30 61 H 2.747131 1.078558 0.944792 0
M  V30 62 H 4.428019 -0.707718 3.655343 0
M  V30 63 H 2.867232 -1.296377 1.344706 0
M  V30 64 H 1.853347 -0.515897 2.597896 0
M  V30 65 H 2.781138 -1.995089 2.982580 0
M  V30 66 H 4.272597 1.981669 2.852332 0
M  V30 67 H 3.950132 1.277807 4.423240 0
M  V30 68 H 2.578729 1.424561 3.319995 0
M  V30 END ATOM
M  V30 BEGIN BOND
M  V30 1 1 1 2
M  V30 2 2 2 3
M  V30 3 1 3 4
M  V30 4 2 4 5
M  V30 5 1 5 6
M  V30 6 2 6 7
M  V30 7 1 7 8
M  V30 8 2 8 9
M  V30 9 1 9 10
M  V30 10 1 10 11
M  V30 11 3 11 12
M  V30 12 1 12 13
M  V30 13 1 13 14
M  V30 14 1 14 15
M  V30 15 2 15 16
M  V30 16 1 15 17
M  V30 17 2 17 18
M  V30 18 1 18 19
M  V30 19 2 19 20
M  V30 20 1 20 21
M  V30 21 1 21 22
M  V30 22 1 22 23
M  V30 23 1 23 24
M  V30 24 1 24 25
M  V30 25 1 25 26
M  V30 26 1 26 27
M  V30 27 1 27 28
M  V30 28 1 21 29
M  V30 29 2 29 30
M  V30 30 2 10 31
M  V30 31 1 31 32
M  V30 32 2 32 33
M  V30 33 1 33 34
M  V30 34 1 34 35
M  V30 35 1 35 36
M  V30 36 1 35 37
M  V30 37 1 34 2
M  V30 38 1 33 4
M  V30 39 1 32 7
M  V30 40 1 29 17
M  V30 41 1 28 23
M  V30 42 1 1 38
M  V30 43 1 1 39
M  V30 44 1 1 40
M  V30 45 1 5 41
M  V30 46 1 8 42
M  V30 47 1 9 43
M  V30 48 1 13 44
M  V30 49 1 13 45
M  V30 50 1 14 46
M  V30 51 1 18 47
M  V30 52 1 19 48
M  V30 53 1 20 49
M  V30 54 1 22 50
M  V30 55 1 22 51
M  V30 56 1 23 52
M  V30 57 1 24 53
M  V30 58 1 24 54
M  V30 59 1 25 55
M  V30 60 1 25 56
M  V30 61 1 26 57
M  V30 62 1 26 58
M  V30 63 1 27 59
M  V30 64 1 27 60
M  V30 65 1 31 61
M  V30 66 1 35 62
M  V30 67 1 36 63
M  V30 68 1 36 64
M  V30 69 1 36 65
M  V30 70 1 37 66
M  V30 71 1 37 67
M  V30 72 1 37 68
M  V30 END BOND
M  V30 END CTAB
M  END
>  <Dataset>  (333) 
ChEMBL_Kinases

>  <Ligand_Instance>  (333) 
nan

>  <PDB_ID>  (333) 
nan

>  <Standardized_SMILES>  (333) 
Cc1nc2cnc3ccc(C#CCNC(=O)c4cccn(CC5CCCCO5)c4=O)cc3c2n1C(C)C

>  <Name>  (333) 
nan

>  <Pocket>  (333) 
nan

>  <ATP_Site>  (333) 
nan

>  <Peripheral>  (333) 
nan

>  <Num_H_Atoms_ProtBoundConf>  (333) 
nan

>  <Num_Resolved_Atoms>  (333) 
nan

>  <Num_Not_Resolved_Atoms>  (333) 
nan

$$$$
CHEMBL3644718
     RDKit          3D

  0  0  0  0  0  0  0  0  0  0999 V3000
M  V30 BEGIN CTAB
M  V30 COUNTS 67 71 0 0 0
M  V30 BEGIN ATOM
M  V30 1 C 3.370427 -1.135255 5.841034 0
M  V30 2 C 3.925920 -1.018393 4.480789 0
M  V30 3 N 5.228976 -1.385108 4.248237 0
M  V30 4 C 5.526936 -1.177607 2.967919 0
M  V30 5 C 6.705526 -1.406344 2.334501 0
M  V30 6 N 6.744319 -1.102493 1.024026 0
M  V30 7 C 5.648140 -0.593856 0.392281 0
M  V30 8 C 5.836836 -0.315389 -0.943807 0
M  V30 9 C 4.745599 0.216144 -1.597300 0
M  V30 10 C 3.537937 0.454168 -0.948349 0
M  V30 11 C 2.472559 1.008682 -1.722655 0
M  V30 12 C 1.561015 1.471090 -2.360006 0
M  V30 13 C 0.431903 2.016151 -3.134886 0
M  V30 14 N -0.787959 1.248629 -2.853771 0
M  V30 15 C -1.077593 1.338946 -1.467166 0
M  V30 16 O -0.179002 2.061410 -0.913986 0
M  V30 17 C -2.171044 0.753553 -0.717947 0
M  V30 18 C -2.166399 1.037159 0.640474 0
M  V30 19 C -3.133608 0.556064 1.481610 0
M  V30 20 C -4.135730 -0.230590 0.958934 0
M  V30 21 N -4.164264 -0.525452 -0.374007 0
M  V30 22 C -5.227185 -1.363004 -0.827767 0
M  V30 23 C -4.986232 -2.827442 -0.722678 0
M  V30 24 C -3.820450 -3.326516 -1.492205 0
M  V30 25 C -4.292641 -3.456403 -2.899018 0
M  V30 26 C -5.819347 -3.392229 -2.870768 0
M  V30 27 C -6.173770 -3.515307 -1.403900 0
M  V30 28 C -3.201110 -0.036359 -1.166560 0
M  V30 29 O -3.198356 -0.283485 -2.387216 0
M  V30 30 C 3.472922 0.131576 0.397184 0
M  V30 31 C 4.514249 -0.399877 1.108655 0
M  V30 32 C 4.354275 -0.673803 2.446989 0
M  V30 33 N 3.349296 -0.559599 3.326260 0
M  V30 34 C 2.011472 -0.116606 3.152458 0
M  V30 35 C 1.057954 -0.673091 4.248476 0
M  V30 36 C 1.803494 1.377441 3.242464 0
M  V30 37 H 4.193179 -1.547650 6.509288 0
M  V30 38 H 2.560717 -1.847198 5.981140 0
M  V30 39 H 3.202434 -0.127236 6.321077 0
M  V30 40 H 7.565907 -1.808514 2.846154 0
M  V30 41 H 6.758578 -0.495650 -1.443291 0
M  V30 42 H 4.855980 0.446641 -2.645282 0
M  V30 43 H 0.708921 1.969658 -4.190292 0
M  V30 44 H 0.234046 3.088198 -2.880807 0
M  V30 45 H -1.437379 0.689301 -3.433668 0
M  V30 46 H -1.385475 1.661195 1.102457 0
M  V30 47 H -3.101138 0.795667 2.534377 0
M  V30 48 H -4.890017 -0.593975 1.672020 0
M  V30 49 H -6.127460 -1.150346 -0.175152 0
M  V30 50 H -5.541304 -1.128653 -1.871791 0
M  V30 51 H -4.942322 -3.163323 0.346702 0
M  V30 52 H -2.874976 -2.761989 -1.356596 0
M  V30 53 H -3.557517 -4.362907 -1.100913 0
M  V30 54 H -3.966633 -4.455731 -3.302436 0
M  V30 55 H -3.866421 -2.664860 -3.520733 0
M  V30 56 H -6.198194 -4.259794 -3.455439 0
M  V30 57 H -6.134164 -2.438498 -3.312597 0
M  V30 58 H -6.201169 -4.558359 -1.084881 0
M  V30 59 H -7.127905 -2.981742 -1.171823 0
M  V30 60 H 2.519968 0.373501 0.781462 0
M  V30 61 H 1.481908 -0.526968 2.245661 0
M  V30 62 H 0.020964 -0.356369 3.883925 0
M  V30 63 H 1.017342 -1.747360 4.266031 0
M  V30 64 H 1.218074 -0.097067 5.139312 0
M  V30 65 H 0.954885 1.722579 2.629396 0
M  V30 66 H 1.562245 1.711241 4.290589 0
M  V30 67 H 2.742623 1.959187 3.012588 0
M  V30 END ATOM
M  V30 BEGIN BOND
M  V30 1 1 1 2
M  V30 2 2 2 3
M  V30 3 1 3 4
M  V30 4 2 4 5
M  V30 5 1 5 6
M  V30 6 2 6 7
M  V30 7 1 7 8
M  V30 8 2 8 9
M  V30 9 1 9 10
M  V30 10 1 10 11
M  V30 11 3 11 12
M  V30 12 1 12 13
M  V30 13 1 13 14
M  V30 14 1 14 15
M  V30 15 2 15 16
M  V30 16 1 15 17
M  V30 17 2 17 18
M  V30 18 1 18 19
M  V30 19 2 19 20
M  V30 20 1 20 21
M  V30 21 1 21 22
M  V30 22 1 22 23
M  V30 23 1 23 24
M  V30 24 1 24 25
M  V30 25 1 25 26
M  V30 26 1 26 27
M  V30 27 1 21 28
M  V30 28 2 28 29
M  V30 29 2 10 30
M  V30 30 1 30 31
M  V30 31 2 31 32
M  V30 32 1 32 33
M  V30 33 1 33 34
M  V30 34 1 34 35
M  V30 35 1 34 36
M  V30 36 1 33 2
M  V30 37 1 32 4
M  V30 38 1 31 7
M  V30 39 1 28 17
M  V30 40 1 27 23
M  V30 41 1 1 37
M  V30 42 1 1 38
M  V30 43 1 1 39
M  V30 44 1 5 40
M  V30 45 1 8 41
M  V30 46 1 9 42
M  V30 47 1 13 43
M  V30 48 1 13 44
M  V30 49 1 14 45
M  V30 50 1 18 46
M  V30 51 1 19 47
M  V30 52 1 20 48
M  V30 53 1 22 49
M  V30 54 1 22 50
M  V30 55 1 23 51
M  V30 56 1 24 52
M  V30 57 1 24 53
M  V30 58 1 25 54
M  V30 59 1 25 55
M  V30 60 1 26 56
M  V30 61 1 26 57
M  V30 62 1 27 58
M  V30 63 1 27 59
M  V30 64 1 30 60
M  V30 65 1 34 61
M  V30 66 1 35 62
M  V30 67 1 35 63
M  V30 68 1 35 64
M  V30 69 1 36 65
M  V30 70 1 36 66
M  V30 71 1 36 67
M  V30 END BOND
M  V30 END CTAB
M  END
>  <Dataset>  (334) 
ChEMBL_Kinases

>  <Ligand_Instance>  (334) 
nan

>  <PDB_ID>  (334) 
nan

>  <Standardized_SMILES>  (334) 
Cc1nc2cnc3ccc(C#CCNC(=O)c4cccn(CC5CCCC5)c4=O)cc3c2n1C(C)C

>  <Name>  (334) 
nan

>  <Pocket>  (334) 
nan

>  <ATP_Site>  (334) 
nan

>  <Peripheral>  (334) 
nan

>  <Num_H_Atoms_ProtBoundConf>  (334) 
nan

>  <Num_Resolved_Atoms>  (334) 
nan

>  <Num_Not_Resolved_Atoms>  (334) 
nan

$$$$
CHEMBL3644719
     RDKit          3D

  0  0  0  0  0  0  0  0  0  0999 V3000
M  V30 BEGIN CTAB
M  V30 COUNTS 71 75 0 0 0
M  V30 BEGIN ATOM
M  V30 1 C 3.771134 -2.411251 3.868520 0
M  V30 2 C 3.842368 -1.149196 3.077098 0
M  V30 3 N 5.129433 -0.678535 3.074009 0
M  V30 4 C 5.165112 0.448743 2.353130 0
M  V30 5 C 6.242727 1.292218 2.058186 0
M  V30 6 N 5.920377 2.351433 1.297049 0
M  V30 7 C 4.668068 2.573407 0.860730 0
M  V30 8 C 4.437415 3.683826 0.086036 0
M  V30 9 C 3.154670 3.916558 -0.364762 0
M  V30 10 C 2.084381 3.064692 -0.061422 0
M  V30 11 C 0.816359 3.458798 -0.602123 0
M  V30 12 C -0.241790 3.809493 -1.051700 0
M  V30 13 C -1.512773 4.257518 -1.589712 0
M  V30 14 N -2.260094 3.202612 -2.205885 0
M  V30 15 C -2.631867 2.134877 -1.468241 0
M  V30 16 O -2.367875 1.951704 -0.238415 0
M  V30 17 C -3.244051 0.903137 -1.224188 0
M  V30 18 C -3.701993 0.899273 -2.660793 0
M  V30 19 C -4.477046 -0.074240 -3.383274 0
M  V30 20 C -4.880275 -1.211808 -2.644497 0
M  V30 21 N -4.504159 -1.279849 -1.346680 0
M  V30 22 C -4.739998 -2.294059 -0.371560 0
M  V30 23 C -3.727556 -3.383899 -0.263655 0
M  V30 24 O -4.220181 -4.250078 0.762400 0
M  V30 25 C -3.502708 -4.158232 -1.512093 0
M  V30 26 C -2.013199 -4.319400 -1.857366 0
M  V30 27 C -1.308715 -4.972297 -0.703927 0
M  V30 28 C -1.562394 -4.191569 0.549421 0
M  V30 29 C -2.385668 -2.924274 0.294246 0
M  V30 30 C -3.805882 -0.227192 -1.000390 0
M  V30 31 O -3.371252 -0.140350 0.240801 0
M  V30 32 C 2.364610 1.968414 0.714947 0
M  V30 33 C 3.630338 1.729427 1.165012 0
M  V30 34 C 3.885796 0.649037 1.924516 0
M  V30 35 N 3.060084 -0.299425 2.345237 0
M  V30 36 C 1.724532 -0.706064 2.311024 0
M  V30 37 C 1.685537 -2.151688 1.732371 0
M  V30 38 C 1.172549 -0.853572 3.764572 0
M  V30 39 H 2.766320 -2.843388 3.941699 0
M  V30 40 H 4.092194 -2.240346 4.938788 0
M  V30 41 H 4.510314 -3.182127 3.495010 0
M  V30 42 H 7.250906 1.115556 2.409356 0
M  V30 43 H 5.248678 4.333884 -0.147098 0
M  V30 44 H 3.032322 4.788169 -0.955875 0
M  V30 45 H -2.170908 4.691343 -0.781582 0
M  V30 46 H -1.356116 5.075070 -2.328587 0
M  V30 47 H -2.620574 3.033146 -3.155510 0
M  V30 48 H -3.653079 1.531696 -3.624016 0
M  V30 49 H -4.896449 -0.252032 -4.390002 0
M  V30 50 H -5.473758 -2.053669 -2.959004 0
M  V30 51 H -4.922305 -1.861226 0.655252 0
M  V30 52 H -5.719131 -2.781870 -0.617414 0
M  V30 53 H -4.804442 -4.880121 0.243355 0
M  V30 54 H -3.919088 -5.185951 -1.402840 0
M  V30 55 H -3.960106 -3.667881 -2.381804 0
M  V30 56 H -1.974665 -4.939545 -2.778981 0
M  V30 57 H -1.563690 -3.358284 -2.071553 0
M  V30 58 H -0.222940 -5.008286 -0.950064 0
M  V30 59 H -1.749079 -5.983918 -0.563148 0
M  V30 60 H -2.055804 -4.802805 1.324241 0
M  V30 61 H -0.570127 -3.808428 0.891981 0
M  V30 62 H -2.509739 -2.452785 1.308600 0
M  V30 63 H -1.837132 -2.283225 -0.384253 0
M  V30 64 H 1.468140 1.428006 0.857976 0
M  V30 65 H 0.937242 -0.215590 1.809287 0
M  V30 66 H 2.687671 -2.550222 1.570857 0
M  V30 67 H 1.021038 -2.792746 2.344519 0
M  V30 68 H 1.202579 -2.146553 0.719118 0
M  V30 69 H 0.450826 -0.010506 3.976407 0
M  V30 70 H 0.636647 -1.785814 3.897451 0
M  V30 71 H 2.015516 -0.657175 4.448812 0
M  V30 END ATOM
M  V30 BEGIN BOND
M  V30 1 1 1 2
M  V30 2 2 2 3
M  V30 3 1 3 4
M  V30 4 2 4 5
M  V30 5 1 5 6
M  V30 6 2 6 7
M  V30 7 1 7 8
M  V30 8 2 8 9
M  V30 9 1 9 10
M  V30 10 1 10 11
M  V30 11 3 11 12
M  V30 12 1 12 13
M  V30 13 1 13 14
M  V30 14 1 14 15
M  V30 15 2 15 16
M  V30 16 1 15 17
M  V30 17 2 17 18
M  V30 18 1 18 19
M  V30 19 2 19 20
M  V30 20 1 20 21
M  V30 21 1 21 22
M  V30 22 1 22 23
M  V30 23 1 23 24
M  V30 24 1 23 25
M  V30 25 1 25 26
M  V30 26 1 26 27
M  V30 27 1 27 28
M  V30 28 1 28 29
M  V30 29 1 21 30
M  V30 30 2 30 31
M  V30 31 2 10 32
M  V30 32 1 32 33
M  V30 33 2 33 34
M  V30 34 1 34 35
M  V30 35 1 35 36
M  V30 36 1 36 37
M  V30 37 1 36 38
M  V30 38 1 35 2
M  V30 39 1 34 4
M  V30 40 1 33 7
M  V30 41 1 30 17
M  V30 42 1 29 23
M  V30 43 1 1 39
M  V30 44 1 1 40
M  V30 45 1 1 41
M  V30 46 1 5 42
M  V30 47 1 8 43
M  V30 48 1 9 44
M  V30 49 1 13 45
M  V30 50 1 13 46
M  V30 51 1 14 47
M  V30 52 1 18 48
M  V30 53 1 19 49
M  V30 54 1 20 50
M  V30 55 1 22 51
M  V30 56 1 22 52
M  V30 57 1 24 53
M  V30 58 1 25 54
M  V30 59 1 25 55
M  V30 60 1 26 56
M  V30 61 1 26 57
M  V30 62 1 27 58
M  V30 63 1 27 59
M  V30 64 1 28 60
M  V30 65 1 28 61
M  V30 66 1 29 62
M  V30 67 1 29 63
M  V30 68 1 32 64
M  V30 69 1 36 65
M  V30 70 1 37 66
M  V30 71 1 37 67
M  V30 72 1 37 68
M  V30 73 1 38 69
M  V30 74 1 38 70
M  V30 75 1 38 71
M  V30 END BOND
M  V30 END CTAB
M  END
>  <Dataset>  (335) 
ChEMBL_Kinases

>  <Ligand_Instance>  (335) 
nan

>  <PDB_ID>  (335) 
nan

>  <Standardized_SMILES>  (335) 
Cc1nc2cnc3ccc(C#CCNC(=O)c4cccn(CC5(O)CCCCC5)c4=O)cc3c2n1C(C)C

>  <Name>  (335) 
nan

>  <Pocket>  (335) 
nan

>  <ATP_Site>  (335) 
nan

>  <Peripheral>  (335) 
nan

>  <Num_H_Atoms_ProtBoundConf>  (335) 
nan

>  <Num_Resolved_Atoms>  (335) 
nan

>  <Num_Not_Resolved_Atoms>  (335) 
nan

$$$$
CHEMBL3644720
     RDKit          3D

  0  0  0  0  0  0  0  0  0  0999 V3000
M  V30 BEGIN CTAB
M  V30 COUNTS 71 75 0 0 0
M  V30 BEGIN ATOM
M  V30 1 C 3.433232 -2.570219 3.376894 0
M  V30 2 C 3.444437 -1.148857 2.952615 0
M  V30 3 N 4.575768 -0.516414 3.377966 0
M  V30 4 C 4.542176 0.758690 2.966288 0
M  V30 5 C 5.465736 1.786789 3.157181 0
M  V30 6 N 5.117956 2.959612 2.605404 0
M  V30 7 C 3.964045 3.110119 1.924153 0
M  V30 8 C 3.712580 4.332529 1.381058 0
M  V30 9 C 2.553891 4.489770 0.665574 0
M  V30 10 C 1.629093 3.461931 0.469898 0
M  V30 11 C 0.489250 3.795483 -0.340941 0
M  V30 12 C -0.448227 4.074056 -1.034358 0
M  V30 13 C -1.574000 4.409616 -1.898751 0
M  V30 14 N -1.979362 3.218268 -2.659935 0
M  V30 15 C -2.441657 2.165290 -1.930428 0
M  V30 16 O -2.579605 2.082279 -0.659426 0
M  V30 17 C -2.945870 0.876252 -1.783326 0
M  V30 18 C -2.694340 0.637858 -3.258012 0
M  V30 19 C -2.925691 -0.512210 -4.071901 0
M  V30 20 C -3.480529 -1.637940 -3.440604 0
M  V30 21 N -3.740116 -1.504875 -2.104817 0
M  V30 22 C -4.328175 -2.493041 -1.283370 0
M  V30 23 C -3.460117 -3.460745 -0.579195 0 CFG=1
M  V30 24 C -2.590437 -4.291741 -1.499682 0
M  V30 25 C -1.696747 -5.155555 -0.627591 0
M  V30 26 C -2.280729 -5.395464 0.729942 0
M  V30 27 C -2.312636 -4.123343 1.507951 0
M  V30 28 C -2.694048 -2.949799 0.589987 0 CFG=1
M  V30 29 O -1.470736 -2.344688 0.226686 0
M  V30 30 C -3.415977 -0.325595 -1.646187 0
M  V30 31 O -3.609750 -0.047731 -0.367606 0
M  V30 32 C 1.915816 2.241021 1.034411 0
M  V30 33 C 3.069835 2.085468 1.747854 0
M  V30 34 C 3.371122 0.873632 2.288523 0
M  V30 35 N 2.674511 -0.256693 2.256930 0
M  V30 36 C 1.456423 -0.801709 1.795186 0
M  V30 37 C 1.810886 -1.989078 0.870672 0
M  V30 38 C 0.713118 -1.447342 3.011474 0
M  V30 39 H 2.586706 -3.161025 3.040942 0
M  V30 40 H 3.609315 -2.679610 4.486191 0
M  V30 41 H 4.337210 -3.069773 2.907750 0
M  V30 42 H 6.381919 1.593076 3.722818 0
M  V30 43 H 4.401756 5.132710 1.514758 0
M  V30 44 H 2.390346 5.476942 0.253557 0
M  V30 45 H -2.455515 4.772735 -1.300855 0
M  V30 46 H -1.228756 5.150118 -2.637894 0
M  V30 47 H -2.014392 2.952964 -3.634141 0
M  V30 48 H -2.281574 1.177587 -4.189619 0
M  V30 49 H -2.807490 -0.845896 -5.117248 0
M  V30 50 H -3.759662 -2.619142 -3.772223 0
M  V30 51 H -4.988868 -2.017410 -0.488892 0
M  V30 52 H -5.098598 -3.032804 -1.933981 0
M  V30 53 H -4.186077 -4.232779 -0.129508 0
M  V30 54 H -3.257517 -4.966269 -2.067713 0
M  V30 55 H -1.987611 -3.668464 -2.158857 0
M  V30 56 H -1.507804 -6.141758 -1.097936 0
M  V30 57 H -0.725510 -4.647991 -0.480136 0
M  V30 58 H -3.305017 -5.851745 0.706014 0
M  V30 59 H -1.577219 -6.082253 1.292446 0
M  V30 60 H -1.353023 -3.910167 1.987819 0
M  V30 61 H -3.112646 -4.221677 2.300424 0
M  V30 62 H -3.270261 -2.248565 1.218214 0
M  V30 63 H -1.441610 -2.259041 -0.751279 0
M  V30 64 H 1.152423 1.580768 0.801952 0
M  V30 65 H 0.694422 -0.217309 1.335012 0
M  V30 66 H 2.886492 -2.217868 0.877984 0
M  V30 67 H 1.247394 -2.887574 1.107441 0
M  V30 68 H 1.566769 -1.703622 -0.186529 0
M  V30 69 H -0.214447 -0.855206 3.247286 0
M  V30 70 H 0.345756 -2.450072 2.758126 0
M  V30 71 H 1.339233 -1.363933 3.907162 0
M  V30 END ATOM
M  V30 BEGIN BOND
M  V30 1 1 1 2
M  V30 2 2 2 3
M  V30 3 1 3 4
M  V30 4 2 4 5
M  V30 5 1 5 6
M  V30 6 2 6 7
M  V30 7 1 7 8
M  V30 8 2 8 9
M  V30 9 1 9 10
M  V30 10 1 10 11
M  V30 11 3 11 12
M  V30 12 1 12 13
M  V30 13 1 13 14
M  V30 14 1 14 15
M  V30 15 2 15 16
M  V30 16 1 15 17
M  V30 17 2 17 18
M  V30 18 1 18 19
M  V30 19 2 19 20
M  V30 20 1 20 21
M  V30 21 1 21 22
M  V30 22 1 22 23
M  V30 23 1 23 24
M  V30 24 1 24 25
M  V30 25 1 25 26
M  V30 26 1 26 27
M  V30 27 1 27 28
M  V30 28 1 28 29
M  V30 29 1 21 30
M  V30 30 2 30 31
M  V30 31 2 10 32
M  V30 32 1 32 33
M  V30 33 2 33 34
M  V30 34 1 34 35
M  V30 35 1 35 36
M  V30 36 1 36 37
M  V30 37 1 36 38
M  V30 38 1 35 2
M  V30 39 1 34 4
M  V30 40 1 33 7
M  V30 41 1 30 17
M  V30 42 1 28 23
M  V30 43 1 1 39
M  V30 44 1 1 40
M  V30 45 1 1 41
M  V30 46 1 5 42
M  V30 47 1 8 43
M  V30 48 1 9 44
M  V30 49 1 13 45
M  V30 50 1 13 46
M  V30 51 1 14 47
M  V30 52 1 18 48
M  V30 53 1 19 49
M  V30 54 1 20 50
M  V30 55 1 22 51
M  V30 56 1 22 52
M  V30 57 1 23 53 CFG=1
M  V30 58 1 24 54
M  V30 59 1 24 55
M  V30 60 1 25 56
M  V30 61 1 25 57
M  V30 62 1 26 58
M  V30 63 1 26 59
M  V30 64 1 27 60
M  V30 65 1 27 61
M  V30 66 1 28 62 CFG=1
M  V30 67 1 29 63
M  V30 68 1 32 64
M  V30 69 1 36 65
M  V30 70 1 37 66
M  V30 71 1 37 67
M  V30 72 1 37 68
M  V30 73 1 38 69
M  V30 74 1 38 70
M  V30 75 1 38 71
M  V30 END BOND
M  V30 END CTAB
M  END
>  <Dataset>  (336) 
ChEMBL_Kinases

>  <Ligand_Instance>  (336) 
nan

>  <PDB_ID>  (336) 
nan

>  <Standardized_SMILES>  (336) 
Cc1nc2cnc3ccc(C#CCNC(=O)c4cccn(C[C@H]5CCCC[C@H]5O)c4=O)cc3c2n1C(C)C

>  <Name>  (336) 
nan

>  <Pocket>  (336) 
nan

>  <ATP_Site>  (336) 
nan

>  <Peripheral>  (336) 
nan

>  <Num_H_Atoms_ProtBoundConf>  (336) 
nan

>  <Num_Resolved_Atoms>  (336) 
nan

>  <Num_Not_Resolved_Atoms>  (336) 
nan

$$$$
CHEMBL3644721
     RDKit          3D

  0  0  0  0  0  0  0  0  0  0999 V3000
M  V30 BEGIN CTAB
M  V30 COUNTS 68 72 0 0 0
M  V30 BEGIN ATOM
M  V30 1 C 5.172342 -1.034768 5.802302 0
M  V30 2 C 5.342623 -0.485756 4.408223 0
M  V30 3 N 6.587331 -0.499839 3.857144 0
M  V30 4 C 6.450713 0.029097 2.646257 0
M  V30 5 C 7.420382 0.232761 1.697627 0
M  V30 6 N 7.029987 0.789491 0.536188 0
M  V30 7 C 5.719641 1.126960 0.337802 0
M  V30 8 C 5.435146 1.684895 -0.880582 0
M  V30 9 C 4.115846 2.022882 -1.081331 0
M  V30 10 C 3.123897 1.821290 -0.128249 0
M  V30 11 C 1.801139 2.230205 -0.501797 0
M  V30 12 C 0.684167 2.555167 -0.807158 0
M  V30 13 C -0.699132 2.932867 -1.187144 0
M  V30 14 N -1.581326 1.791289 -1.039707 0
M  V30 15 C -2.967617 1.862157 -1.333220 0
M  V30 16 O -3.253037 3.046904 -1.723405 0
M  V30 17 C -3.950538 0.796690 -1.226878 0
M  V30 18 C -5.241384 1.153644 -1.582131 0
M  V30 19 C -6.278544 0.265606 -1.536237 0
M  V30 20 C -6.069898 -1.028602 -1.130025 0
M  V30 21 N -4.818116 -1.380142 -0.783999 0
M  V30 22 C -4.525335 -2.712801 -0.350511 0
M  V30 23 C -4.141754 -3.671593 -1.431003 0
M  V30 24 C -5.254317 -3.808362 -2.445320 0
M  V30 25 C -4.743979 -4.729071 -3.530784 0
M  V30 26 C -3.690283 -5.656313 -2.971207 0
M  V30 27 O -3.964473 -6.070388 -1.682140 0
M  V30 28 C -4.020037 -5.046174 -0.762064 0
M  V30 29 C -3.818395 -0.512639 -0.831503 0
M  V30 30 O -2.665277 -0.839516 -0.511635 0
M  V30 31 C 3.515677 1.252440 1.066772 0
M  V30 32 C 4.810683 0.898769 1.317260 0
M  V30 33 C 5.112844 0.344846 2.513793 0
M  V30 34 N 4.368785 0.045609 3.585779 0
M  V30 35 C 2.985476 0.172721 3.942568 0
M  V30 36 C 2.021624 -0.758590 3.284907 0
M  V30 37 C 2.482270 1.562061 4.242254 0
M  V30 38 H 4.216107 -1.637527 5.787695 0
M  V30 39 H 5.980612 -1.718009 6.054680 0
M  V30 40 H 5.106304 -0.208186 6.528366 0
M  V30 41 H 8.450347 -0.042056 1.876965 0
M  V30 42 H 6.208872 1.839490 -1.617298 0
M  V30 43 H 3.877205 2.465591 -2.042643 0
M  V30 44 H -1.058613 3.803757 -0.622214 0
M  V30 45 H -0.687906 3.198627 -2.263216 0
M  V30 46 H -1.189554 0.885532 -0.707087 0
M  V30 47 H -5.489890 2.158713 -1.914707 0
M  V30 48 H -7.270290 0.555092 -1.813501 0
M  V30 49 H -6.850173 -1.783743 -1.070974 0
M  V30 50 H -3.774380 -2.767408 0.475716 0
M  V30 51 H -5.459134 -3.131712 0.114251 0
M  V30 52 H -3.152186 -3.484616 -1.881407 0
M  V30 53 H -5.583463 -2.834553 -2.859915 0
M  V30 54 H -6.095366 -4.324156 -1.932509 0
M  V30 55 H -4.275341 -4.067907 -4.304283 0
M  V30 56 H -5.555233 -5.308807 -4.022991 0
M  V30 57 H -3.688878 -6.579388 -3.598614 0
M  V30 58 H -2.713899 -5.143050 -3.064974 0
M  V30 59 H -3.208299 -5.065120 -0.002800 0
M  V30 60 H -5.004690 -5.161027 -0.220685 0
M  V30 61 H 2.648933 1.172200 1.664496 0
M  V30 62 H 2.966964 -0.265336 5.015209 0
M  V30 63 H 2.482329 -1.193831 2.353241 0
M  V30 64 H 1.129828 -0.162545 2.959025 0
M  V30 65 H 1.649086 -1.595584 3.860790 0
M  V30 66 H 1.402088 1.609484 3.993054 0
M  V30 67 H 2.559097 1.867632 5.305580 0
M  V30 68 H 3.065171 2.353784 3.704671 0
M  V30 END ATOM
M  V30 BEGIN BOND
M  V30 1 1 1 2
M  V30 2 2 2 3
M  V30 3 1 3 4
M  V30 4 2 4 5
M  V30 5 1 5 6
M  V30 6 2 6 7
M  V30 7 1 7 8
M  V30 8 2 8 9
M  V30 9 1 9 10
M  V30 10 1 10 11
M  V30 11 3 11 12
M  V30 12 1 12 13
M  V30 13 1 13 14
M  V30 14 1 14 15
M  V30 15 2 15 16
M  V30 16 1 15 17
M  V30 17 2 17 18
M  V30 18 1 18 19
M  V30 19 2 19 20
M  V30 20 1 20 21
M  V30 21 1 21 22
M  V30 22 1 22 23
M  V30 23 1 23 24
M  V30 24 1 24 25
M  V30 25 1 25 26
M  V30 26 1 26 27
M  V30 27 1 27 28
M  V30 28 1 21 29
M  V30 29 2 29 30
M  V30 30 2 10 31
M  V30 31 1 31 32
M  V30 32 2 32 33
M  V30 33 1 33 34
M  V30 34 1 34 35
M  V30 35 1 35 36
M  V30 36 1 35 37
M  V30 37 1 34 2
M  V30 38 1 33 4
M  V30 39 1 32 7
M  V30 40 1 29 17
M  V30 41 1 28 23
M  V30 42 1 1 38
M  V30 43 1 1 39
M  V30 44 1 1 40
M  V30 45 1 5 41
M  V30 46 1 8 42
M  V30 47 1 9 43
M  V30 48 1 13 44
M  V30 49 1 13 45
M  V30 50 1 14 46
M  V30 51 1 18 47
M  V30 52 1 19 48
M  V30 53 1 20 49
M  V30 54 1 22 50
M  V30 55 1 22 51
M  V30 56 1 23 52
M  V30 57 1 24 53
M  V30 58 1 24 54
M  V30 59 1 25 55
M  V30 60 1 25 56
M  V30 61 1 26 57
M  V30 62 1 26 58
M  V30 63 1 28 59
M  V30 64 1 28 60
M  V30 65 1 31 61
M  V30 66 1 35 62
M  V30 67 1 36 63
M  V30 68 1 36 64
M  V30 69 1 36 65
M  V30 70 1 37 66
M  V30 71 1 37 67
M  V30 72 1 37 68
M  V30 END BOND
M  V30 END CTAB
M  END
>  <Dataset>  (337) 
ChEMBL_Kinases

>  <Ligand_Instance>  (337) 
nan

>  <PDB_ID>  (337) 
nan

>  <Standardized_SMILES>  (337) 
Cc1nc2cnc3ccc(C#CCNC(=O)c4cccn(CC5CCCOC5)c4=O)cc3c2n1C(C)C

>  <Name>  (337) 
nan

>  <Pocket>  (337) 
nan

>  <ATP_Site>  (337) 
nan

>  <Peripheral>  (337) 
nan

>  <Num_H_Atoms_ProtBoundConf>  (337) 
nan

>  <Num_Resolved_Atoms>  (337) 
nan

>  <Num_Not_Resolved_Atoms>  (337) 
nan

$$$$
CHEMBL3644722
     RDKit          3D

  0  0  0  0  0  0  0  0  0  0999 V3000
M  V30 BEGIN CTAB
M  V30 COUNTS 69 73 0 0 0
M  V30 BEGIN ATOM
M  V30 1 C 0.574552 -0.322202 6.767628 0
M  V30 2 C 1.570787 0.294577 5.833202 0
M  V30 3 N 2.815608 0.536074 6.335540 0
M  V30 4 C 3.517847 1.077681 5.346155 0
M  V30 5 C 4.823901 1.498000 5.351763 0
M  V30 6 N 5.327214 2.021794 4.220249 0
M  V30 7 C 4.518735 2.109471 3.126695 0
M  V30 8 C 5.103381 2.649985 2.024407 0
M  V30 9 C 4.321604 2.757862 0.893886 0
M  V30 10 C 2.994269 2.338711 0.862010 0
M  V30 11 C 2.302903 2.509327 -0.384151 0
M  V30 12 C 1.737430 2.650944 -1.434561 0
M  V30 13 C 1.061563 2.817157 -2.741816 0
M  V30 14 N 0.365005 1.594358 -3.109564 0
M  V30 15 C -0.596068 1.299184 -2.130516 0
M  V30 16 O -0.556071 2.202369 -1.222851 0
M  V30 17 C -1.523243 0.192150 -2.061024 0
M  V30 18 C -2.366252 0.187118 -0.941224 0
M  V30 19 C -3.298699 -0.804200 -0.747871 0
M  V30 20 C -3.389663 -1.804517 -1.686826 0
M  V30 21 N -2.593654 -1.839618 -2.785889 0
M  V30 22 C -2.757370 -2.902378 -3.691428 0 CFG=1
M  V30 23 C -1.661017 -3.308527 -4.580677 0
M  V30 24 N -0.441440 -3.748149 -3.997072 0
M  V30 25 C -3.206395 -4.099135 -2.901203 0
M  V30 26 C -4.512561 -4.575165 -2.940193 0
M  V30 27 C -4.921188 -5.666091 -2.205625 0
M  V30 28 C -4.037345 -6.338786 -1.390468 0
M  V30 29 F -4.390760 -7.416677 -0.649213 0
M  V30 30 C -2.736445 -5.883952 -1.336313 0
M  V30 31 F -1.862081 -6.554026 -0.526151 0
M  V30 32 C -2.349854 -4.797726 -2.074140 0
M  V30 33 C -1.718382 -0.863280 -2.918971 0
M  V30 34 O -0.974785 -0.860686 -3.909740 0
M  V30 35 C 2.478468 1.801395 2.024262 0
M  V30 36 C 3.232153 1.683457 3.158164 0
M  V30 37 C 2.652572 1.139674 4.275457 0
M  V30 38 N 1.423735 0.668733 4.508668 0
M  V30 39 C 0.227354 0.522322 3.746550 0
M  V30 40 C -0.561042 1.748121 3.434228 0
M  V30 41 C 0.135531 -0.623567 2.784134 0
M  V30 42 H 0.735391 0.038119 7.806086 0
M  V30 43 H -0.467332 -0.135989 6.499042 0
M  V30 44 H 0.705663 -1.434359 6.831696 0
M  V30 45 H 5.429102 1.408136 6.244784 0
M  V30 46 H 6.130856 2.985432 2.013517 0
M  V30 47 H 4.787199 3.187832 0.017289 0
M  V30 48 H 0.343176 3.639158 -2.635100 0
M  V30 49 H 1.806664 3.031018 -3.532167 0
M  V30 50 H 0.440936 0.935430 -3.913652 0
M  V30 51 H -2.310760 0.968935 -0.186514 0
M  V30 52 H -3.928698 -0.775875 0.123090 0
M  V30 53 H -4.152477 -2.560504 -1.469867 0
M  V30 54 H -3.638901 -2.663825 -4.359329 0
M  V30 55 H -1.466406 -2.579968 -5.424976 0
M  V30 56 H -2.058022 -4.200355 -5.159239 0
M  V30 57 H -0.272868 -4.775283 -4.080045 0
M  V30 58 H 0.406248 -3.188363 -4.230916 0
M  V30 59 H -5.221371 -4.061564 -3.572532 0
M  V30 60 H -5.932728 -6.044706 -2.228521 0
M  V30 61 H -1.317833 -4.520803 -1.956263 0
M  V30 62 H 1.473833 1.537057 1.837662 0
M  V30 63 H -0.494716 0.071990 4.537242 0
M  V30 64 H -0.852099 1.846066 2.348434 0
M  V30 65 H -1.510386 1.898837 3.973808 0
M  V30 66 H 0.074516 2.626580 3.753739 0
M  V30 67 H 0.261555 -1.599593 3.345702 0
M  V30 68 H 0.811681 -0.685893 1.962144 0
M  V30 69 H -0.903680 -0.645070 2.433702 0
M  V30 END ATOM
M  V30 BEGIN BOND
M  V30 1 1 1 2
M  V30 2 2 2 3
M  V30 3 1 3 4
M  V30 4 2 4 5
M  V30 5 1 5 6
M  V30 6 2 6 7
M  V30 7 1 7 8
M  V30 8 2 8 9
M  V30 9 1 9 10
M  V30 10 1 10 11
M  V30 11 3 11 12
M  V30 12 1 12 13
M  V30 13 1 13 14
M  V30 14 1 14 15
M  V30 15 2 15 16
M  V30 16 1 15 17
M  V30 17 2 17 18
M  V30 18 1 18 19
M  V30 19 2 19 20
M  V30 20 1 20 21
M  V30 21 1 21 22
M  V30 22 1 22 23
M  V30 23 1 23 24
M  V30 24 1 22 25
M  V30 25 2 25 26
M  V30 26 1 26 27
M  V30 27 2 27 28
M  V30 28 1 28 29
M  V30 29 1 28 30
M  V30 30 1 30 31
M  V30 31 2 30 32
M  V30 32 1 21 33
M  V30 33 2 33 34
M  V30 34 2 10 35
M  V30 35 1 35 36
M  V30 36 2 36 37
M  V30 37 1 37 38
M  V30 38 1 38 39
M  V30 39 1 39 40
M  V30 40 1 39 41
M  V30 41 1 38 2
M  V30 42 1 37 4
M  V30 43 1 36 7
M  V30 44 1 33 17
M  V30 45 1 32 25
M  V30 46 1 1 42
M  V30 47 1 1 43
M  V30 48 1 1 44
M  V30 49 1 5 45
M  V30 50 1 8 46
M  V30 51 1 9 47
M  V30 52 1 13 48
M  V30 53 1 13 49
M  V30 54 1 14 50
M  V30 55 1 18 51
M  V30 56 1 19 52
M  V30 57 1 20 53
M  V30 58 1 22 54 CFG=3
M  V30 59 1 23 55
M  V30 60 1 23 56
M  V30 61 1 24 57
M  V30 62 1 24 58
M  V30 63 1 26 59
M  V30 64 1 27 60
M  V30 65 1 32 61
M  V30 66 1 35 62
M  V30 67 1 39 63
M  V30 68 1 40 64
M  V30 69 1 40 65
M  V30 70 1 40 66
M  V30 71 1 41 67
M  V30 72 1 41 68
M  V30 73 1 41 69
M  V30 END BOND
M  V30 END CTAB
M  END
>  <Dataset>  (338) 
ChEMBL_Kinases

>  <Ligand_Instance>  (338) 
nan

>  <PDB_ID>  (338) 
nan

>  <Standardized_SMILES>  (338) 
Cc1nc2cnc3ccc(C#CCNC(=O)c4cccn([C@@H](CN)c5ccc(F)c(F)c5)c4=O)cc3c2n1C(C)C

>  <Name>  (338) 
nan

>  <Pocket>  (338) 
nan

>  <ATP_Site>  (338) 
nan

>  <Peripheral>  (338) 
nan

>  <Num_H_Atoms_ProtBoundConf>  (338) 
nan

>  <Num_Resolved_Atoms>  (338) 
nan

>  <Num_Not_Resolved_Atoms>  (338) 
nan

$$$$
CHEMBL3644723
     RDKit          3D

  0  0  0  0  0  0  0  0  0  0999 V3000
M  V30 BEGIN CTAB
M  V30 COUNTS 79 84 0 0 0
M  V30 BEGIN ATOM
M  V30 1 C 4.334734 -4.845076 -0.193319 0
M  V30 2 C 4.237505 -3.932716 -1.382865 0
M  V30 3 N 4.863707 -4.250268 -2.515636 0
M  V30 4 C 4.599923 -3.281655 -3.392219 0
M  V30 5 C 5.007473 -3.120202 -4.694083 0
M  V30 6 N 4.592385 -2.009659 -5.378264 0
M  V30 7 C 3.800651 -1.104920 -4.774292 0
M  V30 8 C 3.386631 -0.011051 -5.507389 0
M  V30 9 C 2.555671 0.931787 -4.939044 0
M  V30 10 C 2.120171 0.807364 -3.633251 0
M  V30 11 C 1.218064 1.721060 -2.953245 0
M  V30 12 C 0.472428 2.452164 -2.386272 0
M  V30 13 C -0.477921 3.360637 -1.647132 0
M  V30 14 N -1.497885 2.581118 -1.078065 0
M  V30 15 C -2.607527 2.503861 -0.309078 0
M  V30 16 O -2.848790 3.695863 0.131551 0
M  V30 17 C -3.614934 1.725936 0.234808 0
M  V30 18 C -3.251947 0.549078 -0.672436 0
M  V30 19 C -3.809178 -0.769587 -0.805489 0
M  V30 20 C -4.893247 -1.054987 0.048384 0
M  V30 21 N -5.269027 -0.051579 0.886066 0
M  V30 22 C -6.317412 -0.165666 1.857172 0
M  V30 23 C -5.750053 -0.803721 3.099119 0
M  V30 24 C -5.746099 -2.195776 3.021787 0
M  V30 25 C -5.281080 -3.032618 3.994714 0
M  V30 26 C -4.772929 -2.453447 5.148017 0
M  V30 27 F -4.290610 -3.229909 6.159365 0
M  V30 28 C -4.770576 -1.098182 5.236265 0
M  V30 29 F -4.282487 -0.467753 6.345928 0
M  V30 30 C -5.235222 -0.219692 4.265610 0
M  V30 31 C -4.538937 1.003982 0.731143 0
M  V30 32 O -4.810586 2.061425 1.494337 0
M  V30 33 C 2.596147 -0.338906 -2.970876 0
M  V30 34 C 3.419031 -1.314491 -3.460020 0
M  V30 35 C 3.796471 -2.398425 -2.715880 0
M  V30 36 N 3.522984 -2.739200 -1.435734 0
M  V30 37 C 2.773654 -2.102759 -0.375082 0
M  V30 38 C 3.412939 -0.942518 0.325759 0
M  V30 39 C 2.784452 -0.892342 1.716918 0
M  V30 40 N 1.402530 -0.676064 1.592654 0
M  V30 41 C 0.877018 0.535844 2.129608 0
M  V30 42 C 1.403960 1.804184 1.532503 0
M  V30 43 C 1.157749 0.571094 3.628063 0
M  V30 44 C 0.734827 -1.036186 0.406761 0
M  V30 45 C 1.310307 -2.199943 -0.359176 0
M  V30 46 H 4.443845 -5.887659 -0.569115 0
M  V30 47 H 5.101884 -4.537231 0.498087 0
M  V30 48 H 3.344725 -4.848925 0.321995 0
M  V30 49 H 5.638864 -3.872363 -5.139433 0
M  V30 50 H 3.729943 0.094377 -6.543140 0
M  V30 51 H 2.210986 1.804848 -5.479516 0
M  V30 52 H -0.862081 4.045570 -2.450001 0
M  V30 53 H 0.101761 4.010102 -0.934997 0
M  V30 54 H -1.290201 1.580772 -1.376106 0
M  V30 55 H -2.503117 0.285871 -1.508331 0
M  V30 56 H -3.646646 -1.673749 -1.395325 0
M  V30 57 H -5.469392 -1.954211 0.124056 0
M  V30 58 H -7.132594 -0.785571 1.481136 0
M  V30 59 H -6.704813 0.835005 2.186891 0
M  V30 60 H -6.130723 -2.801373 2.173869 0
M  V30 61 H -5.264732 -4.113063 3.957783 0
M  V30 62 H -5.279895 0.833556 4.230271 0
M  V30 63 H 2.192045 -0.363196 -1.995581 0
M  V30 64 H 3.017611 -2.876051 0.472289 0
M  V30 65 H 3.277911 0.055609 -0.040664 0
M  V30 66 H 4.506089 -1.155646 0.400510 0
M  V30 67 H 2.939719 -1.943179 2.135737 0
M  V30 68 H 3.330801 -0.238764 2.397700 0
M  V30 69 H -0.220241 0.547595 1.982515 0
M  V30 70 H 0.942648 2.636036 2.144805 0
M  V30 71 H 2.479811 1.932704 1.604772 0
M  V30 72 H 1.111747 2.026611 0.509172 0
M  V30 73 H 2.001580 -0.071700 3.919086 0
M  V30 74 H 0.245439 0.177895 4.154466 0
M  V30 75 H 1.358233 1.594483 3.959063 0
M  V30 76 H -0.314033 -1.348305 0.715626 0
M  V30 77 H 0.554347 -0.152748 -0.235541 0
M  V30 78 H 0.873087 -3.111804 0.146032 0
M  V30 79 H 0.820880 -2.267879 -1.351999 0
M  V30 END ATOM
M  V30 BEGIN BOND
M  V30 1 1 1 2
M  V30 2 2 2 3
M  V30 3 1 3 4
M  V30 4 2 4 5
M  V30 5 1 5 6
M  V30 6 2 6 7
M  V30 7 1 7 8
M  V30 8 2 8 9
M  V30 9 1 9 10
M  V30 10 1 10 11
M  V30 11 3 11 12
M  V30 12 1 12 13
M  V30 13 1 13 14
M  V30 14 1 14 15
M  V30 15 2 15 16
M  V30 16 1 15 17
M  V30 17 2 17 18
M  V30 18 1 18 19
M  V30 19 2 19 20
M  V30 20 1 20 21
M  V30 21 1 21 22
M  V30 22 1 22 23
M  V30 23 2 23 24
M  V30 24 1 24 25
M  V30 25 2 25 26
M  V30 26 1 26 27
M  V30 27 1 26 28
M  V30 28 1 28 29
M  V30 29 2 28 30
M  V30 30 1 21 31
M  V30 31 2 31 32
M  V30 32 2 10 33
M  V30 33 1 33 34
M  V30 34 2 34 35
M  V30 35 1 35 36
M  V30 36 1 36 37
M  V30 37 1 37 38
M  V30 38 1 38 39
M  V30 39 1 39 40
M  V30 40 1 40 41
M  V30 41 1 41 42
M  V30 42 1 41 43
M  V30 43 1 40 44
M  V30 44 1 44 45
M  V30 45 1 36 2
M  V30 46 1 45 37
M  V30 47 1 35 4
M  V30 48 1 34 7
M  V30 49 1 31 17
M  V30 50 1 30 23
M  V30 51 1 1 46
M  V30 52 1 1 47
M  V30 53 1 1 48
M  V30 54 1 5 49
M  V30 55 1 8 50
M  V30 56 1 9 51
M  V30 57 1 13 52
M  V30 58 1 13 53
M  V30 59 1 14 54
M  V30 60 1 18 55
M  V30 61 1 19 56
M  V30 62 1 20 57
M  V30 63 1 22 58
M  V30 64 1 22 59
M  V30 65 1 24 60
M  V30 66 1 25 61
M  V30 67 1 30 62
M  V30 68 1 33 63
M  V30 69 1 37 64
M  V30 70 1 38 65
M  V30 71 1 38 66
M  V30 72 1 39 67
M  V30 73 1 39 68
M  V30 74 1 41 69
M  V30 75 1 42 70
M  V30 76 1 42 71
M  V30 77 1 42 72
M  V30 78 1 43 73
M  V30 79 1 43 74
M  V30 80 1 43 75
M  V30 81 1 44 76
M  V30 82 1 44 77
M  V30 83 1 45 78
M  V30 84 1 45 79
M  V30 END BOND
M  V30 END CTAB
M  END
>  <Dataset>  (339) 
ChEMBL_Kinases

>  <Ligand_Instance>  (339) 
nan

>  <PDB_ID>  (339) 
nan

>  <Standardized_SMILES>  (339) 
Cc1nc2cnc3ccc(C#CCNC(=O)c4cccn(Cc5ccc(F)c(F)c5)c4=O)cc3c2n1C1CCN(C(C)C)CC1

>  <Name>  (339) 
nan

>  <Pocket>  (339) 
nan

>  <ATP_Site>  (339) 
nan

>  <Peripheral>  (339) 
nan

>  <Num_H_Atoms_ProtBoundConf>  (339) 
nan

>  <Num_Resolved_Atoms>  (339) 
nan

>  <Num_Not_Resolved_Atoms>  (339) 
nan

$$$$
CHEMBL3644724
     RDKit          3D

  0  0  0  0  0  0  0  0  0  0999 V3000
M  V30 BEGIN CTAB
M  V30 COUNTS 82 87 0 0 0
M  V30 BEGIN ATOM
M  V30 1 C 4.271144 -5.158827 3.213202 0
M  V30 2 C 4.811020 -3.906264 2.561732 0
M  V30 3 N 6.128453 -3.851648 2.563696 0
M  V30 4 C 6.497188 -2.692432 2.020256 0
M  V30 5 C 7.764500 -2.148168 1.798759 0
M  V30 6 N 7.872014 -0.922956 1.233525 0
M  V30 7 C 6.733194 -0.247456 0.895985 0
M  V30 8 C 6.880976 0.999167 0.367407 0
M  V30 9 C 5.740511 1.707729 0.062750 0
M  V30 10 C 4.489119 1.180883 0.283480 0
M  V30 11 C 3.290325 1.961267 -0.008759 0
M  V30 12 C 2.301590 2.606721 -0.228646 0
M  V30 13 C 1.071562 3.397147 -0.476565 0
M  V30 14 N -0.052618 2.530757 -0.303953 0
M  V30 15 C -1.347452 2.839756 -0.436705 0
M  V30 16 O -1.760579 3.990936 -0.767041 0
M  V30 17 C -2.736323 2.666304 -0.439584 0
M  V30 18 C -2.439790 1.209713 -0.100369 0
M  V30 19 C -3.292979 0.067021 0.141106 0
M  V30 20 C -4.681721 0.341449 0.045549 0
M  V30 21 N -5.004657 1.633297 -0.256280 0
M  V30 22 C -6.335977 2.218611 -0.409692 0 CFG=1
M  V30 23 C -6.436507 2.699959 -1.825900 0
M  V30 24 C -7.331760 1.120176 -0.230068 0
M  V30 25 C -7.937326 0.412769 -1.258709 0
M  V30 26 C -8.839857 -0.609704 -0.984902 0
M  V30 27 C -9.142493 -0.932575 0.341767 0
M  V30 28 F -10.027431 -1.947075 0.439078 0
M  V30 29 C -8.518319 -0.204370 1.322679 0
M  V30 30 F -8.903432 -0.623905 2.566173 0
M  V30 31 C -7.627562 0.806898 1.089026 0
M  V30 32 C -3.958882 2.375878 -0.401629 0
M  V30 33 O -4.160815 3.658369 -0.697066 0
M  V30 34 C 4.482429 -0.085961 0.819132 0
M  V30 35 C 5.553374 -0.847333 1.144128 0
M  V30 36 C 5.319471 -2.064750 1.697726 0
M  V30 37 N 4.232186 -2.759479 2.000360 0
M  V30 38 C 2.861659 -2.691080 1.878739 0
M  V30 39 C 2.311283 -3.906206 1.042092 0
M  V30 40 C 1.947141 -3.582028 -0.344365 0
M  V30 41 N 1.930743 -2.160220 -0.573379 0
M  V30 42 C 1.283817 -1.847771 -1.828932 0
M  V30 43 C 1.902346 -2.700270 -2.936390 0
M  V30 44 C 1.490898 -0.416117 -2.231915 0
M  V30 45 C 1.143123 -1.499295 0.471946 0
M  V30 46 C 1.796556 -1.780373 1.842908 0
M  V30 47 H 4.461849 -5.988298 2.513808 0
M  V30 48 H 4.765230 -5.334241 4.203061 0
M  V30 49 H 3.174642 -5.082067 3.359758 0
M  V30 50 H 8.600311 -2.759971 2.102917 0
M  V30 51 H 7.866192 1.395517 0.200778 0
M  V30 52 H 5.809558 2.718211 -0.371046 0
M  V30 53 H 0.975396 4.216544 0.254011 0
M  V30 54 H 1.145139 3.814994 -1.487884 0
M  V30 55 H -0.030541 1.536604 -0.043786 0
M  V30 56 H -1.557196 0.465690 0.080212 0
M  V30 57 H -3.315789 -1.008503 0.387320 0
M  V30 58 H -5.583687 -0.241450 0.159145 0
M  V30 59 H -6.544538 2.990832 0.336778 0
M  V30 60 H -7.509538 2.691876 -2.123881 0
M  V30 61 H -6.067054 3.741721 -1.979451 0
M  V30 62 H -5.878143 1.993071 -2.484985 0
M  V30 63 H -7.694057 0.679465 -2.264275 0
M  V30 64 H -9.256647 -1.100627 -1.879886 0
M  V30 65 H -7.263872 1.244998 2.010262 0
M  V30 66 H 3.492980 -0.372866 0.936981 0
M  V30 67 H 2.572099 -3.214833 2.943871 0
M  V30 68 H 3.126968 -4.667624 1.110390 0
M  V30 69 H 1.401017 -4.244266 1.569788 0
M  V30 70 H 0.910120 -3.939396 -0.551275 0
M  V30 71 H 2.562269 -4.075959 -1.121535 0
M  V30 72 H 0.227761 -2.072004 -1.775656 0
M  V30 73 H 2.999411 -2.806579 -2.830131 0
M  V30 74 H 1.495660 -3.744395 -2.839473 0
M  V30 75 H 1.605369 -2.372307 -3.948244 0
M  V30 76 H 1.560475 -0.367522 -3.336365 0
M  V30 77 H 2.457367 -0.009821 -1.865513 0
M  V30 78 H 0.601582 0.143666 -1.869336 0
M  V30 79 H 0.128983 -1.825617 0.336732 0
M  V30 80 H 1.230182 -0.421829 0.289268 0
M  V30 81 H 0.857437 -2.215366 2.350140 0
M  V30 82 H 1.796543 -0.865355 2.498872 0
M  V30 END ATOM
M  V30 BEGIN BOND
M  V30 1 1 1 2
M  V30 2 2 2 3
M  V30 3 1 3 4
M  V30 4 2 4 5
M  V30 5 1 5 6
M  V30 6 2 6 7
M  V30 7 1 7 8
M  V30 8 2 8 9
M  V30 9 1 9 10
M  V30 10 1 10 11
M  V30 11 3 11 12
M  V30 12 1 12 13
M  V30 13 1 13 14
M  V30 14 1 14 15
M  V30 15 2 15 16
M  V30 16 1 15 17
M  V30 17 2 17 18
M  V30 18 1 18 19
M  V30 19 2 19 20
M  V30 20 1 20 21
M  V30 21 1 21 22
M  V30 22 1 22 23
M  V30 23 1 22 24
M  V30 24 2 24 25
M  V30 25 1 25 26
M  V30 26 2 26 27
M  V30 27 1 27 28
M  V30 28 1 27 29
M  V30 29 1 29 30
M  V30 30 2 29 31
M  V30 31 1 21 32
M  V30 32 2 32 33
M  V30 33 2 10 34
M  V30 34 1 34 35
M  V30 35 2 35 36
M  V30 36 1 36 37
M  V30 37 1 37 38
M  V30 38 1 38 39
M  V30 39 1 39 40
M  V30 40 1 40 41
M  V30 41 1 41 42
M  V30 42 1 42 43
M  V30 43 1 42 44
M  V30 44 1 41 45
M  V30 45 1 45 46
M  V30 46 1 37 2
M  V30 47 1 46 38
M  V30 48 1 36 4
M  V30 49 1 35 7
M  V30 50 1 32 17
M  V30 51 1 31 24
M  V30 52 1 1 47
M  V30 53 1 1 48
M  V30 54 1 1 49
M  V30 55 1 5 50
M  V30 56 1 8 51
M  V30 57 1 9 52
M  V30 58 1 13 53
M  V30 59 1 13 54
M  V30 60 1 14 55
M  V30 61 1 18 56
M  V30 62 1 19 57
M  V30 63 1 20 58
M  V30 64 1 22 59 CFG=1
M  V30 65 1 23 60
M  V30 66 1 23 61
M  V30 67 1 23 62
M  V30 68 1 25 63
M  V30 69 1 26 64
M  V30 70 1 31 65
M  V30 71 1 34 66
M  V30 72 1 38 67
M  V30 73 1 39 68
M  V30 74 1 39 69
M  V30 75 1 40 70
M  V30 76 1 40 71
M  V30 77 1 42 72
M  V30 78 1 43 73
M  V30 79 1 43 74
M  V30 80 1 43 75
M  V30 81 1 44 76
M  V30 82 1 44 77
M  V30 83 1 44 78
M  V30 84 1 45 79
M  V30 85 1 45 80
M  V30 86 1 46 81
M  V30 87 1 46 82
M  V30 END BOND
M  V30 END CTAB
M  END
>  <Dataset>  (340) 
ChEMBL_Kinases

>  <Ligand_Instance>  (340) 
nan

>  <PDB_ID>  (340) 
nan

>  <Standardized_SMILES>  (340) 
Cc1nc2cnc3ccc(C#CCNC(=O)c4cccn([C@@H](C)c5ccc(F)c(F)c5)c4=O)cc3c2n1C1CCN(C(C)C)CC1

>  <Name>  (340) 
nan

>  <Pocket>  (340) 
nan

>  <ATP_Site>  (340) 
nan

>  <Peripheral>  (340) 
nan

>  <Num_H_Atoms_ProtBoundConf>  (340) 
nan

>  <Num_Resolved_Atoms>  (340) 
nan

>  <Num_Not_Resolved_Atoms>  (340) 
nan

$$$$
CHEMBL3644716
     RDKit          3D

  0  0  0  0  0  0  0  0  0  0999 V3000
M  V30 BEGIN CTAB
M  V30 COUNTS 68 72 0 0 0
M  V30 BEGIN ATOM
M  V30 1 C 5.131838 -0.724710 5.528614 0
M  V30 2 C 5.299217 -0.306273 4.089922 0
M  V30 3 N 6.546754 -0.352473 3.528513 0
M  V30 4 C 6.408149 0.057366 2.278314 0
M  V30 5 C 7.370887 0.185863 1.311101 0
M  V30 6 N 6.995197 0.625443 0.097282 0
M  V30 7 C 5.677024 0.920803 -0.110192 0
M  V30 8 C 5.379688 1.361641 -1.379426 0
M  V30 9 C 4.056406 1.664273 -1.614544 0
M  V30 10 C 3.065123 1.541722 -0.651361 0
M  V30 11 C 1.737706 1.899120 -1.062570 0
M  V30 12 C 0.622370 2.208993 -1.389143 0
M  V30 13 C -0.752018 2.606915 -1.771289 0
M  V30 14 N -1.704611 1.594914 -1.422706 0
M  V30 15 C -3.096139 1.702944 -1.669415 0
M  V30 16 O -3.326432 2.818230 -2.232696 0
M  V30 17 C -4.128745 0.735172 -1.353631 0
M  V30 18 C -5.414046 1.130911 -1.721392 0
M  V30 19 C -6.512704 0.334526 -1.496034 0
M  V30 20 C -6.364398 -0.886708 -0.894587 0
M  V30 21 N -5.126332 -1.260130 -0.544185 0
M  V30 22 C -5.008439 -2.552013 0.075472 0
M  V30 23 C -4.831134 -3.680334 -0.875729 0
M  V30 24 C -3.598439 -3.530535 -1.711029 0
M  V30 25 C -3.479229 -4.701349 -2.671895 0
M  V30 26 O -3.723537 -5.894427 -2.028438 0
M  V30 27 C -3.642112 -5.800057 -0.649565 0
M  V30 28 C -4.762735 -4.964537 -0.067069 0
M  V30 29 C -4.057205 -0.492695 -0.759565 0
M  V30 30 O -2.897549 -0.839548 -0.431177 0
M  V30 31 C 3.457019 1.092136 0.592793 0
M  V30 32 C 4.755595 0.779471 0.875248 0
M  V30 33 C 5.066790 0.338667 2.130847 0
M  V30 34 N 4.322836 0.134206 3.219456 0
M  V30 35 C 2.941845 0.278095 3.560110 0
M  V30 36 C 1.989173 -0.725514 2.997506 0
M  V30 37 C 2.418138 1.687419 3.714013 0
M  V30 38 H 4.188236 -1.329993 5.568190 0
M  V30 39 H 5.991512 -1.308205 5.860316 0
M  V30 40 H 5.038075 0.172604 6.163589 0
M  V30 41 H 8.404220 -0.058228 1.514043 0
M  V30 42 H 6.139876 1.461502 -2.136985 0
M  V30 43 H 3.817285 2.011304 -2.610676 0
M  V30 44 H -1.053943 3.562355 -1.291806 0
M  V30 45 H -0.711730 2.807627 -2.862650 0
M  V30 46 H -1.350897 0.730680 -0.961202 0
M  V30 47 H -5.612589 2.090430 -2.205595 0
M  V30 48 H -7.490590 0.665456 -1.789911 0
M  V30 49 H -7.251886 -1.492176 -0.730611 0
M  V30 50 H -4.118636 -2.494668 0.763988 0
M  V30 51 H -5.911560 -2.758406 0.693013 0
M  V30 52 H -5.713120 -3.737473 -1.548141 0
M  V30 53 H -3.695327 -2.619687 -2.342778 0
M  V30 54 H -2.678547 -3.474720 -1.115560 0
M  V30 55 H -2.448507 -4.656314 -3.101395 0
M  V30 56 H -4.239995 -4.559180 -3.470597 0
M  V30 57 H -2.641368 -5.383931 -0.393448 0
M  V30 58 H -3.704848 -6.837839 -0.259740 0
M  V30 59 H -4.483006 -4.734550 0.989060 0
M  V30 60 H -5.692965 -5.534121 -0.166336 0
M  V30 61 H 2.594407 1.054617 1.199181 0
M  V30 62 H 2.925945 -0.048638 4.671293 0
M  V30 63 H 2.460645 -1.182653 2.080889 0
M  V30 64 H 1.055742 -0.245541 2.593636 0
M  V30 65 H 1.689445 -1.548680 3.635709 0
M  V30 66 H 1.347074 1.754686 3.434501 0
M  V30 67 H 2.481695 2.095158 4.742414 0
M  V30 68 H 3.032182 2.430195 3.120826 0
M  V30 END ATOM
M  V30 BEGIN BOND
M  V30 1 1 1 2
M  V30 2 2 2 3
M  V30 3 1 3 4
M  V30 4 2 4 5
M  V30 5 1 5 6
M  V30 6 2 6 7
M  V30 7 1 7 8
M  V30 8 2 8 9
M  V30 9 1 9 10
M  V30 10 1 10 11
M  V30 11 3 11 12
M  V30 12 1 12 13
M  V30 13 1 13 14
M  V30 14 1 14 15
M  V30 15 2 15 16
M  V30 16 1 15 17
M  V30 17 2 17 18
M  V30 18 1 18 19
M  V30 19 2 19 20
M  V30 20 1 20 21
M  V30 21 1 21 22
M  V30 22 1 22 23
M  V30 23 1 23 24
M  V30 24 1 24 25
M  V30 25 1 25 26
M  V30 26 1 26 27
M  V30 27 1 27 28
M  V30 28 1 21 29
M  V30 29 2 29 30
M  V30 30 2 10 31
M  V30 31 1 31 32
M  V30 32 2 32 33
M  V30 33 1 33 34
M  V30 34 1 34 35
M  V30 35 1 35 36
M  V30 36 1 35 37
M  V30 37 1 34 2
M  V30 38 1 33 4
M  V30 39 1 32 7
M  V30 40 1 29 17
M  V30 41 1 28 23
M  V30 42 1 1 38
M  V30 43 1 1 39
M  V30 44 1 1 40
M  V30 45 1 5 41
M  V30 46 1 8 42
M  V30 47 1 9 43
M  V30 48 1 13 44
M  V30 49 1 13 45
M  V30 50 1 14 46
M  V30 51 1 18 47
M  V30 52 1 19 48
M  V30 53 1 20 49
M  V30 54 1 22 50
M  V30 55 1 22 51
M  V30 56 1 23 52
M  V30 57 1 24 53
M  V30 58 1 24 54
M  V30 59 1 25 55
M  V30 60 1 25 56
M  V30 61 1 27 57
M  V30 62 1 27 58
M  V30 63 1 28 59
M  V30 64 1 28 60
M  V30 65 1 31 61
M  V30 66 1 35 62
M  V30 67 1 36 63
M  V30 68 1 36 64
M  V30 69 1 36 65
M  V30 70 1 37 66
M  V30 71 1 37 67
M  V30 72 1 37 68
M  V30 END BOND
M  V30 END CTAB
M  END
>  <Dataset>  (341) 
ChEMBL_Kinases

>  <Ligand_Instance>  (341) 
nan

>  <PDB_ID>  (341) 
nan

>  <Standardized_SMILES>  (341) 
Cc1nc2cnc3ccc(C#CCNC(=O)c4cccn(CC5CCOCC5)c4=O)cc3c2n1C(C)C

>  <Name>  (341) 
nan

>  <Pocket>  (341) 
nan

>  <ATP_Site>  (341) 
nan

>  <Peripheral>  (341) 
nan

>  <Num_H_Atoms_ProtBoundConf>  (341) 
nan

>  <Num_Resolved_Atoms>  (341) 
nan

>  <Num_Not_Resolved_Atoms>  (341) 
nan

$$$$
CHEMBL3644829
     RDKit          3D

  0  0  0  0  0  0  0  0  0  0999 V3000
M  V30 BEGIN CTAB
M  V30 COUNTS 48 50 0 0 0
M  V30 BEGIN ATOM
M  V30 1 C 3.447245 -6.391774 3.082267 0
M  V30 2 C 3.038880 -5.530526 2.344991 0
M  V30 3 C 2.538948 -4.503863 1.486450 0
M  V30 4 C 2.542810 -3.210019 1.970726 0
M  V30 5 C 2.070681 -2.175875 1.183656 0
M  V30 6 C 1.581183 -2.382290 -0.101510 0
M  V30 7 N 1.100299 -1.295835 -0.890916 0
M  V30 8 C 1.173252 -0.009214 -0.238333 0
M  V30 9 C 2.288030 0.790059 -0.350638 0
M  V30 10 C 3.434516 0.293920 -1.170912 0
M  V30 11 C 2.367424 2.028757 0.273211 0
M  V30 12 O 3.392887 2.759017 0.167247 0
M  V30 13 N 1.288310 2.406282 0.997438 0
M  V30 14 C 1.300851 3.701445 1.683821 0
M  V30 15 C 0.196538 1.625485 1.108480 0
M  V30 16 N -0.847550 2.055298 1.843728 0
M  V30 17 C -1.964820 1.317125 1.989903 0
M  V30 18 N -2.109821 0.109401 1.414275 0
M  V30 19 C -3.274719 -0.744371 1.523894 0
M  V30 20 C -4.307045 -0.534597 0.470865 0 CFG=2
M  V30 21 O -3.874587 -0.746680 -0.817434 0
M  V30 22 C -5.059967 0.779006 0.615202 0
M  V30 23 O -4.229082 1.838452 0.256347 0
M  V30 24 C -1.068938 -0.357381 0.660864 0
M  V30 25 O -1.102763 -1.485162 0.074242 0
M  V30 26 C 0.080914 0.390502 0.504155 0
M  V30 27 C 1.588244 -3.686267 -0.562520 0
M  V30 28 F 1.125538 -3.967231 -1.808846 0
M  V30 29 C 2.058368 -4.738137 0.213095 0
M  V30 30 H 3.823300 -7.151938 3.742722 0
M  V30 31 H 2.917816 -2.987985 2.978734 0
M  V30 32 H 2.098880 -1.178505 1.619251 0
M  V30 33 H 0.748979 -1.515608 -1.839715 0
M  V30 34 H 4.375509 0.520155 -0.625509 0
M  V30 35 H 3.449912 0.909510 -2.091423 0
M  V30 36 H 3.325337 -0.777169 -1.372008 0
M  V30 37 H 2.335116 4.054974 1.894967 0
M  V30 38 H 0.760348 4.477346 1.125406 0
M  V30 39 H 0.809446 3.612680 2.679111 0
M  V30 40 H -2.790440 1.682474 2.586602 0
M  V30 41 H -3.751277 -0.683915 2.515135 0
M  V30 42 H -2.945052 -1.812850 1.428533 0
M  V30 43 H -5.097362 -1.321285 0.654429 0
M  V30 44 H -3.999024 0.060836 -1.342468 0
M  V30 45 H -5.452193 0.881934 1.641796 0
M  V30 46 H -5.941337 0.811483 -0.053843 0
M  V30 47 H -4.761299 2.669969 0.180896 0
M  V30 48 H 2.061739 -5.754847 -0.151636 0
M  V30 END ATOM
M  V30 BEGIN BOND
M  V30 1 3 1 2
M  V30 2 1 2 3
M  V30 3 2 3 4
M  V30 4 1 4 5
M  V30 5 2 5 6
M  V30 6 1 6 7
M  V30 7 1 7 8
M  V30 8 2 8 9
M  V30 9 1 9 10
M  V30 10 1 9 11
M  V30 11 2 11 12
M  V30 12 1 11 13
M  V30 13 1 13 14
M  V30 14 1 13 15
M  V30 15 1 15 16
M  V30 16 2 16 17
M  V30 17 1 17 18
M  V30 18 1 18 19
M  V30 19 1 19 20
M  V30 20 1 20 21
M  V30 21 1 20 22
M  V30 22 1 22 23
M  V30 23 1 18 24
M  V30 24 2 24 25
M  V30 25 1 24 26
M  V30 26 1 6 27
M  V30 27 1 27 28
M  V30 28 2 27 29
M  V30 29 1 29 3
M  V30 30 1 26 8
M  V30 31 2 26 15
M  V30 32 1 1 30
M  V30 33 1 4 31
M  V30 34 1 5 32
M  V30 35 1 7 33
M  V30 36 1 10 34
M  V30 37 1 10 35
M  V30 38 1 10 36
M  V30 39 1 14 37
M  V30 40 1 14 38
M  V30 41 1 14 39
M  V30 42 1 17 40
M  V30 43 1 19 41
M  V30 44 1 19 42
M  V30 45 1 20 43 CFG=1
M  V30 46 1 21 44
M  V30 47 1 22 45
M  V30 48 1 22 46
M  V30 49 1 23 47
M  V30 50 1 29 48
M  V30 END BOND
M  V30 END CTAB
M  END
>  <Dataset>  (342) 
ChEMBL_Kinases

>  <Ligand_Instance>  (342) 
nan

>  <PDB_ID>  (342) 
nan

>  <Standardized_SMILES>  (342) 
C#Cc1ccc(Nc2c(C)c(=O)n(C)c3ncn(C[C@H](O)CO)c(=O)c23)c(F)c1

>  <Name>  (342) 
nan

>  <Pocket>  (342) 
nan

>  <ATP_Site>  (342) 
nan

>  <Peripheral>  (342) 
nan

>  <Num_H_Atoms_ProtBoundConf>  (342) 
nan

>  <Num_Resolved_Atoms>  (342) 
nan

>  <Num_Not_Resolved_Atoms>  (342) 
nan

$$$$
CHEMBL3644828
     RDKit          3D

  0  0  0  0  0  0  0  0  0  0999 V3000
M  V30 BEGIN CTAB
M  V30 COUNTS 46 48 0 0 0
M  V30 BEGIN ATOM
M  V30 1 C -0.008889 -2.231060 -2.799728 0
M  V30 2 C -0.689336 -1.887398 -1.512321 0
M  V30 3 C 0.043222 -1.458874 -0.399767 0
M  V30 4 N 1.449880 -1.373721 -0.571788 0
M  V30 5 C 1.903452 -0.106919 -1.035750 0
M  V30 6 C 1.049218 0.926934 -1.289091 0
M  V30 7 C 1.435516 2.182600 -1.742484 0
M  V30 8 C 2.799677 2.400339 -1.953844 0
M  V30 9 I 3.354237 4.321108 -2.643646 0
M  V30 10 C 3.706833 1.380974 -1.710695 0
M  V30 11 C 3.236824 0.147653 -1.256101 0
M  V30 12 F 4.167593 -0.811598 -1.035184 0
M  V30 13 C -0.640941 -1.156739 0.758849 0
M  V30 14 C 0.145244 -0.742384 1.810305 0
M  V30 15 O 1.372739 -0.628936 1.783196 0
M  V30 16 N -0.408188 -0.420664 2.989289 0
M  V30 17 C 0.174451 0.033608 4.227172 0
M  V30 18 C 0.192807 -1.172155 5.173727 0
M  V30 19 O 0.967038 -2.146067 4.554774 0
M  V30 20 C 1.611865 0.471140 4.105574 0
M  V30 21 O 1.801828 1.523035 3.217328 0
M  V30 22 C -1.767569 -0.524135 3.089296 0
M  V30 23 N -2.531099 -0.929424 2.059199 0
M  V30 24 C -2.003516 -1.256859 0.870235 0
M  V30 25 N -2.675764 -1.664869 -0.196927 0
M  V30 26 C -4.114858 -1.775605 -0.094942 0
M  V30 27 C -2.077680 -1.977313 -1.360973 0
M  V30 28 O -2.746457 -2.363574 -2.361168 0
M  V30 29 H 0.304171 -1.336994 -3.354087 0
M  V30 30 H 0.925530 -2.821180 -2.590259 0
M  V30 31 H -0.684133 -2.880655 -3.370694 0
M  V30 32 H 2.160766 -2.122157 -0.397854 0
M  V30 33 H -0.011445 0.800648 -1.138933 0
M  V30 34 H 0.711317 2.960384 -1.924733 0
M  V30 35 H 4.749920 1.597016 -1.888642 0
M  V30 36 H -0.454068 0.802973 4.728763 0
M  V30 37 H 0.722878 -0.882206 6.116720 0
M  V30 38 H -0.828040 -1.504362 5.423321 0
M  V30 39 H 0.485072 -2.684751 3.895596 0
M  V30 40 H 1.975423 0.874946 5.097995 0
M  V30 41 H 2.232706 -0.408378 3.924102 0
M  V30 42 H 2.753384 1.539266 2.976765 0
M  V30 43 H -2.372465 -0.302456 3.971509 0
M  V30 44 H -4.418648 -2.809626 -0.387259 0
M  V30 45 H -4.632315 -1.056046 -0.781556 0
M  V30 46 H -4.479885 -1.571985 0.912614 0
M  V30 END ATOM
M  V30 BEGIN BOND
M  V30 1 1 1 2
M  V30 2 2 2 3
M  V30 3 1 3 4
M  V30 4 1 4 5
M  V30 5 2 5 6
M  V30 6 1 6 7
M  V30 7 2 7 8
M  V30 8 1 8 9
M  V30 9 1 8 10
M  V30 10 2 10 11
M  V30 11 1 11 12
M  V30 12 1 3 13
M  V30 13 1 13 14
M  V30 14 2 14 15
M  V30 15 1 14 16
M  V30 16 1 16 17
M  V30 17 1 17 18
M  V30 18 1 18 19
M  V30 19 1 17 20
M  V30 20 1 20 21
M  V30 21 1 16 22
M  V30 22 2 22 23
M  V30 23 1 23 24
M  V30 24 1 24 25
M  V30 25 1 25 26
M  V30 26 1 25 27
M  V30 27 2 27 28
M  V30 28 1 27 2
M  V30 29 1 11 5
M  V30 30 2 24 13
M  V30 31 1 1 29
M  V30 32 1 1 30
M  V30 33 1 1 31
M  V30 34 1 4 32
M  V30 35 1 6 33
M  V30 36 1 7 34
M  V30 37 1 10 35
M  V30 38 1 17 36
M  V30 39 1 18 37
M  V30 40 1 18 38
M  V30 41 1 19 39
M  V30 42 1 20 40
M  V30 43 1 20 41
M  V30 44 1 21 42
M  V30 45 1 22 43
M  V30 46 1 26 44
M  V30 47 1 26 45
M  V30 48 1 26 46
M  V30 END BOND
M  V30 END CTAB
M  END
>  <Dataset>  (343) 
ChEMBL_Kinases

>  <Ligand_Instance>  (343) 
nan

>  <PDB_ID>  (343) 
nan

>  <Standardized_SMILES>  (343) 
Cc1c(Nc2ccc(I)cc2F)c2c(=O)n(C(CO)CO)cnc2n(C)c1=O

>  <Name>  (343) 
nan

>  <Pocket>  (343) 
nan

>  <ATP_Site>  (343) 
nan

>  <Peripheral>  (343) 
nan

>  <Num_H_Atoms_ProtBoundConf>  (343) 
nan

>  <Num_Resolved_Atoms>  (343) 
nan

>  <Num_Not_Resolved_Atoms>  (343) 
nan

$$$$
CHEMBL3644826
     RDKit          3D

  0  0  0  0  0  0  0  0  0  0999 V3000
M  V30 BEGIN CTAB
M  V30 COUNTS 42 44 0 0 0
M  V30 BEGIN ATOM
M  V30 1 C 0.112071 -2.712734 5.338115 0
M  V30 2 C 0.177214 -2.743004 3.828381 0
M  V30 3 O 0.254690 -4.023789 3.310802 0
M  V30 4 C 1.332108 -1.876469 3.327709 0
M  V30 5 N 1.291454 -1.986184 1.868105 0
M  V30 6 C 1.972229 -2.944161 1.216241 0
M  V30 7 N 1.956291 -3.073394 -0.129902 0
M  V30 8 C 1.211162 -2.183415 -0.839687 0
M  V30 9 C 0.499834 -1.186723 -0.196975 0
M  V30 10 C -0.271368 -0.261229 -0.892316 0
M  V30 11 N -1.015267 0.775715 -0.268486 0
M  V30 12 C -0.587903 2.080986 0.035004 0
M  V30 13 C 0.687895 2.453284 -0.286047 0
M  V30 14 C 1.029329 3.764914 0.049996 0
M  V30 15 C 0.130499 4.622782 0.666174 0
M  V30 16 I 0.670063 6.600894 1.164259 0
M  V30 17 C -1.144470 4.187708 0.965075 0
M  V30 18 C -1.524007 2.887993 0.646641 0
M  V30 19 F -2.775983 2.472220 0.944140 0
M  V30 20 C -0.262110 -0.427609 -2.277754 0
M  V30 21 Cl -1.200652 0.681009 -3.282840 0
M  V30 22 C 0.444805 -1.419975 -2.933204 0
M  V30 23 O 0.411120 -1.516167 -4.189947 0
M  V30 24 N 1.176269 -2.286663 -2.173868 0
M  V30 25 C 1.912757 -3.323454 -2.882813 0
M  V30 26 C 0.540245 -1.085611 1.182434 0
M  V30 27 O -0.111040 -0.173481 1.767055 0
M  V30 28 H 0.552428 -3.647784 5.744287 0
M  V30 29 H -0.909065 -2.593928 5.727118 0
M  V30 30 H 0.743740 -1.850437 5.696660 0
M  V30 31 H -0.776774 -2.279519 3.451282 0
M  V30 32 H -0.667624 -4.350049 3.132382 0
M  V30 33 H 1.188086 -0.823453 3.582720 0
M  V30 34 H 2.289649 -2.247616 3.699681 0
M  V30 35 H 2.570667 -3.661843 1.760203 0
M  V30 36 H -1.947765 0.369325 -0.080562 0
M  V30 37 H 1.407824 1.808760 -0.764750 0
M  V30 38 H 2.014781 4.171344 -0.156612 0
M  V30 39 H -1.846255 4.856476 1.445814 0
M  V30 40 H 1.995246 -4.229793 -2.226899 0
M  V30 41 H 2.946551 -2.998173 -3.108663 0
M  V30 42 H 1.386167 -3.619300 -3.827242 0
M  V30 END ATOM
M  V30 BEGIN BOND
M  V30 1 1 1 2
M  V30 2 1 2 3
M  V30 3 1 2 4
M  V30 4 1 4 5
M  V30 5 1 5 6
M  V30 6 2 6 7
M  V30 7 1 7 8
M  V30 8 2 8 9
M  V30 9 1 9 10
M  V30 10 1 10 11
M  V30 11 1 11 12
M  V30 12 2 12 13
M  V30 13 1 13 14
M  V30 14 2 14 15
M  V30 15 1 15 16
M  V30 16 1 15 17
M  V30 17 2 17 18
M  V30 18 1 18 19
M  V30 19 2 10 20
M  V30 20 1 20 21
M  V30 21 1 20 22
M  V30 22 2 22 23
M  V30 23 1 22 24
M  V30 24 1 24 25
M  V30 25 1 9 26
M  V30 26 2 26 27
M  V30 27 1 26 5
M  V30 28 1 24 8
M  V30 29 1 18 12
M  V30 30 1 1 28
M  V30 31 1 1 29
M  V30 32 1 1 30
M  V30 33 1 2 31
M  V30 34 1 3 32
M  V30 35 1 4 33
M  V30 36 1 4 34
M  V30 37 1 6 35
M  V30 38 1 11 36
M  V30 39 1 13 37
M  V30 40 1 14 38
M  V30 41 1 17 39
M  V30 42 1 25 40
M  V30 43 1 25 41
M  V30 44 1 25 42
M  V30 END BOND
M  V30 END CTAB
M  END
>  <Dataset>  (344) 
ChEMBL_Kinases

>  <Ligand_Instance>  (344) 
nan

>  <PDB_ID>  (344) 
nan

>  <Standardized_SMILES>  (344) 
CC(O)Cn1cnc2c(c(Nc3ccc(I)cc3F)c(Cl)c(=O)n2C)c1=O

>  <Name>  (344) 
nan

>  <Pocket>  (344) 
nan

>  <ATP_Site>  (344) 
nan

>  <Peripheral>  (344) 
nan

>  <Num_H_Atoms_ProtBoundConf>  (344) 
nan

>  <Num_Resolved_Atoms>  (344) 
nan

>  <Num_Not_Resolved_Atoms>  (344) 
nan

$$$$
CHEMBL3644822
     RDKit          3D

  0  0  0  0  0  0  0  0  0  0999 V3000
M  V30 BEGIN CTAB
M  V30 COUNTS 42 44 0 0 0
M  V30 BEGIN ATOM
M  V30 1 C 0.057850 -5.318080 0.852611 0
M  V30 2 N 0.557399 -3.995355 0.528982 0
M  V30 3 C 1.590756 -3.838839 -0.325547 0
M  V30 4 O 2.092406 -4.900402 -0.821995 0
M  V30 5 C 2.124436 -2.601807 -0.683915 0
M  V30 6 Cl 3.461965 -2.445820 -1.793297 0
M  V30 7 C 1.568854 -1.463131 -0.136745 0
M  V30 8 N 2.011903 -0.161751 -0.414579 0
M  V30 9 C 1.610003 0.755211 -1.424852 0
M  V30 10 C 0.627937 0.361976 -2.308262 0
M  V30 11 C 0.295116 1.319636 -3.264253 0
M  V30 12 C 0.911879 2.553427 -3.303399 0
M  V30 13 Br 0.418833 3.840834 -4.640568 0
M  V30 14 C 1.890600 2.885993 -2.387293 0
M  V30 15 C 2.267189 1.966432 -1.404316 0
M  V30 16 F 3.216875 2.262153 -0.499147 0
M  V30 17 C 0.502755 -1.653880 0.742757 0
M  V30 18 C -0.067485 -0.521026 1.301758 0
M  V30 19 O 0.348841 0.642399 1.035256 0
M  V30 20 N -1.099359 -0.615051 2.159791 0
M  V30 21 C -1.775155 0.485261 2.814150 0
M  V30 22 C -1.107827 0.746463 4.126217 0
M  V30 23 C 0.340197 1.107098 4.046640 0
M  V30 24 O 0.787587 1.320155 5.357081 0
M  V30 25 C -1.576382 -1.852439 2.470519 0
M  V30 26 N -1.042205 -2.981974 1.941820 0
M  V30 27 C 0.000813 -2.898221 1.074011 0
M  V30 28 H 0.788208 -5.839466 1.536884 0
M  V30 29 H -0.002424 -5.958003 -0.042556 0
M  V30 30 H -0.914958 -5.201397 1.367599 0
M  V30 31 H 2.721749 -0.008244 0.302714 0
M  V30 32 H 0.174878 -0.617221 -2.235622 0
M  V30 33 H -0.464493 1.079499 -3.986088 0
M  V30 34 H 2.402433 3.845186 -2.380843 0
M  V30 35 H -2.846743 0.315074 2.883649 0
M  V30 36 H -1.657690 1.355171 2.105139 0
M  V30 37 H -1.177251 -0.163607 4.761218 0
M  V30 38 H -1.608320 1.549556 4.711239 0
M  V30 39 H 0.975807 0.278402 3.665322 0
M  V30 40 H 0.551510 1.992741 3.419906 0
M  V30 41 H 1.319720 0.569556 5.717842 0
M  V30 42 H -2.413314 -1.989054 3.161884 0
M  V30 END ATOM
M  V30 BEGIN BOND
M  V30 1 1 1 2
M  V30 2 1 2 3
M  V30 3 2 3 4
M  V30 4 1 3 5
M  V30 5 1 5 6
M  V30 6 2 5 7
M  V30 7 1 7 8
M  V30 8 1 8 9
M  V30 9 2 9 10
M  V30 10 1 10 11
M  V30 11 2 11 12
M  V30 12 1 12 13
M  V30 13 1 12 14
M  V30 14 2 14 15
M  V30 15 1 15 16
M  V30 16 1 7 17
M  V30 17 1 17 18
M  V30 18 2 18 19
M  V30 19 1 18 20
M  V30 20 1 20 21
M  V30 21 1 21 22
M  V30 22 1 22 23
M  V30 23 1 23 24
M  V30 24 1 20 25
M  V30 25 2 25 26
M  V30 26 1 26 27
M  V30 27 1 27 2
M  V30 28 1 15 9
M  V30 29 2 27 17
M  V30 30 1 1 28
M  V30 31 1 1 29
M  V30 32 1 1 30
M  V30 33 1 8 31
M  V30 34 1 10 32
M  V30 35 1 11 33
M  V30 36 1 14 34
M  V30 37 1 21 35
M  V30 38 1 21 36
M  V30 39 1 22 37
M  V30 40 1 22 38
M  V30 41 1 23 39
M  V30 42 1 23 40
M  V30 43 1 24 41
M  V30 44 1 25 42
M  V30 END BOND
M  V30 END CTAB
M  END
>  <Dataset>  (345) 
ChEMBL_Kinases

>  <Ligand_Instance>  (345) 
nan

>  <PDB_ID>  (345) 
nan

>  <Standardized_SMILES>  (345) 
Cn1c(=O)c(Cl)c(Nc2ccc(Br)cc2F)c2c(=O)n(CCCO)cnc21

>  <Name>  (345) 
nan

>  <Pocket>  (345) 
nan

>  <ATP_Site>  (345) 
nan

>  <Peripheral>  (345) 
nan

>  <Num_H_Atoms_ProtBoundConf>  (345) 
nan

>  <Num_Resolved_Atoms>  (345) 
nan

>  <Num_Not_Resolved_Atoms>  (345) 
nan

$$$$
CHEMBL3644818
     RDKit          3D

  0  0  0  0  0  0  0  0  0  0999 V3000
M  V30 BEGIN CTAB
M  V30 COUNTS 43 45 0 0 0
M  V30 BEGIN ATOM
M  V30 1 C 1.683708 -4.744912 2.374201 0
M  V30 2 N 1.785348 -3.292668 2.389097 0
M  V30 3 C 2.889949 -2.599671 2.740464 0
M  V30 4 O 3.904209 -3.263820 3.079435 0
M  V30 5 C 2.882499 -1.215923 2.720649 0
M  V30 6 Cl 4.370962 -0.421286 3.195874 0
M  V30 7 C 1.747764 -0.494106 2.341681 0
M  V30 8 N 1.792481 0.915834 2.338538 0
M  V30 9 C 2.175147 1.740966 1.244536 0
M  V30 10 C 2.536611 1.101303 0.076447 0
M  V30 11 C 2.906545 1.943702 -0.976938 0
M  V30 12 C 2.895835 3.327997 -0.812754 0
M  V30 13 Br 3.402500 4.464356 -2.257142 0
M  V30 14 C 2.518284 3.898382 0.398042 0
M  V30 15 C 2.143189 3.103351 1.471735 0
M  V30 16 F 1.768396 3.605788 2.667666 0
M  V30 17 C 0.633508 -1.248052 1.987933 0
M  V30 18 C -0.509405 -0.575228 1.606911 0
M  V30 19 O -0.527349 0.670643 1.585410 0
M  V30 20 N -1.598838 -1.305131 1.260947 0
M  V30 21 C -2.801041 -0.608729 0.860301 0
M  V30 22 C -2.859821 -0.343167 -0.615070 0 CFG=1
M  V30 23 O -1.829912 0.427495 -1.106207 0
M  V30 24 C -2.944023 -1.686779 -1.318323 0
M  V30 25 O -3.161105 -1.435789 -2.687022 0
M  V30 26 C -1.578319 -2.659138 1.284647 0
M  V30 27 N -0.458460 -3.294184 1.657680 0
M  V30 28 C 0.670391 -2.638091 2.017422 0
M  V30 29 H 0.987780 -5.078258 3.163808 0
M  V30 30 H 2.671931 -5.188486 2.573033 0
M  V30 31 H 1.294697 -5.061266 1.373011 0
M  V30 32 H 1.497883 1.271589 3.274865 0
M  V30 33 H 2.523534 0.030501 0.014906 0
M  V30 34 H 3.198806 1.489540 -1.915396 0
M  V30 35 H 2.499031 4.967849 0.558511 0
M  V30 36 H -2.971451 0.319239 1.442652 0
M  V30 37 H -3.653096 -1.283270 1.090720 0
M  V30 38 H -3.802890 0.213054 -0.800864 0
M  V30 39 H -2.085549 1.363126 -1.164214 0
M  V30 40 H -1.999635 -2.207074 -1.152333 0
M  V30 41 H -3.813662 -2.268619 -0.964222 0
M  V30 42 H -2.378297 -1.073856 -3.145214 0
M  V30 43 H -2.433171 -3.246595 1.013367 0
M  V30 END ATOM
M  V30 BEGIN BOND
M  V30 1 1 1 2
M  V30 2 1 2 3
M  V30 3 2 3 4
M  V30 4 1 3 5
M  V30 5 1 5 6
M  V30 6 2 5 7
M  V30 7 1 7 8
M  V30 8 1 8 9
M  V30 9 2 9 10
M  V30 10 1 10 11
M  V30 11 2 11 12
M  V30 12 1 12 13
M  V30 13 1 12 14
M  V30 14 2 14 15
M  V30 15 1 15 16
M  V30 16 1 7 17
M  V30 17 1 17 18
M  V30 18 2 18 19
M  V30 19 1 18 20
M  V30 20 1 20 21
M  V30 21 1 21 22
M  V30 22 1 22 23
M  V30 23 1 22 24
M  V30 24 1 24 25
M  V30 25 1 20 26
M  V30 26 2 26 27
M  V30 27 1 27 28
M  V30 28 1 28 2
M  V30 29 1 15 9
M  V30 30 2 28 17
M  V30 31 1 1 29
M  V30 32 1 1 30
M  V30 33 1 1 31
M  V30 34 1 8 32
M  V30 35 1 10 33
M  V30 36 1 11 34
M  V30 37 1 14 35
M  V30 38 1 21 36
M  V30 39 1 21 37
M  V30 40 1 22 38 CFG=1
M  V30 41 1 23 39
M  V30 42 1 24 40
M  V30 43 1 24 41
M  V30 44 1 25 42
M  V30 45 1 26 43
M  V30 END BOND
M  V30 END CTAB
M  END
>  <Dataset>  (346) 
ChEMBL_Kinases

>  <Ligand_Instance>  (346) 
nan

>  <PDB_ID>  (346) 
nan

>  <Standardized_SMILES>  (346) 
Cn1c(=O)c(Cl)c(Nc2ccc(Br)cc2F)c2c(=O)n(C[C@@H](O)CO)cnc21

>  <Name>  (346) 
nan

>  <Pocket>  (346) 
nan

>  <ATP_Site>  (346) 
nan

>  <Peripheral>  (346) 
nan

>  <Num_H_Atoms_ProtBoundConf>  (346) 
nan

>  <Num_Resolved_Atoms>  (346) 
nan

>  <Num_Not_Resolved_Atoms>  (346) 
nan

$$$$
CHEMBL3644817
     RDKit          3D

  0  0  0  0  0  0  0  0  0  0999 V3000
M  V30 BEGIN CTAB
M  V30 COUNTS 44 46 0 0 0
M  V30 BEGIN ATOM
M  V30 1 C -1.252457 -4.149952 -2.074290 0
M  V30 2 N -0.299618 -3.109385 -1.738999 0
M  V30 3 C 0.670464 -2.833558 -2.622676 0
M  V30 4 O 0.782366 -3.440324 -3.714489 0
M  V30 5 C 1.551695 -1.814841 -2.234739 0
M  V30 6 C 1.487130 -1.086134 -1.020490 0
M  V30 7 N 2.518069 -0.137320 -0.949824 0
M  V30 8 C 2.759405 1.232878 -1.051093 0
M  V30 9 C 3.683359 1.290698 -2.134506 0
M  V30 10 C 4.254222 2.454725 -2.680330 0
M  V30 11 C 3.882911 3.641615 -2.112052 0
M  V30 12 I 4.616752 5.493361 -2.781885 0
M  V30 13 C 3.008567 3.660153 -1.078274 0
M  V30 14 C 2.497243 2.490500 -0.603764 0
M  V30 15 F 1.622281 2.540666 0.408162 0
M  V30 16 C 0.437484 -1.517298 -0.260179 0
M  V30 17 C 0.363575 -0.869724 0.943431 0
M  V30 18 O 1.144787 0.007361 1.284601 0
M  V30 19 N -0.576858 -1.156949 1.851511 0
M  V30 20 O -0.673050 -0.519733 3.064749 0
M  V30 21 C -1.799697 -0.558700 3.881377 0
M  V30 22 C -1.625030 0.241516 5.159074 0 CFG=2
M  V30 23 O -0.573183 -0.227318 5.920023 0
M  V30 24 C -2.880839 0.155943 5.997549 0
M  V30 25 O -3.064706 -1.162905 6.337184 0
M  V30 26 C -1.481539 -2.134667 1.545371 0
M  V30 27 N -1.388968 -2.761405 0.359593 0
M  V30 28 C -0.459873 -2.500329 -0.572842 0
M  V30 29 H -1.429044 -4.737495 -1.145284 0
M  V30 30 H -0.781976 -4.855244 -2.788172 0
M  V30 31 H -2.203832 -3.761501 -2.490691 0
M  V30 32 H 2.323968 -1.640713 -3.006899 0
M  V30 33 H 3.336627 -0.772601 -0.705532 0
M  V30 34 H 4.121191 0.470912 -2.740348 0
M  V30 35 H 4.953848 2.559248 -3.494164 0
M  V30 36 H 2.697065 4.560023 -0.611447 0
M  V30 37 H -1.929715 -1.625763 4.208948 0
M  V30 38 H -2.691674 -0.266930 3.328332 0
M  V30 39 H -1.504085 1.306133 4.851713 0
M  V30 40 H 0.184452 -0.442781 5.310160 0
M  V30 41 H -2.673377 0.717373 6.945197 0
M  V30 42 H -3.762745 0.601922 5.476290 0
M  V30 43 H -2.188567 -1.623231 6.353848 0
M  V30 44 H -2.258744 -2.389045 2.263443 0
M  V30 END ATOM
M  V30 BEGIN BOND
M  V30 1 1 1 2
M  V30 2 1 2 3
M  V30 3 2 3 4
M  V30 4 1 3 5
M  V30 5 2 5 6
M  V30 6 1 6 7
M  V30 7 1 7 8
M  V30 8 2 8 9
M  V30 9 1 9 10
M  V30 10 2 10 11
M  V30 11 1 11 12
M  V30 12 1 11 13
M  V30 13 2 13 14
M  V30 14 1 14 15
M  V30 15 1 6 16
M  V30 16 1 16 17
M  V30 17 2 17 18
M  V30 18 1 17 19
M  V30 19 1 19 20
M  V30 20 1 20 21
M  V30 21 1 21 22
M  V30 22 1 22 23
M  V30 23 1 22 24
M  V30 24 1 24 25
M  V30 25 1 19 26
M  V30 26 2 26 27
M  V30 27 1 27 28
M  V30 28 1 28 2
M  V30 29 1 14 8
M  V30 30 2 28 16
M  V30 31 1 1 29
M  V30 32 1 1 30
M  V30 33 1 1 31
M  V30 34 1 5 32
M  V30 35 1 7 33
M  V30 36 1 9 34
M  V30 37 1 10 35
M  V30 38 1 13 36
M  V30 39 1 21 37
M  V30 40 1 21 38
M  V30 41 1 22 39 CFG=3
M  V30 42 1 23 40
M  V30 43 1 24 41
M  V30 44 1 24 42
M  V30 45 1 25 43
M  V30 46 1 26 44
M  V30 END BOND
M  V30 END CTAB
M  END
>  <Dataset>  (347) 
ChEMBL_Kinases

>  <Ligand_Instance>  (347) 
nan

>  <PDB_ID>  (347) 
nan

>  <Standardized_SMILES>  (347) 
Cn1c(=O)cc(Nc2ccc(I)cc2F)c2c(=O)n(OC[C@H](O)CO)cnc21

>  <Name>  (347) 
nan

>  <Pocket>  (347) 
nan

>  <ATP_Site>  (347) 
nan

>  <Peripheral>  (347) 
nan

>  <Num_H_Atoms_ProtBoundConf>  (347) 
nan

>  <Num_Resolved_Atoms>  (347) 
nan

>  <Num_Not_Resolved_Atoms>  (347) 
nan

$$$$
CHEMBL3644816
     RDKit          3D

  0  0  0  0  0  0  0  0  0  0999 V3000
M  V30 BEGIN CTAB
M  V30 COUNTS 40 42 0 0 0
M  V30 BEGIN ATOM
M  V30 1 C 2.109345 -5.169595 0.770858 0
M  V30 2 N 2.061197 -3.741980 0.504922 0
M  V30 3 C 3.030816 -3.239669 -0.277357 0
M  V30 4 O 3.965077 -3.904566 -0.788687 0
M  V30 5 C 2.945196 -1.872743 -0.506066 0
M  V30 6 C 1.958944 -1.009891 -0.000842 0
M  V30 7 N 1.999478 0.367710 -0.312992 0
M  V30 8 C 1.231905 1.286434 -1.039801 0
M  V30 9 C 0.099506 1.067597 -1.790097 0
M  V30 10 C -0.644299 1.981257 -2.497996 0
M  V30 11 C -0.150003 3.264401 -2.412052 0
M  V30 12 I -1.166990 4.802096 -3.438565 0
M  V30 13 C 0.977854 3.571861 -1.682980 0
M  V30 14 C 1.661661 2.594769 -1.004294 0
M  V30 15 F 2.766565 2.966821 -0.304479 0
M  V30 16 C 1.048992 -1.686202 0.779189 0
M  V30 17 C 0.047438 -0.935181 1.350621 0
M  V30 18 O -0.082585 0.288905 1.195834 0
M  V30 19 N -0.886845 -1.486318 2.142959 0
M  V30 20 O -1.936821 -0.893210 2.780916 0
M  V30 21 C -1.997003 0.429013 3.229738 0
M  V30 22 C -3.346501 0.716353 3.900411 0
M  V30 23 O -3.413180 2.035235 4.350956 0
M  V30 24 C -0.832155 -2.827752 2.382614 0
M  V30 25 N 0.138566 -3.582861 1.837219 0
M  V30 26 C 1.061356 -3.033901 1.054346 0
M  V30 27 H 2.687608 -5.712562 -0.003883 0
M  V30 28 H 2.585357 -5.404900 1.754961 0
M  V30 29 H 1.061711 -5.536904 0.857650 0
M  V30 30 H 3.723461 -1.449593 -1.137655 0
M  V30 31 H 2.859384 0.650136 0.184579 0
M  V30 32 H -0.232553 0.016172 -1.809313 0
M  V30 33 H -1.514960 1.682556 -3.048341 0
M  V30 34 H 1.343802 4.609825 -1.637250 0
M  V30 35 H -1.928802 1.135984 2.351638 0
M  V30 36 H -1.231065 0.685595 3.989582 0
M  V30 37 H -4.168098 0.562742 3.178232 0
M  V30 38 H -3.427310 0.078341 4.813721 0
M  V30 39 H -2.671212 2.232758 4.982403 0
M  V30 40 H -1.531357 -3.387178 3.005128 0
M  V30 END ATOM
M  V30 BEGIN BOND
M  V30 1 1 1 2
M  V30 2 1 2 3
M  V30 3 2 3 4
M  V30 4 1 3 5
M  V30 5 2 5 6
M  V30 6 1 6 7
M  V30 7 1 7 8
M  V30 8 2 8 9
M  V30 9 1 9 10
M  V30 10 2 10 11
M  V30 11 1 11 12
M  V30 12 1 11 13
M  V30 13 2 13 14
M  V30 14 1 14 15
M  V30 15 1 6 16
M  V30 16 1 16 17
M  V30 17 2 17 18
M  V30 18 1 17 19
M  V30 19 1 19 20
M  V30 20 1 20 21
M  V30 21 1 21 22
M  V30 22 1 22 23
M  V30 23 1 19 24
M  V30 24 2 24 25
M  V30 25 1 25 26
M  V30 26 1 26 2
M  V30 27 1 14 8
M  V30 28 2 26 16
M  V30 29 1 1 27
M  V30 30 1 1 28
M  V30 31 1 1 29
M  V30 32 1 5 30
M  V30 33 1 7 31
M  V30 34 1 9 32
M  V30 35 1 10 33
M  V30 36 1 13 34
M  V30 37 1 21 35
M  V30 38 1 21 36
M  V30 39 1 22 37
M  V30 40 1 22 38
M  V30 41 1 23 39
M  V30 42 1 24 40
M  V30 END BOND
M  V30 END CTAB
M  END
>  <Dataset>  (348) 
ChEMBL_Kinases

>  <Ligand_Instance>  (348) 
nan

>  <PDB_ID>  (348) 
nan

>  <Standardized_SMILES>  (348) 
Cn1c(=O)cc(Nc2ccc(I)cc2F)c2c(=O)n(OCCO)cnc21

>  <Name>  (348) 
nan

>  <Pocket>  (348) 
nan

>  <ATP_Site>  (348) 
nan

>  <Peripheral>  (348) 
nan

>  <Num_H_Atoms_ProtBoundConf>  (348) 
nan

>  <Num_Resolved_Atoms>  (348) 
nan

>  <Num_Not_Resolved_Atoms>  (348) 
nan

$$$$
CHEMBL3644815
     RDKit          3D

  0  0  0  0  0  0  0  0  0  0999 V3000
M  V30 BEGIN CTAB
M  V30 COUNTS 43 45 0 0 0
M  V30 BEGIN ATOM
M  V30 1 C 1.392539 -3.856144 4.228745 0
M  V30 2 N 1.610298 -2.818572 3.221895 0
M  V30 3 C 2.810745 -2.228936 3.218832 0
M  V30 4 O 3.693315 -2.566816 4.048753 0
M  V30 5 C 3.003264 -1.236787 2.250014 0
M  V30 6 C 1.974749 -0.907785 1.352872 0
M  V30 7 N 2.402339 0.101279 0.497947 0
M  V30 8 C 2.196703 1.424897 0.033738 0
M  V30 9 C 1.940453 1.981728 -1.192628 0
M  V30 10 C 1.787296 3.342723 -1.275265 0
M  V30 11 C 1.874046 4.188926 -0.206572 0
M  V30 12 I 1.596275 6.230462 -0.626027 0
M  V30 13 C 2.130934 3.650625 1.034326 0
M  V30 14 C 2.291550 2.264384 1.147416 0
M  V30 15 F 2.538605 1.934093 2.458973 0
M  V30 16 C 0.792097 -1.599102 1.474424 0
M  V30 17 C -0.155390 -1.230062 0.573370 0
M  V30 18 O 0.016398 -0.350780 -0.285785 0
M  V30 19 N -1.359564 -1.825848 0.578317 0
M  V30 20 C -2.403236 -1.487137 -0.340756 0
M  V30 21 C -2.888148 -0.055658 -0.152112 0
M  V30 22 O -3.394221 0.139175 1.149190 0
M  V30 23 C -2.035743 -1.629787 -1.788918 0
M  V30 24 O -1.670875 -2.919519 -2.133972 0
M  V30 25 C -1.553789 -2.794386 1.521274 0
M  V30 26 N -0.616588 -3.174061 2.428038 0
M  V30 27 C 0.584368 -2.575688 2.418507 0
M  V30 28 H 1.946824 -3.608171 5.165601 0
M  V30 29 H 0.329999 -4.013745 4.445364 0
M  V30 30 H 1.852325 -4.820035 3.869442 0
M  V30 31 H 4.008205 -0.794091 2.302223 0
M  V30 32 H 3.239785 -0.117547 -0.117366 0
M  V30 33 H 1.898373 1.211078 -1.939275 0
M  V30 34 H 1.585932 3.688553 -2.296114 0
M  V30 35 H 2.187790 4.369711 1.838210 0
M  V30 36 H -3.279964 -2.128413 -0.154052 0
M  V30 37 H -2.129097 0.687489 -0.402019 0
M  V30 38 H -3.739290 0.078218 -0.859966 0
M  V30 39 H -2.646386 -0.057911 1.792448 0
M  V30 40 H -2.976924 -1.420122 -2.363073 0
M  V30 41 H -1.317608 -0.869411 -2.153166 0
M  V30 42 H -1.034385 -3.264850 -1.458094 0
M  V30 43 H -2.509034 -3.321357 1.584031 0
M  V30 END ATOM
M  V30 BEGIN BOND
M  V30 1 1 1 2
M  V30 2 1 2 3
M  V30 3 2 3 4
M  V30 4 1 3 5
M  V30 5 2 5 6
M  V30 6 1 6 7
M  V30 7 1 7 8
M  V30 8 2 8 9
M  V30 9 1 9 10
M  V30 10 2 10 11
M  V30 11 1 11 12
M  V30 12 1 11 13
M  V30 13 2 13 14
M  V30 14 1 14 15
M  V30 15 1 6 16
M  V30 16 1 16 17
M  V30 17 2 17 18
M  V30 18 1 17 19
M  V30 19 1 19 20
M  V30 20 1 20 21
M  V30 21 1 21 22
M  V30 22 1 20 23
M  V30 23 1 23 24
M  V30 24 1 19 25
M  V30 25 2 25 26
M  V30 26 1 26 27
M  V30 27 1 27 2
M  V30 28 1 14 8
M  V30 29 2 27 16
M  V30 30 1 1 28
M  V30 31 1 1 29
M  V30 32 1 1 30
M  V30 33 1 5 31
M  V30 34 1 7 32
M  V30 35 1 9 33
M  V30 36 1 10 34
M  V30 37 1 13 35
M  V30 38 1 20 36
M  V30 39 1 21 37
M  V30 40 1 21 38
M  V30 41 1 22 39
M  V30 42 1 23 40
M  V30 43 1 23 41
M  V30 44 1 24 42
M  V30 45 1 25 43
M  V30 END BOND
M  V30 END CTAB
M  END
>  <Dataset>  (349) 
ChEMBL_Kinases

>  <Ligand_Instance>  (349) 
nan

>  <PDB_ID>  (349) 
nan

>  <Standardized_SMILES>  (349) 
Cn1c(=O)cc(Nc2ccc(I)cc2F)c2c(=O)n(C(CO)CO)cnc21

>  <Name>  (349) 
nan

>  <Pocket>  (349) 
nan

>  <ATP_Site>  (349) 
nan

>  <Peripheral>  (349) 
nan

>  <Num_H_Atoms_ProtBoundConf>  (349) 
nan

>  <Num_Resolved_Atoms>  (349) 
nan

>  <Num_Not_Resolved_Atoms>  (349) 
nan

$$$$
CHEMBL3644814
     RDKit          3D

  0  0  0  0  0  0  0  0  0  0999 V3000
M  V30 BEGIN CTAB
M  V30 COUNTS 48 50 0 0 0
M  V30 BEGIN ATOM
M  V30 1 C 1.542205 -5.929941 4.782807 0
M  V30 2 C 1.557631 -5.083166 3.917369 0
M  V30 3 C 1.598332 -4.082778 2.887342 0
M  V30 4 C 1.424653 -2.740136 3.144407 0
M  V30 5 C 1.471542 -1.799305 2.113983 0
M  V30 6 C 1.700567 -2.332064 0.862319 0
M  V30 7 N 1.760987 -1.429323 -0.236948 0
M  V30 8 C 1.609360 -0.013075 -0.192467 0
M  V30 9 C 2.682427 0.843494 -0.008650 0
M  V30 10 C 4.052747 0.289721 0.150573 0
M  V30 11 C 2.439616 2.216584 0.021549 0
M  V30 12 O 3.404639 3.030479 0.188856 0
M  V30 13 N 1.194962 2.709314 -0.123568 0
M  V30 14 C 0.932252 4.130764 -0.093823 0
M  V30 15 C 0.121168 1.910972 -0.304820 0
M  V30 16 N -1.117802 2.433188 -0.447843 0
M  V30 17 C -2.183228 1.620938 -0.628621 0
M  V30 18 N -2.022586 0.281677 -0.668333 0
M  V30 19 C -3.076276 -0.675897 -0.854135 0
M  V30 20 C -3.710882 -1.149459 0.411108 0 CFG=1
M  V30 21 O -2.818857 -1.772087 1.279231 0
M  V30 22 C -4.588069 -0.127353 1.089622 0
M  V30 23 O -3.892253 0.897866 1.681673 0
M  V30 24 C -0.780039 -0.260192 -0.525731 0
M  V30 25 O -0.558010 -1.502023 -0.552707 0
M  V30 26 C 0.334924 0.546101 -0.338550 0
M  V30 27 C 1.881187 -3.652700 0.539166 0
M  V30 28 F 2.098590 -4.078107 -0.708234 0
M  V30 29 C 1.827212 -4.562659 1.597721 0
M  V30 30 H 1.518466 -6.669327 5.517218 0
M  V30 31 H 1.249242 -2.407160 4.158437 0
M  V30 32 H 1.341319 -0.741469 2.269004 0
M  V30 33 H 1.922918 -1.672299 -1.220412 0
M  V30 34 H 4.332686 0.233009 1.238784 0
M  V30 35 H 4.757764 0.999909 -0.331498 0
M  V30 36 H 4.141672 -0.672061 -0.355156 0
M  V30 37 H 1.872912 4.725655 -0.210019 0
M  V30 38 H 0.324257 4.423317 -0.997033 0
M  V30 39 H 0.444777 4.458287 0.842286 0
M  V30 40 H -3.205877 1.983700 -0.749813 0
M  V30 41 H -2.716808 -1.569955 -1.399590 0
M  V30 42 H -3.875493 -0.219705 -1.470891 0
M  V30 43 H -4.410332 -1.972983 0.094039 0
M  V30 44 H -3.043882 -1.512103 2.196755 0
M  V30 45 H -5.284667 0.244172 0.312157 0
M  V30 46 H -5.186780 -0.669450 1.852734 0
M  V30 47 H -4.289852 1.758727 1.382998 0
M  V30 48 H 1.964703 -5.608309 1.381428 0
M  V30 END ATOM
M  V30 BEGIN BOND
M  V30 1 3 1 2
M  V30 2 1 2 3
M  V30 3 2 3 4
M  V30 4 1 4 5
M  V30 5 2 5 6
M  V30 6 1 6 7
M  V30 7 1 7 8
M  V30 8 2 8 9
M  V30 9 1 9 10
M  V30 10 1 9 11
M  V30 11 2 11 12
M  V30 12 1 11 13
M  V30 13 1 13 14
M  V30 14 1 13 15
M  V30 15 1 15 16
M  V30 16 2 16 17
M  V30 17 1 17 18
M  V30 18 1 18 19
M  V30 19 1 19 20
M  V30 20 1 20 21
M  V30 21 1 20 22
M  V30 22 1 22 23
M  V30 23 1 18 24
M  V30 24 2 24 25
M  V30 25 1 24 26
M  V30 26 1 6 27
M  V30 27 1 27 28
M  V30 28 2 27 29
M  V30 29 1 29 3
M  V30 30 1 26 8
M  V30 31 2 26 15
M  V30 32 1 1 30
M  V30 33 1 4 31
M  V30 34 1 5 32
M  V30 35 1 7 33
M  V30 36 1 10 34
M  V30 37 1 10 35
M  V30 38 1 10 36
M  V30 39 1 14 37
M  V30 40 1 14 38
M  V30 41 1 14 39
M  V30 42 1 17 40
M  V30 43 1 19 41
M  V30 44 1 19 42
M  V30 45 1 20 43 CFG=3
M  V30 46 1 21 44
M  V30 47 1 22 45
M  V30 48 1 22 46
M  V30 49 1 23 47
M  V30 50 1 29 48
M  V30 END BOND
M  V30 END CTAB
M  END
>  <Dataset>  (350) 
ChEMBL_Kinases

>  <Ligand_Instance>  (350) 
nan

>  <PDB_ID>  (350) 
nan

>  <Standardized_SMILES>  (350) 
C#Cc1ccc(Nc2c(C)c(=O)n(C)c3ncn(C[C@@H](O)CO)c(=O)c23)c(F)c1

>  <Name>  (350) 
nan

>  <Pocket>  (350) 
nan

>  <ATP_Site>  (350) 
nan

>  <Peripheral>  (350) 
nan

>  <Num_H_Atoms_ProtBoundConf>  (350) 
nan

>  <Num_Resolved_Atoms>  (350) 
nan

>  <Num_Not_Resolved_Atoms>  (350) 
nan

$$$$
CHEMBL3644807
     RDKit          3D

  0  0  0  0  0  0  0  0  0  0999 V3000
M  V30 BEGIN CTAB
M  V30 COUNTS 43 45 0 0 0
M  V30 BEGIN ATOM
M  V30 1 C 1.284008 -5.071308 2.669613 0
M  V30 2 N 1.336986 -3.601750 2.690256 0
M  V30 3 C 2.211197 -2.900480 3.411563 0
M  V30 4 O 2.987279 -3.634661 4.075140 0
M  V30 5 C 2.206042 -1.500418 3.383250 0
M  V30 6 F 3.192223 -1.036034 4.222765 0
M  V30 7 C 1.267848 -0.830689 2.583878 0
M  V30 8 N 1.409329 0.548714 2.659535 0
M  V30 9 C 1.984321 1.637523 1.993178 0
M  V30 10 C 1.324159 2.752602 1.519036 0
M  V30 11 C 1.879797 3.813415 0.851028 0
M  V30 12 C 3.235421 3.761142 0.630746 0
M  V30 13 Br 4.014258 5.231444 -0.297801 0
M  V30 14 C 3.968744 2.689202 1.068732 0
M  V30 15 C 3.340143 1.658554 1.733775 0
M  V30 16 F 4.217008 0.691093 2.082136 0
M  V30 17 C 0.416002 -1.652901 1.884495 0
M  V30 18 C -0.494217 -0.974163 1.115725 0
M  V30 19 O -0.552259 0.261999 1.047983 0
M  V30 20 N -1.403249 -1.621425 0.369857 0
M  V30 21 C -2.369721 -0.945397 -0.446090 0
M  V30 22 C -1.860730 -0.692023 -1.851721 0 CFG=2
M  V30 23 O -0.707367 0.109607 -1.718622 0
M  V30 24 C -2.848259 0.144860 -2.634150 0
M  V30 25 O -4.048634 -0.574133 -2.823398 0
M  V30 26 C -1.387096 -2.986575 0.406184 0
M  V30 27 N -0.499350 -3.666774 1.156876 0
M  V30 28 C 0.417267 -3.025680 1.909325 0
M  V30 29 H 0.587915 -5.394591 3.471178 0
M  V30 30 H 2.300084 -5.438470 2.996699 0
M  V30 31 H 1.036596 -5.433608 1.672507 0
M  V30 32 H 0.919070 0.930686 3.510216 0
M  V30 33 H 0.241313 2.802274 1.693065 0
M  V30 34 H 1.287135 4.643170 0.516600 0
M  V30 35 H 5.021728 2.760384 0.838139 0
M  V30 36 H -3.241450 -1.634946 -0.574179 0
M  V30 37 H -2.779242 -0.021187 -0.031499 0
M  V30 38 H -1.651908 -1.598664 -2.420411 0
M  V30 39 H -0.953731 1.050001 -1.612711 0
M  V30 40 H -3.037322 1.112225 -2.118727 0
M  V30 41 H -2.409908 0.342742 -3.632732 0
M  V30 42 H -3.765448 -1.525939 -2.933897 0
M  V30 43 H -2.101018 -3.559201 -0.178749 0
M  V30 END ATOM
M  V30 BEGIN BOND
M  V30 1 1 1 2
M  V30 2 1 2 3
M  V30 3 2 3 4
M  V30 4 1 3 5
M  V30 5 1 5 6
M  V30 6 2 5 7
M  V30 7 1 7 8
M  V30 8 1 8 9
M  V30 9 2 9 10
M  V30 10 1 10 11
M  V30 11 2 11 12
M  V30 12 1 12 13
M  V30 13 1 12 14
M  V30 14 2 14 15
M  V30 15 1 15 16
M  V30 16 1 7 17
M  V30 17 1 17 18
M  V30 18 2 18 19
M  V30 19 1 18 20
M  V30 20 1 20 21
M  V30 21 1 21 22
M  V30 22 1 22 23
M  V30 23 1 22 24
M  V30 24 1 24 25
M  V30 25 1 20 26
M  V30 26 2 26 27
M  V30 27 1 27 28
M  V30 28 1 28 2
M  V30 29 1 15 9
M  V30 30 2 28 17
M  V30 31 1 1 29
M  V30 32 1 1 30
M  V30 33 1 1 31
M  V30 34 1 8 32
M  V30 35 1 10 33
M  V30 36 1 11 34
M  V30 37 1 14 35
M  V30 38 1 21 36
M  V30 39 1 21 37
M  V30 40 1 22 38 CFG=3
M  V30 41 1 23 39
M  V30 42 1 24 40
M  V30 43 1 24 41
M  V30 44 1 25 42
M  V30 45 1 26 43
M  V30 END BOND
M  V30 END CTAB
M  END
>  <Dataset>  (351) 
ChEMBL_Kinases

>  <Ligand_Instance>  (351) 
nan

>  <PDB_ID>  (351) 
nan

>  <Standardized_SMILES>  (351) 
Cn1c(=O)c(F)c(Nc2ccc(Br)cc2F)c2c(=O)n(C[C@H](O)CO)cnc21

>  <Name>  (351) 
nan

>  <Pocket>  (351) 
nan

>  <ATP_Site>  (351) 
nan

>  <Peripheral>  (351) 
nan

>  <Num_H_Atoms_ProtBoundConf>  (351) 
nan

>  <Num_Resolved_Atoms>  (351) 
nan

>  <Num_Not_Resolved_Atoms>  (351) 
nan

$$$$
CHEMBL3644805
     RDKit          3D

  0  0  0  0  0  0  0  0  0  0999 V3000
M  V30 BEGIN CTAB
M  V30 COUNTS 44 46 0 0 0
M  V30 BEGIN ATOM
M  V30 1 C -0.186187 -4.399333 -1.836516 0
M  V30 2 N -0.115604 -2.954588 -1.716237 0
M  V30 3 C 0.296063 -2.108046 -2.680077 0
M  V30 4 O 0.648279 -2.626171 -3.777701 0
M  V30 5 C 0.321773 -0.736702 -2.450593 0
M  V30 6 F 0.747605 0.002235 -3.477652 0
M  V30 7 C -0.070494 -0.194949 -1.235917 0
M  V30 8 N 0.006062 1.218299 -1.139287 0
M  V30 9 C 1.097148 1.983885 -0.707229 0
M  V30 10 C 2.245786 1.323380 -0.323973 0
M  V30 11 C 3.288278 2.157124 0.093839 0
M  V30 12 C 3.156843 3.540276 0.113823 0
M  V30 13 C 4.241075 4.377009 0.546883 0
M  V30 14 N 5.108147 5.066219 0.885101 0
M  V30 15 C 1.992341 4.138923 -0.278192 0
M  V30 16 C 0.921664 3.352828 -0.703873 0
M  V30 17 F -0.238890 3.923404 -1.095828 0
M  V30 18 C -0.487301 -1.085433 -0.267374 0
M  V30 19 C -0.871386 -0.517938 0.930075 0
M  V30 20 O -0.844714 0.718332 1.127192 0
M  V30 21 N -1.289205 -1.350364 1.914179 0
M  V30 22 C -1.714630 -0.866559 3.208627 0
M  V30 23 C -0.554777 -0.783539 4.183562 0 CFG=2
M  V30 24 O 0.427430 0.083892 3.707908 0
M  V30 25 C -0.040175 -2.127458 4.577052 0
M  V30 26 O -1.121481 -2.884589 5.030009 0
M  V30 27 C -1.303374 -2.673812 1.662984 0
M  V30 28 N -0.917954 -3.206236 0.469508 0
M  V30 29 C -0.494946 -2.436102 -0.542775 0
M  V30 30 H -1.193420 -4.740824 -1.486015 0
M  V30 31 H 0.021981 -4.746063 -2.877591 0
M  V30 32 H 0.548531 -4.821773 -1.117849 0
M  V30 33 H -0.914355 1.595794 -1.453848 0
M  V30 34 H 2.326563 0.247808 -0.347268 0
M  V30 35 H 4.218253 1.684122 0.407141 0
M  V30 36 H 1.873970 5.212882 -0.268574 0
M  V30 37 H -2.097206 0.162558 3.040859 0
M  V30 38 H -2.530230 -1.448654 3.663720 0
M  V30 39 H -0.941559 -0.310400 5.113024 0
M  V30 40 H 1.134405 -0.525451 3.324310 0
M  V30 41 H 0.662891 -1.999004 5.415800 0
M  V30 42 H 0.503112 -2.654166 3.774406 0
M  V30 43 H -0.843488 -3.837830 5.092391 0
M  V30 44 H -1.618939 -3.423802 2.379563 0
M  V30 END ATOM
M  V30 BEGIN BOND
M  V30 1 1 1 2
M  V30 2 1 2 3
M  V30 3 2 3 4
M  V30 4 1 3 5
M  V30 5 1 5 6
M  V30 6 2 5 7
M  V30 7 1 7 8
M  V30 8 1 8 9
M  V30 9 2 9 10
M  V30 10 1 10 11
M  V30 11 2 11 12
M  V30 12 1 12 13
M  V30 13 3 13 14
M  V30 14 1 12 15
M  V30 15 2 15 16
M  V30 16 1 16 17
M  V30 17 1 7 18
M  V30 18 1 18 19
M  V30 19 2 19 20
M  V30 20 1 19 21
M  V30 21 1 21 22
M  V30 22 1 22 23
M  V30 23 1 23 24
M  V30 24 1 23 25
M  V30 25 1 25 26
M  V30 26 1 21 27
M  V30 27 2 27 28
M  V30 28 1 28 29
M  V30 29 1 29 2
M  V30 30 1 16 9
M  V30 31 2 29 18
M  V30 32 1 1 30
M  V30 33 1 1 31
M  V30 34 1 1 32
M  V30 35 1 8 33
M  V30 36 1 10 34
M  V30 37 1 11 35
M  V30 38 1 15 36
M  V30 39 1 22 37
M  V30 40 1 22 38
M  V30 41 1 23 39 CFG=1
M  V30 42 1 24 40
M  V30 43 1 25 41
M  V30 44 1 25 42
M  V30 45 1 26 43
M  V30 46 1 27 44
M  V30 END BOND
M  V30 END CTAB
M  END
>  <Dataset>  (352) 
ChEMBL_Kinases

>  <Ligand_Instance>  (352) 
nan

>  <PDB_ID>  (352) 
nan

>  <Standardized_SMILES>  (352) 
Cn1c(=O)c(F)c(Nc2ccc(C#N)cc2F)c2c(=O)n(C[C@H](O)CO)cnc21

>  <Name>  (352) 
nan

>  <Pocket>  (352) 
nan

>  <ATP_Site>  (352) 
nan

>  <Peripheral>  (352) 
nan

>  <Num_H_Atoms_ProtBoundConf>  (352) 
nan

>  <Num_Resolved_Atoms>  (352) 
nan

>  <Num_Not_Resolved_Atoms>  (352) 
nan

$$$$
CHEMBL3644762
     RDKit          3D

  0  0  0  0  0  0  0  0  0  0999 V3000
M  V30 BEGIN CTAB
M  V30 COUNTS 61 65 0 0 0
M  V30 BEGIN ATOM
M  V30 1 C 4.252746 -3.453984 5.272319 0
M  V30 2 C 2.815197 -3.171245 5.669787 0
M  V30 3 O 2.103820 -2.579831 4.608708 0
M  V30 4 C 2.570077 -1.353464 4.110487 0
M  V30 5 N 3.674051 -0.750550 4.632468 0
M  V30 6 C 3.834119 0.403308 3.919446 0
M  V30 7 C 4.796471 1.378373 4.042039 0
M  V30 8 N 4.728393 2.426813 3.206952 0
M  V30 9 C 3.731832 2.504045 2.276124 0
M  V30 10 C 3.766028 3.616278 1.483575 0
M  V30 11 C 2.764655 3.704182 0.540701 0
M  V30 12 C 1.788711 2.739651 0.398409 0
M  V30 13 C 0.800453 2.947777 -0.621810 0
M  V30 14 C -0.043181 3.111844 -1.466736 0
M  V30 15 C -1.093661 3.294652 -2.495014 0
M  V30 16 N -1.799970 2.042811 -2.724375 0
M  V30 17 C -2.421336 1.578475 -1.533918 0
M  V30 18 O -2.174476 2.404954 -0.603670 0
M  V30 19 C -3.209753 0.375234 -1.365506 0
M  V30 20 C -3.693883 0.182423 -0.067833 0
M  V30 21 N -4.436758 -0.880276 0.246638 0
M  V30 22 C -4.770812 -1.829964 -0.643618 0
M  V30 23 N -4.315876 -1.660888 -1.889516 0
M  V30 24 C -4.623203 -2.630188 -2.917231 0
M  V30 25 C -3.607641 -3.701835 -2.993475 0
M  V30 26 C -2.470669 -3.729351 -3.753814 0
M  V30 27 C -1.601137 -4.804606 -3.728300 0
M  V30 28 C -1.884623 -5.874940 -2.918486 0
M  V30 29 F -0.929434 -6.856656 -3.005278 0
M  V30 30 C -3.018184 -5.890281 -2.135803 0
M  V30 31 F -3.191686 -6.990826 -1.383716 0
M  V30 32 C -3.875001 -4.801670 -2.177684 0
M  V30 33 C -3.567041 -0.612338 -2.256103 0
M  V30 34 O -3.134444 -0.435534 -3.405921 0
M  V30 35 C 1.816045 1.626789 1.245361 0
M  V30 36 C 2.801146 1.512251 2.193675 0
M  V30 37 C 2.792981 0.404407 3.005832 0
M  V30 38 N 1.994785 -0.651159 3.086683 0
M  V30 39 C 0.834856 -1.052181 2.366148 0
M  V30 40 H 4.962519 -2.817129 5.852882 0
M  V30 41 H 4.542528 -4.497668 5.489468 0
M  V30 42 H 4.359213 -3.239939 4.204154 0
M  V30 43 H 2.363853 -4.138785 5.960011 0
M  V30 44 H 2.817937 -2.495192 6.549338 0
M  V30 45 H 5.566196 1.262063 4.802898 0
M  V30 46 H 4.527146 4.377598 1.587800 0
M  V30 47 H 2.756603 4.574395 -0.109888 0
M  V30 48 H -1.820222 4.018003 -2.072775 0
M  V30 49 H -0.663891 3.631054 -3.457100 0
M  V30 50 H -1.904120 1.476573 -3.592368 0
M  V30 51 H -3.523940 0.839937 0.766401 0
M  V30 52 H -5.360624 -2.702298 -0.456398 0
M  V30 53 H -5.639270 -3.061882 -2.779620 0
M  V30 54 H -4.686444 -2.105820 -3.912829 0
M  V30 55 H -2.300438 -2.874615 -4.362249 0
M  V30 56 H -0.739022 -4.702359 -4.375707 0
M  V30 57 H -4.735038 -4.923472 -1.520417 0
M  V30 58 H 1.007843 0.964039 1.027002 0
M  V30 59 H 1.011130 -1.323408 1.294745 0
M  V30 60 H -0.070558 -0.417134 2.521380 0
M  V30 61 H 0.497185 -2.047076 2.801159 0
M  V30 END ATOM
M  V30 BEGIN BOND
M  V30 1 1 1 2
M  V30 2 1 2 3
M  V30 3 1 3 4
M  V30 4 2 4 5
M  V30 5 1 5 6
M  V30 6 2 6 7
M  V30 7 1 7 8
M  V30 8 2 8 9
M  V30 9 1 9 10
M  V30 10 2 10 11
M  V30 11 1 11 12
M  V30 12 1 12 13
M  V30 13 3 13 14
M  V30 14 1 14 15
M  V30 15 1 15 16
M  V30 16 1 16 17
M  V30 17 2 17 18
M  V30 18 1 17 19
M  V30 19 2 19 20
M  V30 20 1 20 21
M  V30 21 2 21 22
M  V30 22 1 22 23
M  V30 23 1 23 24
M  V30 24 1 24 25
M  V30 25 2 25 26
M  V30 26 1 26 27
M  V30 27 2 27 28
M  V30 28 1 28 29
M  V30 29 1 28 30
M  V30 30 1 30 31
M  V30 31 2 30 32
M  V30 32 1 23 33
M  V30 33 2 33 34
M  V30 34 2 12 35
M  V30 35 1 35 36
M  V30 36 2 36 37
M  V30 37 1 37 38
M  V30 38 1 38 39
M  V30 39 1 38 4
M  V30 40 1 37 6
M  V30 41 1 36 9
M  V30 42 1 33 19
M  V30 43 1 32 25
M  V30 44 1 1 40
M  V30 45 1 1 41
M  V30 46 1 1 42
M  V30 47 1 2 43
M  V30 48 1 2 44
M  V30 49 1 7 45
M  V30 50 1 10 46
M  V30 51 1 11 47
M  V30 52 1 15 48
M  V30 53 1 15 49
M  V30 54 1 16 50
M  V30 55 1 20 51
M  V30 56 1 22 52
M  V30 57 1 24 53
M  V30 58 1 24 54
M  V30 59 1 26 55
M  V30 60 1 27 56
M  V30 61 1 32 57
M  V30 62 1 35 58
M  V30 63 1 39 59
M  V30 64 1 39 60
M  V30 65 1 39 61
M  V30 END BOND
M  V30 END CTAB
M  END
>  <Dataset>  (353) 
ChEMBL_Kinases

>  <Ligand_Instance>  (353) 
nan

>  <PDB_ID>  (353) 
nan

>  <Standardized_SMILES>  (353) 
CCOc1nc2cnc3ccc(C#CCNC(=O)c4cncn(Cc5ccc(F)c(F)c5)c4=O)cc3c2n1C

>  <Name>  (353) 
nan

>  <Pocket>  (353) 
nan

>  <ATP_Site>  (353) 
nan

>  <Peripheral>  (353) 
nan

>  <Num_H_Atoms_ProtBoundConf>  (353) 
nan

>  <Num_Resolved_Atoms>  (353) 
nan

>  <Num_Not_Resolved_Atoms>  (353) 
nan

$$$$
CHEMBL3644761
     RDKit          3D

  0  0  0  0  0  0  0  0  0  0999 V3000
M  V30 BEGIN CTAB
M  V30 COUNTS 67 71 0 0 0
M  V30 BEGIN ATOM
M  V30 1 C 1.760278 -4.068326 6.341997 0
M  V30 2 C 1.432777 -3.201351 5.174914 0
M  V30 3 O 2.494107 -3.070426 4.227006 0
M  V30 4 C 2.228884 -2.253711 3.120586 0
M  V30 5 C 3.202479 -2.073912 2.147378 0
M  V30 6 C 2.835570 -1.263002 1.143892 0
M  V30 7 C 3.850702 -1.013326 0.084978 0
M  V30 8 O 4.972016 -1.519672 0.143243 0
M  V30 9 N 3.694536 -0.238229 -1.048663 0
M  V30 10 C 3.613351 0.592350 -2.310601 0
M  V30 11 C 2.191684 0.872572 -2.498366 0
M  V30 12 C 1.020927 1.088577 -2.628170 0
M  V30 13 C -0.463012 1.338484 -2.771883 0
M  V30 14 C -1.097474 2.409277 -2.837050 0
M  V30 15 C -2.491810 2.478896 -2.726204 0
M  V30 16 C -3.113385 1.288456 -2.537279 0
M  V30 17 N -4.441322 1.303012 -2.425648 0
M  V30 18 C -5.195551 0.237333 -2.237540 0
M  V30 19 C -4.474302 -0.958018 -2.161889 0
M  V30 20 N -4.995204 -2.175478 -2.010280 0
M  V30 21 C -3.944520 -3.026985 -2.017332 0
M  V30 22 N -2.719948 -2.404571 -2.172805 0
M  V30 23 C -1.457830 -3.041696 -2.212846 0
M  V30 24 C -0.740389 -3.197405 -3.516364 0
M  V30 25 C -0.593020 -2.990570 -0.977726 0
M  V30 26 C -3.073756 -1.103663 -2.263618 0
M  V30 27 C -2.398233 0.096744 -2.460309 0
M  V30 28 C -0.994543 -0.020269 -2.565397 0
M  V30 29 C 1.589677 -0.725948 1.185983 0
M  V30 30 O 1.067478 0.045433 0.344215 0
M  V30 31 N 0.632809 -0.857096 2.078229 0
M  V30 32 C -0.666855 -0.248304 2.238445 0
M  V30 33 C -0.366732 1.024358 3.049724 0
M  V30 34 C -0.313377 2.273235 2.466610 0
M  V30 35 C 0.008190 3.394422 3.167285 0
M  V30 36 C 0.299234 3.308617 4.531177 0
M  V30 37 F 0.626312 4.415211 5.228855 0
M  V30 38 C 0.219590 2.045597 5.014965 0
M  V30 39 F 0.507168 1.885500 6.347310 0
M  V30 40 C -0.088361 0.864266 4.417384 0
M  V30 41 N 1.036915 -1.676283 3.066473 0
M  V30 42 H 1.084918 -4.974303 6.309754 0
M  V30 43 H 1.433390 -3.484604 7.259641 0
M  V30 44 H 2.826470 -4.312211 6.379806 0
M  V30 45 H 1.191450 -2.177373 5.537496 0
M  V30 46 H 0.509996 -3.592568 4.655490 0
M  V30 47 H 4.175496 -2.489992 2.116200 0
M  V30 48 H 2.725690 0.054927 -0.825269 0
M  V30 49 H 3.911753 -0.057448 -3.146290 0
M  V30 50 H 4.188882 1.521179 -2.188124 0
M  V30 51 H -0.413482 3.277965 -2.975666 0
M  V30 52 H -2.955459 3.418420 -2.798836 0
M  V30 53 H -6.265076 0.209002 -2.128932 0
M  V30 54 H -4.166446 -4.088312 -1.905484 0
M  V30 55 H -1.774382 -4.156396 -2.089913 0
M  V30 56 H -1.138143 -2.501827 -4.324277 0
M  V30 57 H 0.356816 -2.974336 -3.357160 0
M  V30 58 H -0.716644 -4.194100 -3.990010 0
M  V30 59 H -0.869688 -2.036423 -0.461884 0
M  V30 60 H 0.468260 -2.856939 -1.313507 0
M  V30 61 H -0.618890 -3.837244 -0.327908 0
M  V30 62 H -0.441813 -0.892934 -2.518308 0
M  V30 63 H -1.163780 0.027732 1.273482 0
M  V30 64 H -1.347961 -0.832447 2.852618 0
M  V30 65 H -0.551285 2.390773 1.405975 0
M  V30 66 H 0.030797 4.334849 2.620059 0
M  V30 67 H -0.125165 -0.109706 4.905144 0
M  V30 END ATOM
M  V30 BEGIN BOND
M  V30 1 1 1 2
M  V30 2 1 2 3
M  V30 3 1 3 4
M  V30 4 1 4 5
M  V30 5 2 5 6
M  V30 6 1 6 7
M  V30 7 2 7 8
M  V30 8 1 7 9
M  V30 9 1 9 10
M  V30 10 1 10 11
M  V30 11 3 11 12
M  V30 12 1 12 13
M  V30 13 2 13 14
M  V30 14 1 14 15
M  V30 15 2 15 16
M  V30 16 1 16 17
M  V30 17 2 17 18
M  V30 18 1 18 19
M  V30 19 1 19 20
M  V30 20 2 20 21
M  V30 21 1 21 22
M  V30 22 1 22 23
M  V30 23 1 23 24
M  V30 24 1 23 25
M  V30 25 1 22 26
M  V30 26 1 26 27
M  V30 27 2 27 28
M  V30 28 1 6 29
M  V30 29 2 29 30
M  V30 30 1 29 31
M  V30 31 1 31 32
M  V30 32 1 32 33
M  V30 33 2 33 34
M  V30 34 1 34 35
M  V30 35 2 35 36
M  V30 36 1 36 37
M  V30 37 1 36 38
M  V30 38 1 38 39
M  V30 39 2 38 40
M  V30 40 1 31 41
M  V30 41 2 41 4
M  V30 42 1 28 13
M  V30 43 1 40 33
M  V30 44 1 27 16
M  V30 45 2 26 19
M  V30 46 1 1 42
M  V30 47 1 1 43
M  V30 48 1 1 44
M  V30 49 1 2 45
M  V30 50 1 2 46
M  V30 51 1 5 47
M  V30 52 1 9 48
M  V30 53 1 10 49
M  V30 54 1 10 50
M  V30 55 1 14 51
M  V30 56 1 15 52
M  V30 57 1 18 53
M  V30 58 1 21 54
M  V30 59 1 23 55
M  V30 60 1 24 56
M  V30 61 1 24 57
M  V30 62 1 24 58
M  V30 63 1 25 59
M  V30 64 1 25 60
M  V30 65 1 25 61
M  V30 66 1 28 62
M  V30 67 1 32 63
M  V30 68 1 32 64
M  V30 69 1 34 65
M  V30 70 1 35 66
M  V30 71 1 40 67
M  V30 END BOND
M  V30 END CTAB
M  END
>  <Dataset>  (354) 
ChEMBL_Kinases

>  <Ligand_Instance>  (354) 
nan

>  <PDB_ID>  (354) 
nan

>  <Standardized_SMILES>  (354) 
CCOc1cc(C(=O)NCC#Cc2ccc3ncc4ncn(C(C)C)c4c3c2)c(=O)n(Cc2ccc(F)c(F)c2)n1

>  <Name>  (354) 
nan

>  <Pocket>  (354) 
nan

>  <ATP_Site>  (354) 
nan

>  <Peripheral>  (354) 
nan

>  <Num_H_Atoms_ProtBoundConf>  (354) 
nan

>  <Num_Resolved_Atoms>  (354) 
nan

>  <Num_Not_Resolved_Atoms>  (354) 
nan

$$$$
CHEMBL3644760
     RDKit          3D

  0  0  0  0  0  0  0  0  0  0999 V3000
M  V30 BEGIN CTAB
M  V30 COUNTS 57 61 0 0 0
M  V30 BEGIN ATOM
M  V30 1 C 2.133060 -3.450756 5.447637 0
M  V30 2 C 3.081721 -2.631072 4.612242 0
M  V30 3 N 4.414658 -2.619352 4.844049 0
M  V30 4 C 4.947687 -1.791002 3.921689 0
M  V30 5 C 6.261114 -1.431488 3.720935 0
M  V30 6 N 6.525396 -0.576640 2.715792 0
M  V30 7 C 5.527175 -0.086260 1.926927 0
M  V30 8 C 5.926075 0.780761 0.930964 0
M  V30 9 C 4.905641 1.269159 0.139653 0
M  V30 10 C 3.574171 0.910482 0.336108 0
M  V30 11 C 2.614851 1.493783 -0.562540 0
M  V30 12 C 1.823983 1.994596 -1.322640 0
M  V30 13 C 0.878682 2.621250 -2.234360 0
M  V30 14 N -0.409427 1.994693 -2.206166 0
M  V30 15 C -1.188475 1.921018 -1.041508 0
M  V30 16 O -0.561382 2.484469 -0.085718 0
M  V30 17 C -2.499024 1.323482 -0.860426 0
M  V30 18 C -3.030379 1.402824 0.421270 0
M  V30 19 N -4.229431 0.890404 0.716687 0
M  V30 20 C -4.994438 0.271768 -0.190175 0
M  V30 21 N -4.513571 0.176316 -1.438645 0
M  V30 22 C -5.287470 -0.479895 -2.461453 0
M  V30 23 C -4.966392 -1.928408 -2.494914 0
M  V30 24 C -5.751306 -2.729995 -1.661054 0
M  V30 25 C -5.596340 -4.109501 -1.559953 0
M  V30 26 C -4.608822 -4.637722 -2.343389 0
M  V30 27 F -4.416048 -5.986941 -2.281302 0
M  V30 28 C -3.795203 -3.914360 -3.189193 0
M  V30 29 F -2.820152 -4.457707 -3.958982 0
M  V30 30 C -3.999103 -2.557092 -3.243210 0
M  V30 31 C -3.313170 0.681695 -1.763054 0
M  V30 32 O -2.848477 0.601307 -2.926168 0
M  V30 33 C 3.233395 0.032916 1.355926 0
M  V30 34 C 4.226181 -0.472072 2.162447 0
M  V30 35 C 3.876438 -1.342994 3.171588 0
M  V30 36 N 2.692091 -1.839192 3.564300 0
M  V30 37 C 1.371013 -1.649351 3.085154 0
M  V30 38 H 1.855782 -4.386993 4.963637 0
M  V30 39 H 2.585942 -3.678907 6.434112 0
M  V30 40 H 1.220175 -2.864196 5.685929 0
M  V30 41 H 7.041910 -1.821068 4.345356 0
M  V30 42 H 6.968633 1.039313 0.804869 0
M  V30 43 H 5.184762 1.952270 -0.651519 0
M  V30 44 H 1.281989 2.649258 -3.263927 0
M  V30 45 H 0.693874 3.700727 -1.959391 0
M  V30 46 H -0.792820 1.573575 -3.079607 0
M  V30 47 H -2.575083 1.860046 1.295243 0
M  V30 48 H -5.967105 -0.158400 -0.004499 0
M  V30 49 H -5.020605 -0.069125 -3.458737 0
M  V30 50 H -6.391861 -0.355725 -2.327555 0
M  V30 51 H -6.540741 -2.293694 -1.037272 0
M  V30 52 H -6.224536 -4.693582 -0.902586 0
M  V30 53 H -3.412239 -1.911273 -3.875527 0
M  V30 54 H 2.213644 -0.148942 1.392441 0
M  V30 55 H 0.909750 -0.660081 3.262770 0
M  V30 56 H 1.142157 -2.102054 2.086866 0
M  V30 57 H 0.703661 -2.304020 3.731971 0
M  V30 END ATOM
M  V30 BEGIN BOND
M  V30 1 1 1 2
M  V30 2 2 2 3
M  V30 3 1 3 4
M  V30 4 2 4 5
M  V30 5 1 5 6
M  V30 6 2 6 7
M  V30 7 1 7 8
M  V30 8 2 8 9
M  V30 9 1 9 10
M  V30 10 1 10 11
M  V30 11 3 11 12
M  V30 12 1 12 13
M  V30 13 1 13 14
M  V30 14 1 14 15
M  V30 15 2 15 16
M  V30 16 1 15 17
M  V30 17 2 17 18
M  V30 18 1 18 19
M  V30 19 2 19 20
M  V30 20 1 20 21
M  V30 21 1 21 22
M  V30 22 1 22 23
M  V30 23 2 23 24
M  V30 24 1 24 25
M  V30 25 2 25 26
M  V30 26 1 26 27
M  V30 27 1 26 28
M  V30 28 1 28 29
M  V30 29 2 28 30
M  V30 30 1 21 31
M  V30 31 2 31 32
M  V30 32 2 10 33
M  V30 33 1 33 34
M  V30 34 2 34 35
M  V30 35 1 35 36
M  V30 36 1 36 37
M  V30 37 1 36 2
M  V30 38 1 35 4
M  V30 39 1 34 7
M  V30 40 1 31 17
M  V30 41 1 30 23
M  V30 42 1 1 38
M  V30 43 1 1 39
M  V30 44 1 1 40
M  V30 45 1 5 41
M  V30 46 1 8 42
M  V30 47 1 9 43
M  V30 48 1 13 44
M  V30 49 1 13 45
M  V30 50 1 14 46
M  V30 51 1 18 47
M  V30 52 1 20 48
M  V30 53 1 22 49
M  V30 54 1 22 50
M  V30 55 1 24 51
M  V30 56 1 25 52
M  V30 57 1 30 53
M  V30 58 1 33 54
M  V30 59 1 37 55
M  V30 60 1 37 56
M  V30 61 1 37 57
M  V30 END BOND
M  V30 END CTAB
M  END
>  <Dataset>  (355) 
ChEMBL_Kinases

>  <Ligand_Instance>  (355) 
nan

>  <PDB_ID>  (355) 
nan

>  <Standardized_SMILES>  (355) 
Cc1nc2cnc3ccc(C#CCNC(=O)c4cncn(Cc5ccc(F)c(F)c5)c4=O)cc3c2n1C

>  <Name>  (355) 
nan

>  <Pocket>  (355) 
nan

>  <ATP_Site>  (355) 
nan

>  <Peripheral>  (355) 
nan

>  <Num_H_Atoms_ProtBoundConf>  (355) 
nan

>  <Num_Resolved_Atoms>  (355) 
nan

>  <Num_Not_Resolved_Atoms>  (355) 
nan

$$$$
CHEMBL3644759
     RDKit          3D

  0  0  0  0  0  0  0  0  0  0999 V3000
M  V30 BEGIN CTAB
M  V30 COUNTS 60 64 0 0 0
M  V30 BEGIN ATOM
M  V30 1 C 2.326463 -1.228438 2.968805 0
M  V30 2 C 3.664963 -0.511910 2.861138 0
M  V30 3 N 4.678042 -1.244366 2.173368 0
M  V30 4 C 5.594401 -2.088482 2.738757 0
M  V30 5 C 5.662240 -2.389514 4.213851 0
M  V30 6 N 6.448523 -2.642090 1.854174 0
M  V30 7 C 6.092414 -2.151254 0.641915 0
M  V30 8 C 6.662642 -2.412686 -0.579985 0
M  V30 9 N 6.115061 -1.784058 -1.659388 0
M  V30 10 C 5.060390 -0.946926 -1.518309 0
M  V30 11 C 4.501199 -0.316800 -2.633043 0
M  V30 12 C 3.421693 0.529185 -2.509522 0
M  V30 13 C 2.869044 0.770145 -1.273232 0
M  V30 14 C 1.721195 1.660888 -1.103835 0
M  V30 15 C 0.774702 2.404718 -0.943524 0
M  V30 16 C -0.356292 3.292495 -0.726448 0
M  V30 17 N -1.577446 2.880538 -1.392387 0
M  V30 18 C -2.014295 1.648093 -1.078179 0
M  V30 19 O -1.388741 0.882591 -0.268562 0
M  V30 20 C -2.808664 0.508478 -1.052731 0
M  V30 21 C -3.805343 1.266385 -1.894918 0
M  V30 22 N -5.046755 0.897526 -2.417084 0
M  V30 23 C -5.453800 -0.360938 -2.132298 0
M  V30 24 N -4.666114 -1.152296 -1.390622 0
M  V30 25 C -4.825926 -2.492970 -0.930309 0
M  V30 26 C -5.510181 -2.573524 0.389770 0
M  V30 27 C -4.920347 -2.606071 1.635175 0
M  V30 28 C -5.625721 -2.666478 2.818498 0
M  V30 29 C -7.019655 -2.696966 2.729452 0
M  V30 30 F -7.690425 -2.754886 3.927413 0
M  V30 31 C -7.652981 -2.666681 1.510834 0
M  V30 32 F -9.001418 -2.701641 1.606008 0
M  V30 33 C -6.909525 -2.606150 0.351687 0
M  V30 34 C -3.548505 -0.552714 -1.029123 0
M  V30 35 O -2.639151 -1.140592 -0.309117 0
M  V30 36 C 3.458465 0.118759 -0.170618 0
M  V30 37 C 4.539294 -0.730649 -0.263379 0
M  V30 38 C 5.022480 -1.315415 0.882606 0
M  V30 39 H 2.389576 -2.125190 3.597903 0
M  V30 40 H 1.945782 -1.433687 1.952796 0
M  V30 41 H 1.596968 -0.494950 3.399579 0
M  V30 42 H 4.008771 -0.552879 3.969240 0
M  V30 43 H 3.616940 0.562093 2.720630 0
M  V30 44 H 4.763540 -2.987715 4.542818 0
M  V30 45 H 5.600312 -1.468483 4.829932 0
M  V30 46 H 6.557639 -2.969727 4.453896 0
M  V30 47 H 7.504424 -3.087117 -0.656353 0
M  V30 48 H 4.966891 -0.534919 -3.603779 0
M  V30 49 H 2.991605 1.017989 -3.388625 0
M  V30 50 H -0.035545 4.285168 -1.095656 0
M  V30 51 H -0.617747 3.377751 0.368970 0
M  V30 52 H -2.292272 3.197930 -2.068391 0
M  V30 53 H -3.978997 2.292065 -2.399042 0
M  V30 54 H -6.338675 -0.957886 -2.370298 0
M  V30 55 H -5.489739 -3.018326 -1.667549 0
M  V30 56 H -3.900001 -3.089139 -0.912407 0
M  V30 57 H -3.840026 -2.585528 1.654015 0
M  V30 58 H -5.032170 -2.687354 3.740015 0
M  V30 59 H -7.541302 -2.587745 -0.547369 0
M  V30 60 H 2.928776 0.377380 0.717707 0
M  V30 END ATOM
M  V30 BEGIN BOND
M  V30 1 1 1 2
M  V30 2 1 2 3
M  V30 3 1 3 4
M  V30 4 1 4 5
M  V30 5 2 4 6
M  V30 6 1 6 7
M  V30 7 2 7 8
M  V30 8 1 8 9
M  V30 9 2 9 10
M  V30 10 1 10 11
M  V30 11 2 11 12
M  V30 12 1 12 13
M  V30 13 1 13 14
M  V30 14 3 14 15
M  V30 15 1 15 16
M  V30 16 1 16 17
M  V30 17 1 17 18
M  V30 18 2 18 19
M  V30 19 1 18 20
M  V30 20 2 20 21
M  V30 21 1 21 22
M  V30 22 2 22 23
M  V30 23 1 23 24
M  V30 24 1 24 25
M  V30 25 1 25 26
M  V30 26 2 26 27
M  V30 27 1 27 28
M  V30 28 2 28 29
M  V30 29 1 29 30
M  V30 30 1 29 31
M  V30 31 1 31 32
M  V30 32 2 31 33
M  V30 33 1 24 34
M  V30 34 2 34 35
M  V30 35 2 13 36
M  V30 36 1 36 37
M  V30 37 2 37 38
M  V30 38 1 38 3
M  V30 39 1 38 7
M  V30 40 1 37 10
M  V30 41 1 34 20
M  V30 42 1 33 26
M  V30 43 1 1 39
M  V30 44 1 1 40
M  V30 45 1 1 41
M  V30 46 1 2 42
M  V30 47 1 2 43
M  V30 48 1 5 44
M  V30 49 1 5 45
M  V30 50 1 5 46
M  V30 51 1 8 47
M  V30 52 1 11 48
M  V30 53 1 12 49
M  V30 54 1 16 50
M  V30 55 1 16 51
M  V30 56 1 17 52
M  V30 57 1 21 53
M  V30 58 1 23 54
M  V30 59 1 25 55
M  V30 60 1 25 56
M  V30 61 1 27 57
M  V30 62 1 28 58
M  V30 63 1 33 59
M  V30 64 1 36 60
M  V30 END BOND
M  V30 END CTAB
M  END
>  <Dataset>  (356) 
ChEMBL_Kinases

>  <Ligand_Instance>  (356) 
nan

>  <PDB_ID>  (356) 
nan

>  <Standardized_SMILES>  (356) 
CCn1c(C)nc2cnc3ccc(C#CCNC(=O)c4cncn(Cc5ccc(F)c(F)c5)c4=O)cc3c21

>  <Name>  (356) 
nan

>  <Pocket>  (356) 
nan

>  <ATP_Site>  (356) 
nan

>  <Peripheral>  (356) 
nan

>  <Num_H_Atoms_ProtBoundConf>  (356) 
nan

>  <Num_Resolved_Atoms>  (356) 
nan

>  <Num_Not_Resolved_Atoms>  (356) 
nan

$$$$
CHEMBL3644741
     RDKit          3D

  0  0  0  0  0  0  0  0  0  0999 V3000
M  V30 BEGIN CTAB
M  V30 COUNTS 69 74 0 0 0
M  V30 BEGIN ATOM
M  V30 1 C -1.876672 -4.370153 -1.926566 0
M  V30 2 N -0.633197 -3.866359 -1.440502 0
M  V30 3 C 0.521066 -4.396460 -2.199728 0
M  V30 4 C 1.638505 -4.267358 -1.192681 0
M  V30 5 C 1.975241 -2.769400 -0.946492 0
M  V30 6 N 3.085841 -2.401830 -1.796036 0
M  V30 7 C 3.370885 -3.149846 -2.910165 0
M  V30 8 N 4.441854 -2.662570 -3.604284 0
M  V30 9 C 4.862258 -1.576601 -2.927976 0
M  V30 10 C 5.905888 -0.716662 -3.194855 0
M  V30 11 N 6.113848 0.303123 -2.345512 0
M  V30 12 C 5.310408 0.444963 -1.284124 0
M  V30 13 C 5.575539 1.492860 -0.457322 0
M  V30 14 C 4.774903 1.669009 0.650192 0
M  V30 15 C 3.725392 0.820900 0.938129 0
M  V30 16 C 2.980289 1.130909 2.126781 0
M  V30 17 C 2.342108 1.375452 3.118350 0
M  V30 18 C 1.571531 1.697193 4.326039 0
M  V30 19 N 0.143180 1.590662 4.106889 0
M  V30 20 C -0.325615 0.322057 3.714073 0
M  V30 21 O 0.665475 -0.482876 3.637552 0
M  V30 22 C -1.671915 -0.103821 3.422842 0
M  V30 23 C -1.840359 -1.426497 3.056181 0
M  V30 24 C -3.079101 -1.948410 2.754323 0
M  V30 25 Cl -3.202339 -3.634109 2.299296 0
M  V30 26 N -4.149687 -1.137938 2.821595 0
M  V30 27 N -4.051820 0.139891 3.167114 0
M  V30 28 C -5.206038 1.007054 3.237357 0
M  V30 29 C -5.475265 1.679727 1.954611 0
M  V30 30 C -6.317593 1.001644 1.068895 0
M  V30 31 C -6.640365 1.536054 -0.161806 0
M  V30 32 C -6.145071 2.757567 -0.564350 0
M  V30 33 F -6.458389 3.290983 -1.775498 0
M  V30 34 C -5.311115 3.432620 0.308435 0
M  V30 35 F -4.814532 4.635595 -0.070837 0
M  V30 36 C -4.993546 2.893426 1.534359 0
M  V30 37 C -2.844218 0.616772 3.453103 0
M  V30 38 O -2.733495 1.818836 3.780722 0
M  V30 39 C 3.475922 -0.245202 0.073397 0
M  V30 40 C 4.272862 -0.412920 -1.022096 0
M  V30 41 C 4.012714 -1.465967 -1.849766 0
M  V30 42 C 0.768244 -1.918322 -1.057269 0
M  V30 43 C -0.467826 -2.441238 -1.648209 0
M  V30 44 H -2.491230 -3.501604 -2.253427 0
M  V30 45 H -1.803780 -5.162699 -2.695616 0
M  V30 46 H -2.418677 -4.788954 -1.046084 0
M  V30 47 H 0.654925 -3.822571 -3.122595 0
M  V30 48 H 0.341070 -5.455439 -2.333785 0
M  V30 49 H 1.242172 -4.746886 -0.275014 0
M  V30 50 H 2.545549 -4.816494 -1.442234 0
M  V30 51 H 2.270243 -2.842296 0.119779 0
M  V30 52 H 2.957264 -4.028109 -3.359631 0
M  V30 53 H 6.537893 -0.854042 -4.056565 0
M  V30 54 H 6.389225 2.173848 -0.654968 0
M  V30 55 H 5.007894 2.507771 1.287610 0
M  V30 56 H 1.769174 2.736461 4.673637 0
M  V30 57 H 1.921063 1.031668 5.142301 0
M  V30 58 H -0.558845 2.354434 4.211508 0
M  V30 59 H -0.972297 -2.101324 2.996987 0
M  V30 60 H -4.968827 1.801388 3.996484 0
M  V30 61 H -6.111761 0.445986 3.608594 0
M  V30 62 H -6.751348 0.040308 1.299731 0
M  V30 63 H -7.294358 1.028286 -0.870437 0
M  V30 64 H -4.343362 3.411510 2.224740 0
M  V30 65 H 2.656109 -0.777763 0.452362 0
M  V30 66 H 1.070742 -1.010785 -1.659793 0
M  V30 67 H 0.473661 -1.469323 -0.056296 0
M  V30 68 H -1.351531 -1.905515 -1.290997 0
M  V30 69 H -0.457923 -2.316388 -2.766128 0
M  V30 END ATOM
M  V30 BEGIN BOND
M  V30 1 1 1 2
M  V30 2 1 2 3
M  V30 3 1 3 4
M  V30 4 1 4 5
M  V30 5 1 5 6
M  V30 6 1 6 7
M  V30 7 2 7 8
M  V30 8 1 8 9
M  V30 9 2 9 10
M  V30 10 1 10 11
M  V30 11 2 11 12
M  V30 12 1 12 13
M  V30 13 2 13 14
M  V30 14 1 14 15
M  V30 15 1 15 16
M  V30 16 3 16 17
M  V30 17 1 17 18
M  V30 18 1 18 19
M  V30 19 1 19 20
M  V30 20 2 20 21
M  V30 21 1 20 22
M  V30 22 2 22 23
M  V30 23 1 23 24
M  V30 24 1 24 25
M  V30 25 2 24 26
M  V30 26 1 26 27
M  V30 27 1 27 28
M  V30 28 1 28 29
M  V30 29 2 29 30
M  V30 30 1 30 31
M  V30 31 2 31 32
M  V30 32 1 32 33
M  V30 33 1 32 34
M  V30 34 1 34 35
M  V30 35 2 34 36
M  V30 36 1 27 37
M  V30 37 2 37 38
M  V30 38 2 15 39
M  V30 39 1 39 40
M  V30 40 2 40 41
M  V30 41 1 5 42
M  V30 42 1 42 43
M  V30 43 1 43 2
M  V30 44 1 41 6
M  V30 45 1 41 9
M  V30 46 1 40 12
M  V30 47 1 37 22
M  V30 48 1 36 29
M  V30 49 1 1 44
M  V30 50 1 1 45
M  V30 51 1 1 46
M  V30 52 1 3 47
M  V30 53 1 3 48
M  V30 54 1 4 49
M  V30 55 1 4 50
M  V30 56 1 5 51
M  V30 57 1 7 52
M  V30 58 1 10 53
M  V30 59 1 13 54
M  V30 60 1 14 55
M  V30 61 1 18 56
M  V30 62 1 18 57
M  V30 63 1 19 58
M  V30 64 1 23 59
M  V30 65 1 28 60
M  V30 66 1 28 61
M  V30 67 1 30 62
M  V30 68 1 31 63
M  V30 69 1 36 64
M  V30 70 1 39 65
M  V30 71 1 42 66
M  V30 72 1 42 67
M  V30 73 1 43 68
M  V30 74 1 43 69
M  V30 END BOND
M  V30 END CTAB
M  END
>  <Dataset>  (357) 
ChEMBL_Kinases

>  <Ligand_Instance>  (357) 
nan

>  <PDB_ID>  (357) 
nan

>  <Standardized_SMILES>  (357) 
CN1CCC(n2cnc3cnc4ccc(C#CCNC(=O)c5cc(Cl)nn(Cc6ccc(F)c(F)c6)c5=O)cc4c32)CC1

>  <Name>  (357) 
nan

>  <Pocket>  (357) 
nan

>  <ATP_Site>  (357) 
nan

>  <Peripheral>  (357) 
nan

>  <Num_H_Atoms_ProtBoundConf>  (357) 
nan

>  <Num_Resolved_Atoms>  (357) 
nan

>  <Num_Not_Resolved_Atoms>  (357) 
nan

$$$$
CHEMBL3644742
     RDKit          3D

  0  0  0  0  0  0  0  0  0  0999 V3000
M  V30 BEGIN CTAB
M  V30 COUNTS 67 72 0 0 0
M  V30 BEGIN ATOM
M  V30 1 C 1.085710 -0.854635 3.768590 0
M  V30 2 N 0.722967 -0.708380 2.382110 0
M  V30 3 C 1.713815 -1.310328 1.504938 0
M  V30 4 C 2.911402 -0.377400 1.494433 0
M  V30 5 C 2.248063 0.883088 1.939090 0 CFG=1
M  V30 6 N 2.905663 2.113827 1.891951 0
M  V30 7 C 3.532228 2.815656 2.907032 0
M  V30 8 N 4.085738 3.978406 2.593483 0
M  V30 9 C 3.850600 4.133667 1.279029 0
M  V30 10 C 4.210187 5.170166 0.449339 0
M  V30 11 N 3.852787 5.089869 -0.842501 0
M  V30 12 C 3.156134 4.016694 -1.318198 0
M  V30 13 C 2.846133 4.047371 -2.659593 0
M  V30 14 C 2.142917 2.955102 -3.116911 0
M  V30 15 C 1.774224 1.900359 -2.284358 0
M  V30 16 C 1.043315 0.840441 -2.924931 0
M  V30 17 C 0.440181 -0.058584 -3.456605 0
M  V30 18 C -0.292623 -1.137298 -4.124310 0
M  V30 19 N -1.135185 -1.885883 -3.225034 0
M  V30 20 C -0.432156 -2.507034 -2.179229 0
M  V30 21 O 0.802704 -2.249899 -2.286955 0
M  V30 22 C -0.956795 -3.331312 -1.102022 0
M  V30 23 C -0.029981 -3.820305 -0.198217 0
M  V30 24 C -0.386362 -4.608061 0.863716 0
M  V30 25 C -1.694316 -4.962049 1.096304 0
M  V30 26 N -2.580377 -4.478492 0.208979 0
M  V30 27 C -3.976316 -4.821528 0.409587 0
M  V30 28 C -4.664938 -3.817242 1.271257 0
M  V30 29 C -5.318322 -2.706057 0.838230 0
M  V30 30 C -5.942621 -1.795758 1.638876 0
M  V30 31 C -5.907229 -2.022318 2.995998 0
M  V30 32 F -6.523717 -1.127496 3.820635 0
M  V30 33 C -5.269756 -3.122085 3.543386 0
M  V30 34 F -5.238122 -3.338120 4.867988 0
M  V30 35 C -4.657128 -4.001232 2.645112 0
M  V30 36 C -2.254142 -3.705569 -0.838041 0
M  V30 37 O -3.112093 -3.285085 -1.628665 0
M  V30 38 C 2.124405 1.945673 -0.946864 0
M  V30 39 C 2.824897 3.010537 -0.439468 0
M  V30 40 C 3.138144 2.990904 0.893298 0
M  V30 41 C 0.777775 0.728731 2.034363 0
M  V30 42 H 0.933060 0.058426 4.380822 0
M  V30 43 H 0.490528 -1.655131 4.257335 0
M  V30 44 H 2.149093 -1.203148 3.852690 0
M  V30 45 H 1.965102 -2.321296 1.851714 0
M  V30 46 H 1.243474 -1.312207 0.491910 0
M  V30 47 H 3.673681 -0.822310 2.143669 0
M  V30 48 H 3.397333 -0.339288 0.498276 0
M  V30 49 H 2.377166 0.665858 3.075268 0
M  V30 50 H 3.617898 2.500346 3.961619 0
M  V30 51 H 4.758416 6.004600 0.846748 0
M  V30 52 H 3.150467 4.883810 -3.271322 0
M  V30 53 H 1.890211 2.961646 -4.167722 0
M  V30 54 H 0.466469 -1.885174 -4.500375 0
M  V30 55 H -0.843723 -0.701769 -4.970149 0
M  V30 56 H -2.170392 -2.010704 -3.266264 0
M  V30 57 H 1.026252 -3.588344 -0.308312 0
M  V30 58 H 0.372490 -4.966294 1.542901 0
M  V30 59 H -2.031096 -5.579810 1.916901 0
M  V30 60 H -4.479988 -4.882934 -0.587870 0
M  V30 61 H -4.041082 -5.794917 0.938181 0
M  V30 62 H -5.348735 -2.524895 -0.229886 0
M  V30 63 H -6.446931 -0.929840 1.238695 0
M  V30 64 H -4.161847 -4.857012 3.083600 0
M  V30 65 H 1.784977 1.107436 -0.477062 0
M  V30 66 H 0.277326 1.295195 2.854940 0
M  V30 67 H 0.142804 0.809198 1.182646 0
M  V30 END ATOM
M  V30 BEGIN BOND
M  V30 1 1 1 2
M  V30 2 1 2 3
M  V30 3 1 3 4
M  V30 4 1 4 5
M  V30 5 1 5 6
M  V30 6 1 6 7
M  V30 7 2 7 8
M  V30 8 1 8 9
M  V30 9 2 9 10
M  V30 10 1 10 11
M  V30 11 2 11 12
M  V30 12 1 12 13
M  V30 13 2 13 14
M  V30 14 1 14 15
M  V30 15 1 15 16
M  V30 16 3 16 17
M  V30 17 1 17 18
M  V30 18 1 18 19
M  V30 19 1 19 20
M  V30 20 2 20 21
M  V30 21 1 20 22
M  V30 22 2 22 23
M  V30 23 1 23 24
M  V30 24 2 24 25
M  V30 25 1 25 26
M  V30 26 1 26 27
M  V30 27 1 27 28
M  V30 28 2 28 29
M  V30 29 1 29 30
M  V30 30 2 30 31
M  V30 31 1 31 32
M  V30 32 1 31 33
M  V30 33 1 33 34
M  V30 34 2 33 35
M  V30 35 1 26 36
M  V30 36 2 36 37
M  V30 37 2 15 38
M  V30 38 1 38 39
M  V30 39 2 39 40
M  V30 40 1 5 41
M  V30 41 1 41 2
M  V30 42 1 40 6
M  V30 43 1 40 9
M  V30 44 1 39 12
M  V30 45 1 36 22
M  V30 46 1 35 28
M  V30 47 1 1 42
M  V30 48 1 1 43
M  V30 49 1 1 44
M  V30 50 1 3 45
M  V30 51 1 3 46
M  V30 52 1 4 47
M  V30 53 1 4 48
M  V30 54 1 5 49 CFG=1
M  V30 55 1 7 50
M  V30 56 1 10 51
M  V30 57 1 13 52
M  V30 58 1 14 53
M  V30 59 1 18 54
M  V30 60 1 18 55
M  V30 61 1 19 56
M  V30 62 1 23 57
M  V30 63 1 24 58
M  V30 64 1 25 59
M  V30 65 1 27 60
M  V30 66 1 27 61
M  V30 67 1 29 62
M  V30 68 1 30 63
M  V30 69 1 35 64
M  V30 70 1 38 65
M  V30 71 1 41 66
M  V30 72 1 41 67
M  V30 END BOND
M  V30 END CTAB
M  END
>  <Dataset>  (358) 
ChEMBL_Kinases

>  <Ligand_Instance>  (358) 
nan

>  <PDB_ID>  (358) 
nan

>  <Standardized_SMILES>  (358) 
CN1CC[C@@H](n2cnc3cnc4ccc(C#CCNC(=O)c5cccn(Cc6ccc(F)c(F)c6)c5=O)cc4c32)C1

>  <Name>  (358) 
nan

>  <Pocket>  (358) 
nan

>  <ATP_Site>  (358) 
nan

>  <Peripheral>  (358) 
nan

>  <Num_H_Atoms_ProtBoundConf>  (358) 
nan

>  <Num_Resolved_Atoms>  (358) 
nan

>  <Num_Not_Resolved_Atoms>  (358) 
nan

$$$$
CHEMBL3644743
     RDKit          3D

  0  0  0  0  0  0  0  0  0  0999 V3000
M  V30 BEGIN CTAB
M  V30 COUNTS 66 71 0 0 0
M  V30 BEGIN ATOM
M  V30 1 C 1.423148 -1.545007 3.664411 0
M  V30 2 N 2.840951 -1.785103 3.575651 0
M  V30 3 C 3.201946 -2.787575 2.589275 0
M  V30 4 C 4.348283 -2.144094 1.790769 0
M  V30 5 C 3.732339 -0.714545 1.698688 0 CFG=2
M  V30 6 N 4.700229 0.209581 1.233418 0
M  V30 7 C 6.022498 -0.133322 1.136683 0
M  V30 8 N 6.794532 0.881896 0.667990 0
M  V30 9 C 5.954776 1.920361 0.451083 0
M  V30 10 C 6.233632 3.182253 -0.023454 0
M  V30 11 N 5.201579 4.032206 -0.146991 0
M  V30 12 C 3.950757 3.632010 0.190496 0
M  V30 13 C 2.964361 4.579434 0.027124 0
M  V30 14 C 1.692006 4.172208 0.371337 0
M  V30 15 C 1.388447 2.913246 0.849286 0
M  V30 16 C 0.010323 2.649356 1.161913 0
M  V30 17 C -1.141741 2.407331 1.423151 0
M  V30 18 C -2.556447 2.085877 1.736304 0
M  V30 19 N -2.891217 0.763595 1.218026 0
M  V30 20 C -4.166853 0.213352 1.376756 0
M  V30 21 O -4.921815 1.014840 2.006442 0
M  V30 22 C -4.635666 -1.077359 0.917749 0
M  V30 23 C -5.964668 -1.391382 1.206553 0
M  V30 24 C -6.541204 -2.583157 0.830241 0
M  V30 25 Cl -8.213279 -2.886251 1.237345 0
M  V30 26 N -5.819516 -3.493199 0.159882 0
M  V30 27 N -4.549281 -3.226611 -0.132132 0
M  V30 28 C -3.779722 -4.209468 -0.854461 0
M  V30 29 C -3.944694 -3.944128 -2.306134 0
M  V30 30 C -5.011542 -4.568770 -2.933358 0
M  V30 31 C -5.279741 -4.408372 -4.284038 0
M  V30 32 C -4.453756 -3.592048 -5.048850 0
M  V30 33 F -4.725499 -3.441513 -6.372300 0
M  V30 34 C -3.380469 -2.960914 -4.428157 0
M  V30 35 F -2.602126 -2.181887 -5.185785 0
M  V30 36 C -3.169107 -3.158388 -3.096703 0
M  V30 37 C -3.975904 -2.068816 0.229138 0
M  V30 38 O -2.778933 -1.817965 -0.045944 0
M  V30 39 C 2.424958 1.992485 0.995452 0
M  V30 40 C 3.698591 2.362763 0.663341 0
M  V30 41 C 4.696881 1.466082 0.807953 0
M  V30 42 C 3.469501 -0.534628 3.162358 0
M  V30 43 H 1.306924 -0.488401 4.034304 0
M  V30 44 H 0.913622 -1.584408 2.693293 0
M  V30 45 H 0.924434 -2.157033 4.443943 0
M  V30 46 H 2.390239 -2.952748 1.848232 0
M  V30 47 H 3.515150 -3.715661 3.085753 0
M  V30 48 H 5.233923 -2.110426 2.450849 0
M  V30 49 H 4.491915 -2.586229 0.809799 0
M  V30 50 H 2.863603 -0.914983 1.059902 0
M  V30 51 H 6.557316 -1.045903 1.359143 0
M  V30 52 H 7.271785 3.443296 -0.279209 0
M  V30 53 H 3.183455 5.561378 -0.342741 0
M  V30 54 H 0.901708 4.906154 0.248642 0
M  V30 55 H -2.645660 2.150304 2.834046 0
M  V30 56 H -3.249639 2.797694 1.221417 0
M  V30 57 H -2.165045 0.230836 0.725524 0
M  V30 58 H -6.589522 -0.673363 1.753724 0
M  V30 59 H -2.711591 -4.186158 -0.556601 0
M  V30 60 H -4.117257 -5.240143 -0.644874 0
M  V30 61 H -5.710211 -5.220963 -2.430351 0
M  V30 62 H -6.112816 -4.893123 -4.785239 0
M  V30 63 H -2.331099 -2.665657 -2.615911 0
M  V30 64 H 2.048397 1.082937 1.369038 0
M  V30 65 H 2.878322 0.319829 3.460469 0
M  V30 66 H 4.462269 -0.455904 3.653573 0
M  V30 END ATOM
M  V30 BEGIN BOND
M  V30 1 1 1 2
M  V30 2 1 2 3
M  V30 3 1 3 4
M  V30 4 1 4 5
M  V30 5 1 5 6
M  V30 6 1 6 7
M  V30 7 2 7 8
M  V30 8 1 8 9
M  V30 9 2 9 10
M  V30 10 1 10 11
M  V30 11 2 11 12
M  V30 12 1 12 13
M  V30 13 2 13 14
M  V30 14 1 14 15
M  V30 15 1 15 16
M  V30 16 3 16 17
M  V30 17 1 17 18
M  V30 18 1 18 19
M  V30 19 1 19 20
M  V30 20 2 20 21
M  V30 21 1 20 22
M  V30 22 2 22 23
M  V30 23 1 23 24
M  V30 24 1 24 25
M  V30 25 2 24 26
M  V30 26 1 26 27
M  V30 27 1 27 28
M  V30 28 1 28 29
M  V30 29 2 29 30
M  V30 30 1 30 31
M  V30 31 2 31 32
M  V30 32 1 32 33
M  V30 33 1 32 34
M  V30 34 1 34 35
M  V30 35 2 34 36
M  V30 36 1 27 37
M  V30 37 2 37 38
M  V30 38 2 15 39
M  V30 39 1 39 40
M  V30 40 2 40 41
M  V30 41 1 5 42
M  V30 42 1 42 2
M  V30 43 1 41 6
M  V30 44 1 41 9
M  V30 45 1 40 12
M  V30 46 1 37 22
M  V30 47 1 36 29
M  V30 48 1 1 43
M  V30 49 1 1 44
M  V30 50 1 1 45
M  V30 51 1 3 46
M  V30 52 1 3 47
M  V30 53 1 4 48
M  V30 54 1 4 49
M  V30 55 1 5 50 CFG=3
M  V30 56 1 7 51
M  V30 57 1 10 52
M  V30 58 1 13 53
M  V30 59 1 14 54
M  V30 60 1 18 55
M  V30 61 1 18 56
M  V30 62 1 19 57
M  V30 63 1 23 58
M  V30 64 1 28 59
M  V30 65 1 28 60
M  V30 66 1 30 61
M  V30 67 1 31 62
M  V30 68 1 36 63
M  V30 69 1 39 64
M  V30 70 1 42 65
M  V30 71 1 42 66
M  V30 END BOND
M  V30 END CTAB
M  END
>  <Dataset>  (359) 
ChEMBL_Kinases

>  <Ligand_Instance>  (359) 
nan

>  <PDB_ID>  (359) 
nan

>  <Standardized_SMILES>  (359) 
CN1CC[C@H](n2cnc3cnc4ccc(C#CCNC(=O)c5cc(Cl)nn(Cc6ccc(F)c(F)c6)c5=O)cc4c32)C1

>  <Name>  (359) 
nan

>  <Pocket>  (359) 
nan

>  <ATP_Site>  (359) 
nan

>  <Peripheral>  (359) 
nan

>  <Num_H_Atoms_ProtBoundConf>  (359) 
nan

>  <Num_Resolved_Atoms>  (359) 
nan

>  <Num_Not_Resolved_Atoms>  (359) 
nan

$$$$
CHEMBL3644744
     RDKit          3D

  0  0  0  0  0  0  0  0  0  0999 V3000
M  V30 BEGIN CTAB
M  V30 COUNTS 72 77 0 0 0
M  V30 BEGIN ATOM
M  V30 1 C 0.217431 0.428015 8.079896 0
M  V30 2 C 1.182232 0.650276 6.943600 0
M  V30 3 N 2.504785 0.744207 7.220991 0
M  V30 4 C 3.123981 0.935303 6.045221 0
M  V30 5 C 4.459932 1.090123 5.776830 0
M  V30 6 N 4.843154 1.268540 4.503656 0
M  V30 7 C 3.907215 1.290253 3.535844 0
M  V30 8 C 4.387804 1.483043 2.257836 0
M  V30 9 C 3.446127 1.512855 1.248911 0
M  V30 10 C 2.099291 1.360224 1.494339 0
M  V30 11 C 1.198816 1.420509 0.359049 0
M  V30 12 C 0.460834 1.465670 -0.586221 0
M  V30 13 C -0.416805 1.522130 -1.748048 0
M  V30 14 N -0.580870 0.184744 -2.280600 0
M  V30 15 C -1.450012 0.297310 -3.379941 0
M  V30 16 O -1.797218 1.517922 -3.552198 0
M  V30 17 C -1.994885 -0.673472 -4.304968 0
M  V30 18 C -2.843178 -0.252127 -5.308083 0
M  V30 19 C -3.381700 -1.146703 -6.198333 0
M  V30 20 Cl -4.454877 -0.472852 -7.442499 0
M  V30 21 N -3.062063 -2.423553 -6.064467 0
M  V30 22 N -2.253579 -2.869282 -5.119216 0
M  V30 23 C -2.133737 -4.293416 -5.242466 0
M  V30 24 C -1.035160 -4.769283 -6.105492 0
M  V30 25 C -0.947800 -4.148521 -7.353550 0
M  V30 26 C 0.062359 -4.694266 -8.159010 0
M  V30 27 C 0.889729 -5.720944 -7.784326 0
M  V30 28 F 1.833117 -6.185485 -8.615503 0
M  V30 29 C 0.753952 -6.279843 -6.552011 0
M  V30 30 F 1.520935 -7.296825 -6.095646 0
M  V30 31 C -0.217458 -5.803868 -5.696884 0
M  V30 32 C -1.728407 -2.011577 -4.254136 0
M  V30 33 O -0.980587 -2.521578 -3.400735 0
M  V30 34 C 1.698447 1.171244 2.804136 0
M  V30 35 C 2.587620 1.133013 3.842457 0
M  V30 36 C 2.094439 0.944287 5.107536 0
M  V30 37 N 0.875908 0.773523 5.605502 0
M  V30 38 C -0.434097 0.715271 5.025234 0 CFG=1
M  V30 39 C -1.055866 2.015408 4.597896 0
M  V30 40 C -2.159960 1.887924 3.613698 0
M  V30 41 C -2.757461 0.494361 3.543223 0
M  V30 42 N -1.690626 -0.369753 3.214028 0
M  V30 43 C -1.958261 -1.523647 2.457621 0
M  V30 44 C -0.812609 -0.536232 4.316112 0
M  V30 45 H -0.537072 -0.324453 7.699054 0
M  V30 46 H -0.317101 1.362140 8.261207 0
M  V30 47 H 0.736963 0.040394 8.951513 0
M  V30 48 H 5.175148 1.066550 6.588760 0
M  V30 49 H 5.422316 1.603744 2.053387 0
M  V30 50 H 3.807579 1.659850 0.247111 0
M  V30 51 H -1.382684 1.956945 -1.414277 0
M  V30 52 H -0.006743 2.197044 -2.535405 0
M  V30 53 H -0.255776 -0.791415 -2.092217 0
M  V30 54 H -3.089864 0.804169 -5.394375 0
M  V30 55 H -1.899413 -4.666683 -4.190034 0
M  V30 56 H -3.100222 -4.798035 -5.487043 0
M  V30 57 H -1.580900 -3.339150 -7.676951 0
M  V30 58 H 0.189083 -4.265453 -9.138829 0
M  V30 59 H -0.347530 -6.228262 -4.709961 0
M  V30 60 H 0.648102 1.072299 2.816712 0
M  V30 61 H -1.077315 0.547742 5.979729 0
M  V30 62 H -0.297381 2.752987 4.191579 0
M  V30 63 H -1.484945 2.625508 5.426226 0
M  V30 64 H -3.020841 2.568285 3.782352 0
M  V30 65 H -1.837495 2.110980 2.557930 0
M  V30 66 H -3.328657 0.220349 4.440996 0
M  V30 67 H -3.479862 0.518418 2.693464 0
M  V30 68 H -1.364355 -2.393283 2.847666 0
M  V30 69 H -1.567102 -1.363591 1.410742 0
M  V30 70 H -3.023454 -1.812638 2.360162 0
M  V30 71 H 0.138224 -0.999976 3.918484 0
M  V30 72 H -1.237321 -1.355531 4.933372 0
M  V30 END ATOM
M  V30 BEGIN BOND
M  V30 1 1 1 2
M  V30 2 2 2 3
M  V30 3 1 3 4
M  V30 4 2 4 5
M  V30 5 1 5 6
M  V30 6 2 6 7
M  V30 7 1 7 8
M  V30 8 2 8 9
M  V30 9 1 9 10
M  V30 10 1 10 11
M  V30 11 3 11 12
M  V30 12 1 12 13
M  V30 13 1 13 14
M  V30 14 1 14 15
M  V30 15 2 15 16
M  V30 16 1 15 17
M  V30 17 2 17 18
M  V30 18 1 18 19
M  V30 19 1 19 20
M  V30 20 2 19 21
M  V30 21 1 21 22
M  V30 22 1 22 23
M  V30 23 1 23 24
M  V30 24 2 24 25
M  V30 25 1 25 26
M  V30 26 2 26 27
M  V30 27 1 27 28
M  V30 28 1 27 29
M  V30 29 1 29 30
M  V30 30 2 29 31
M  V30 31 1 22 32
M  V30 32 2 32 33
M  V30 33 2 10 34
M  V30 34 1 34 35
M  V30 35 2 35 36
M  V30 36 1 36 37
M  V30 37 1 37 38
M  V30 38 1 38 39
M  V30 39 1 39 40
M  V30 40 1 40 41
M  V30 41 1 41 42
M  V30 42 1 42 43
M  V30 43 1 42 44
M  V30 44 1 37 2
M  V30 45 1 44 38
M  V30 46 1 36 4
M  V30 47 1 35 7
M  V30 48 1 32 17
M  V30 49 1 31 24
M  V30 50 1 1 45
M  V30 51 1 1 46
M  V30 52 1 1 47
M  V30 53 1 5 48
M  V30 54 1 8 49
M  V30 55 1 9 50
M  V30 56 1 13 51
M  V30 57 1 13 52
M  V30 58 1 14 53
M  V30 59 1 18 54
M  V30 60 1 23 55
M  V30 61 1 23 56
M  V30 62 1 25 57
M  V30 63 1 26 58
M  V30 64 1 31 59
M  V30 65 1 34 60
M  V30 66 1 38 61 CFG=1
M  V30 67 1 39 62
M  V30 68 1 39 63
M  V30 69 1 40 64
M  V30 70 1 40 65
M  V30 71 1 41 66
M  V30 72 1 41 67
M  V30 73 1 43 68
M  V30 74 1 43 69
M  V30 75 1 43 70
M  V30 76 1 44 71
M  V30 77 1 44 72
M  V30 END BOND
M  V30 END CTAB
M  END
>  <Dataset>  (360) 
ChEMBL_Kinases

>  <Ligand_Instance>  (360) 
nan

>  <PDB_ID>  (360) 
nan

>  <Standardized_SMILES>  (360) 
Cc1nc2cnc3ccc(C#CCNC(=O)c4cc(Cl)nn(Cc5ccc(F)c(F)c5)c4=O)cc3c2n1[C@H]1CCCN(C)C1

>  <Name>  (360) 
nan

>  <Pocket>  (360) 
nan

>  <ATP_Site>  (360) 
nan

>  <Peripheral>  (360) 
nan

>  <Num_H_Atoms_ProtBoundConf>  (360) 
nan

>  <Num_Resolved_Atoms>  (360) 
nan

>  <Num_Not_Resolved_Atoms>  (360) 
nan

$$$$
CHEMBL3644745
     RDKit          3D

  0  0  0  0  0  0  0  0  0  0999 V3000
M  V30 BEGIN CTAB
M  V30 COUNTS 69 74 0 0 0
M  V30 BEGIN ATOM
M  V30 1 C -4.209270 -3.019018 -1.309664 0
M  V30 2 N -3.670593 -3.209633 -2.582669 0
M  V30 3 C -4.492030 -3.158446 -3.738126 0
M  V30 4 C -3.572503 -3.492278 -4.912326 0
M  V30 5 C -2.275107 -4.111938 -4.510912 0
M  V30 6 C -1.479354 -3.323397 -3.448391 0 CFG=1
M  V30 7 N -0.382547 -2.715279 -4.103043 0
M  V30 8 C -0.269317 -2.516387 -5.430196 0
M  V30 9 N 0.900720 -1.929758 -5.793872 0
M  V30 10 C 1.594443 -1.729733 -4.662700 0
M  V30 11 C 2.848582 -1.157540 -4.505836 0
M  V30 12 N 3.322222 -1.069381 -3.246112 0
M  V30 13 C 2.579372 -1.523026 -2.198850 0
M  V30 14 C 3.114808 -1.353171 -0.912863 0
M  V30 15 C 2.332582 -1.776077 0.141184 0
M  V30 16 C 1.067258 -2.346449 -0.033510 0
M  V30 17 C 0.324953 -2.643858 1.198077 0
M  V30 18 C -0.291148 -2.868472 2.196266 0
M  V30 19 C -1.045345 -3.116633 3.408249 0
M  V30 20 N -0.704741 -1.981022 4.361500 0
M  V30 21 C -0.479093 -1.043038 5.242635 0
M  V30 22 O -1.245459 -1.237380 6.265395 0
M  V30 23 C 0.333644 0.099943 5.369159 0
M  V30 24 C 1.565734 -0.327298 4.594661 0
M  V30 25 C 2.783204 0.346415 4.316935 0
M  V30 26 Cl 4.212921 -0.178932 3.397179 0
M  V30 27 N 2.877281 1.618075 4.835585 0
M  V30 28 N 1.853622 2.146794 5.547414 0
M  V30 29 C 1.663459 3.456583 6.080734 0
M  V30 30 C 1.251207 4.404579 4.963406 0
M  V30 31 C 1.885248 5.642154 4.787502 0
M  V30 32 C 1.503845 6.445844 3.705628 0
M  V30 33 C 0.545394 6.093010 2.805786 0
M  V30 34 F 0.161811 6.857504 1.761695 0
M  V30 35 C -0.089353 4.882945 2.958023 0
M  V30 36 F -1.061119 4.465951 2.070042 0
M  V30 37 C 0.277256 4.087617 4.017236 0
M  V30 38 C 1.069965 1.120917 5.468399 0
M  V30 39 O -0.035103 1.556922 6.185326 0
M  V30 40 C 0.571877 -2.502737 -1.312741 0
M  V30 41 C 1.313118 -2.097115 -2.388203 0
M  V30 42 C 0.782583 -2.218255 -3.655799 0
M  V30 43 C -2.518303 -2.385169 -2.896236 0
M  V30 44 H -4.020385 -3.942815 -0.667364 0
M  V30 45 H -5.296556 -2.783219 -1.240697 0
M  V30 46 H -3.613339 -2.242324 -0.762796 0
M  V30 47 H -5.398077 -3.771531 -3.686004 0
M  V30 48 H -4.866868 -2.092049 -3.824503 0
M  V30 49 H -4.117845 -4.304581 -5.437079 0
M  V30 50 H -3.485783 -2.667990 -5.650957 0
M  V30 51 H -2.508442 -5.157347 -4.193416 0
M  V30 52 H -1.681585 -4.264366 -5.439146 0
M  V30 53 H -1.212969 -4.188561 -2.804381 0
M  V30 54 H -0.905231 -2.711515 -6.273592 0
M  V30 55 H 3.406417 -0.796692 -5.338084 0
M  V30 56 H 4.071635 -0.908673 -0.830448 0
M  V30 57 H 2.808976 -1.621895 1.090940 0
M  V30 58 H -0.828272 -4.077831 3.900200 0
M  V30 59 H -2.130422 -3.047730 3.283497 0
M  V30 60 H -0.040089 -1.569632 3.637117 0
M  V30 61 H 1.852394 -1.299491 4.033176 0
M  V30 62 H 2.643724 3.794354 6.478751 0
M  V30 63 H 0.926375 3.517565 6.873866 0
M  V30 64 H 2.672757 5.968888 5.496889 0
M  V30 65 H 2.003826 7.394217 3.589553 0
M  V30 66 H -0.262455 3.145335 4.066968 0
M  V30 67 H -0.349649 -2.933352 -1.280665 0
M  V30 68 H -2.713349 -1.644151 -3.719352 0
M  V30 69 H -2.262671 -1.794226 -2.034117 0
M  V30 END ATOM
M  V30 BEGIN BOND
M  V30 1 1 1 2
M  V30 2 1 2 3
M  V30 3 1 3 4
M  V30 4 1 4 5
M  V30 5 1 5 6
M  V30 6 1 6 7
M  V30 7 1 7 8
M  V30 8 2 8 9
M  V30 9 1 9 10
M  V30 10 2 10 11
M  V30 11 1 11 12
M  V30 12 2 12 13
M  V30 13 1 13 14
M  V30 14 2 14 15
M  V30 15 1 15 16
M  V30 16 1 16 17
M  V30 17 3 17 18
M  V30 18 1 18 19
M  V30 19 1 19 20
M  V30 20 1 20 21
M  V30 21 2 21 22
M  V30 22 1 21 23
M  V30 23 2 23 24
M  V30 24 1 24 25
M  V30 25 1 25 26
M  V30 26 2 25 27
M  V30 27 1 27 28
M  V30 28 1 28 29
M  V30 29 1 29 30
M  V30 30 2 30 31
M  V30 31 1 31 32
M  V30 32 2 32 33
M  V30 33 1 33 34
M  V30 34 1 33 35
M  V30 35 1 35 36
M  V30 36 2 35 37
M  V30 37 1 28 38
M  V30 38 2 38 39
M  V30 39 2 16 40
M  V30 40 1 40 41
M  V30 41 2 41 42
M  V30 42 1 6 43
M  V30 43 1 43 2
M  V30 44 1 42 7
M  V30 45 1 42 10
M  V30 46 1 41 13
M  V30 47 1 38 23
M  V30 48 1 37 30
M  V30 49 1 1 44
M  V30 50 1 1 45
M  V30 51 1 1 46
M  V30 52 1 3 47
M  V30 53 1 3 48
M  V30 54 1 4 49
M  V30 55 1 4 50
M  V30 56 1 5 51
M  V30 57 1 5 52
M  V30 58 1 6 53 CFG=1
M  V30 59 1 8 54
M  V30 60 1 11 55
M  V30 61 1 14 56
M  V30 62 1 15 57
M  V30 63 1 19 58
M  V30 64 1 19 59
M  V30 65 1 20 60
M  V30 66 1 24 61
M  V30 67 1 29 62
M  V30 68 1 29 63
M  V30 69 1 31 64
M  V30 70 1 32 65
M  V30 71 1 37 66
M  V30 72 1 40 67
M  V30 73 1 43 68
M  V30 74 1 43 69
M  V30 END BOND
M  V30 END CTAB
M  END
>  <Dataset>  (361) 
ChEMBL_Kinases

>  <Ligand_Instance>  (361) 
nan

>  <PDB_ID>  (361) 
nan

>  <Standardized_SMILES>  (361) 
CN1CCC[C@@H](n2cnc3cnc4ccc(C#CCNC(=O)c5cc(Cl)nn(Cc6ccc(F)c(F)c6)c5=O)cc4c32)C1

>  <Name>  (361) 
nan

>  <Pocket>  (361) 
nan

>  <ATP_Site>  (361) 
nan

>  <Peripheral>  (361) 
nan

>  <Num_H_Atoms_ProtBoundConf>  (361) 
nan

>  <Num_Resolved_Atoms>  (361) 
nan

>  <Num_Not_Resolved_Atoms>  (361) 
nan

$$$$
CHEMBL3644746
     RDKit          3D

  0  0  0  0  0  0  0  0  0  0999 V3000
M  V30 BEGIN CTAB
M  V30 COUNTS 80 85 0 0 0
M  V30 BEGIN ATOM
M  V30 1 C 3.631963 -2.148247 5.498440 0
M  V30 2 C 2.992952 -0.976037 4.837502 0
M  V30 3 C 2.672349 -0.847130 3.502333 0
M  V30 4 C 2.924677 -1.886242 2.508980 0
M  V30 5 O 3.463924 -2.960600 2.881184 0
M  V30 6 N 2.624090 -1.816841 1.149098 0
M  V30 7 C 2.886921 -2.865094 0.189099 0
M  V30 8 C 2.447157 -2.468113 -1.164909 0
M  V30 9 C 2.092889 -2.123852 -2.272305 0
M  V30 10 C 1.660899 -1.693328 -3.584912 0
M  V30 11 C 2.639444 -1.294797 -4.474775 0
M  V30 12 C 2.331501 -0.864086 -5.747208 0
M  V30 13 C 0.990802 -0.860011 -6.063504 0
M  V30 14 N 0.703771 -0.418225 -7.322320 0
M  V30 15 C -0.570064 -0.351975 -7.756139 0
M  V30 16 C -1.564897 -0.745548 -6.888207 0
M  V30 17 N -2.924406 -0.788867 -7.033354 0
M  V30 18 C -3.413608 -1.254021 -5.868708 0
M  V30 19 N -2.484233 -1.534795 -4.933467 0
M  V30 20 C -2.731771 -2.046860 -3.640414 0
M  V30 21 C -2.871947 -0.987370 -2.576968 0
M  V30 22 C -3.275887 -1.508776 -1.236132 0
M  V30 23 N -4.489933 -2.268903 -1.266272 0
M  V30 24 C -5.377280 -2.059016 -0.192770 0
M  V30 25 C -6.618180 -2.887313 -0.262745 0
M  V30 26 C -4.646417 -2.498721 1.077109 0
M  V30 27 C -5.029821 -2.186326 -2.599638 0
M  V30 28 C -4.110360 -2.736713 -3.642339 0
M  V30 29 C -1.364515 -1.205934 -5.600897 0
M  V30 30 C -0.036061 -1.243710 -5.227817 0
M  V30 31 C 0.316994 -1.663731 -3.973894 0
M  V30 32 C 2.096093 0.392991 3.301681 0
M  V30 33 O 1.674520 0.868912 2.213234 0
M  V30 34 N 2.074209 1.001687 4.522950 0
M  V30 35 C 1.544288 2.334654 4.755026 0
M  V30 36 C 2.678619 3.297123 4.567771 0
M  V30 37 C 3.458739 3.646592 5.649271 0
M  V30 38 C 4.531516 4.538472 5.546234 0
M  V30 39 C 4.786796 5.069949 4.289870 0
M  V30 40 F 5.821123 5.936914 4.161533 0
M  V30 41 C 4.016931 4.739101 3.170859 0
M  V30 42 F 4.299583 5.281202 1.954442 0
M  V30 43 C 2.961118 3.841980 3.344540 0
M  V30 44 N 2.607727 0.177528 5.414182 0
M  V30 45 C 2.783956 0.419449 6.838299 0
M  V30 46 H 4.500385 -2.539562 4.937418 0
M  V30 47 H 3.961731 -1.810018 6.503941 0
M  V30 48 H 2.876638 -2.958067 5.694493 0
M  V30 49 H 2.169240 -0.926667 0.791702 0
M  V30 50 H 3.924810 -3.166100 0.088193 0
M  V30 51 H 2.276709 -3.743894 0.548039 0
M  V30 52 H 3.684314 -1.308507 -4.197011 0
M  V30 53 H 3.083166 -0.552767 -6.443364 0
M  V30 54 H -0.852803 -0.011443 -8.734352 0
M  V30 55 H -4.492981 -1.294861 -5.930591 0
M  V30 56 H -2.158086 -2.950024 -3.340320 0
M  V30 57 H -3.609545 -0.246478 -2.953107 0
M  V30 58 H -1.921451 -0.443753 -2.426586 0
M  V30 59 H -3.406212 -0.617879 -0.587251 0
M  V30 60 H -2.469518 -2.116729 -0.800508 0
M  V30 61 H -5.685602 -1.006321 -0.014982 0
M  V30 62 H -7.071869 -2.857664 0.767947 0
M  V30 63 H -7.385847 -2.551498 -0.956887 0
M  V30 64 H -6.304631 -3.942616 -0.392976 0
M  V30 65 H -4.621265 -3.622915 1.002470 0
M  V30 66 H -5.213505 -2.199405 1.961358 0
M  V30 67 H -3.633031 -2.076447 1.153905 0
M  V30 68 H -5.891346 -2.890063 -2.595947 0
M  V30 69 H -5.490703 -1.208022 -2.849668 0
M  V30 70 H -4.033340 -3.841582 -3.411062 0
M  V30 71 H -4.552532 -2.663402 -4.617802 0
M  V30 72 H -0.296014 -1.971140 -3.224623 0
M  V30 73 H 0.818800 2.578230 3.949355 0
M  V30 74 H 1.090549 2.404706 5.761885 0
M  V30 75 H 3.307217 3.265514 6.650024 0
M  V30 76 H 5.138422 4.805695 6.409723 0
M  V30 77 H 2.361456 3.584499 2.466134 0
M  V30 78 H 2.501876 -0.469182 7.442060 0
M  V30 79 H 2.130842 1.242391 7.197572 0
M  V30 80 H 3.829365 0.722046 7.070685 0
M  V30 END ATOM
M  V30 BEGIN BOND
M  V30 1 1 1 2
M  V30 2 2 2 3
M  V30 3 1 3 4
M  V30 4 2 4 5
M  V30 5 1 4 6
M  V30 6 1 6 7
M  V30 7 1 7 8
M  V30 8 3 8 9
M  V30 9 1 9 10
M  V30 10 2 10 11
M  V30 11 1 11 12
M  V30 12 2 12 13
M  V30 13 1 13 14
M  V30 14 2 14 15
M  V30 15 1 15 16
M  V30 16 1 16 17
M  V30 17 2 17 18
M  V30 18 1 18 19
M  V30 19 1 19 20
M  V30 20 1 20 21
M  V30 21 1 21 22
M  V30 22 1 22 23
M  V30 23 1 23 24
M  V30 24 1 24 25
M  V30 25 1 24 26
M  V30 26 1 23 27
M  V30 27 1 27 28
M  V30 28 1 19 29
M  V30 29 1 29 30
M  V30 30 2 30 31
M  V30 31 1 3 32
M  V30 32 2 32 33
M  V30 33 1 32 34
M  V30 34 1 34 35
M  V30 35 1 35 36
M  V30 36 2 36 37
M  V30 37 1 37 38
M  V30 38 2 38 39
M  V30 39 1 39 40
M  V30 40 1 39 41
M  V30 41 1 41 42
M  V30 42 2 41 43
M  V30 43 1 34 44
M  V30 44 1 44 45
M  V30 45 1 44 2
M  V30 46 1 31 10
M  V30 47 1 43 36
M  V30 48 1 30 13
M  V30 49 2 29 16
M  V30 50 1 28 20
M  V30 51 1 1 46
M  V30 52 1 1 47
M  V30 53 1 1 48
M  V30 54 1 6 49
M  V30 55 1 7 50
M  V30 56 1 7 51
M  V30 57 1 11 52
M  V30 58 1 12 53
M  V30 59 1 15 54
M  V30 60 1 18 55
M  V30 61 1 20 56
M  V30 62 1 21 57
M  V30 63 1 21 58
M  V30 64 1 22 59
M  V30 65 1 22 60
M  V30 66 1 24 61
M  V30 67 1 25 62
M  V30 68 1 25 63
M  V30 69 1 25 64
M  V30 70 1 26 65
M  V30 71 1 26 66
M  V30 72 1 26 67
M  V30 73 1 27 68
M  V30 74 1 27 69
M  V30 75 1 28 70
M  V30 76 1 28 71
M  V30 77 1 31 72
M  V30 78 1 35 73
M  V30 79 1 35 74
M  V30 80 1 37 75
M  V30 81 1 38 76
M  V30 82 1 43 77
M  V30 83 1 45 78
M  V30 84 1 45 79
M  V30 85 1 45 80
M  V30 END BOND
M  V30 END CTAB
M  END
>  <Dataset>  (362) 
ChEMBL_Kinases

>  <Ligand_Instance>  (362) 
nan

>  <PDB_ID>  (362) 
nan

>  <Standardized_SMILES>  (362) 
Cc1c(C(=O)NCC#Cc2ccc3ncc4ncn(C5CCN(C(C)C)CC5)c4c3c2)c(=O)n(Cc2ccc(F)c(F)c2)n1C

>  <Name>  (362) 
nan

>  <Pocket>  (362) 
nan

>  <ATP_Site>  (362) 
nan

>  <Peripheral>  (362) 
nan

>  <Num_H_Atoms_ProtBoundConf>  (362) 
nan

>  <Num_Resolved_Atoms>  (362) 
nan

>  <Num_Not_Resolved_Atoms>  (362) 
nan

$$$$
CHEMBL3644747
     RDKit          3D

  0  0  0  0  0  0  0  0  0  0999 V3000
M  V30 BEGIN CTAB
M  V30 COUNTS 77 82 0 0 0
M  V30 BEGIN ATOM
M  V30 1 C 0.900591 -3.691094 -1.389210 0
M  V30 2 C 2.337010 -4.081797 -1.240040 0
M  V30 3 N 3.172586 -3.046128 -0.656396 0
M  V30 4 C 4.512842 -3.559747 -0.579534 0
M  V30 5 C 5.493116 -2.449238 -0.568737 0
M  V30 6 C 4.859458 -1.190133 0.094847 0
M  V30 7 N 5.928214 -0.296395 0.325013 0
M  V30 8 C 7.178361 -0.393360 -0.233481 0
M  V30 9 N 8.035881 0.562219 0.120497 0
M  V30 10 C 7.352900 1.372928 0.971667 0
M  V30 11 C 7.725577 2.508464 1.643550 0
M  V30 12 N 6.842386 3.133730 2.439877 0
M  V30 13 C 5.576483 2.630805 2.573120 0
M  V30 14 C 4.742117 3.336291 3.412056 0
M  V30 15 C 3.470623 2.823399 3.544762 0
M  V30 16 C 3.057139 1.685215 2.886221 0
M  V30 17 C 1.698455 1.229119 3.105644 0
M  V30 18 C 0.567472 0.835782 3.284550 0
M  V30 19 C -0.796508 0.335108 3.496163 0
M  V30 20 N -1.458097 0.077046 2.224930 0
M  V30 21 C -2.766667 -0.416801 2.138301 0
M  V30 22 O -3.208183 -0.581065 3.326140 0
M  V30 23 C -3.501251 -0.696403 0.910314 0
M  V30 24 C -3.337751 -0.559635 -0.450561 0
M  V30 25 C -2.092907 0.061912 -0.950481 0
M  V30 26 N -4.415203 -1.042743 -1.093500 0
M  V30 27 C -4.472561 -1.012446 -2.525077 0
M  V30 28 N -5.268577 -1.485938 -0.195274 0
M  V30 29 C -6.536082 -2.078232 -0.554611 0
M  V30 30 C -7.654198 -1.158345 -0.643177 0
M  V30 31 C -8.466038 -0.925560 0.431433 0
M  V30 32 C -9.555797 -0.073154 0.469234 0
M  V30 33 C -9.818291 0.598322 -0.731629 0
M  V30 34 F -10.874884 1.470436 -0.813926 0
M  V30 35 C -9.035266 0.406000 -1.850565 0
M  V30 36 F -9.308083 1.074819 -3.021956 0
M  V30 37 C -7.956306 -0.464492 -1.820081 0
M  V30 38 C -4.758015 -1.298290 1.035889 0
M  V30 39 O -5.426449 -1.660639 2.063527 0
M  V30 40 C 3.951194 1.008709 2.043504 0
M  V30 41 C 5.226399 1.488498 1.886366 0
M  V30 42 C 6.089350 0.812055 1.061256 0
M  V30 43 C 3.931251 -0.752380 -1.022984 0
M  V30 44 C 3.041139 -1.866871 -1.489382 0
M  V30 45 H 0.277615 -4.606500 -1.182446 0
M  V30 46 H 0.655991 -2.889214 -0.689775 0
M  V30 47 H 0.660179 -3.391899 -2.430887 0
M  V30 48 H 2.470969 -5.035415 -0.679916 0
M  V30 49 H 2.749051 -4.261822 -2.268246 0
M  V30 50 H 4.637432 -4.268863 0.269229 0
M  V30 51 H 4.755588 -4.193712 -1.485292 0
M  V30 52 H 5.833823 -2.215887 -1.585506 0
M  V30 53 H 6.433762 -2.716002 -0.001599 0
M  V30 54 H 4.411314 -1.718314 0.929265 0
M  V30 55 H 7.550761 -1.156199 -0.928290 0
M  V30 56 H 8.758552 2.863688 1.494499 0
M  V30 57 H 5.097374 4.222689 3.912572 0
M  V30 58 H 2.798332 3.360475 4.201897 0
M  V30 59 H -0.727370 -0.549894 4.130859 0
M  V30 60 H -1.377253 1.114199 4.029488 0
M  V30 61 H -0.911636 0.274708 1.359921 0
M  V30 62 H -1.190938 -0.568294 -0.846740 0
M  V30 63 H -2.195016 0.198547 -2.069622 0
M  V30 64 H -1.978490 1.100525 -0.580106 0
M  V30 65 H -3.460542 -1.105720 -2.998937 0
M  V30 66 H -4.850780 -0.014422 -2.831862 0
M  V30 67 H -5.103723 -1.762903 -2.992351 0
M  V30 68 H -6.777250 -2.835004 0.235774 0
M  V30 69 H -6.412710 -2.633485 -1.489203 0
M  V30 70 H -8.233117 -1.462858 1.339081 0
M  V30 71 H -10.178656 0.094519 1.317212 0
M  V30 72 H -7.335901 -0.617453 -2.703172 0
M  V30 73 H 3.501588 0.178533 1.615894 0
M  V30 74 H 4.556276 -0.468228 -1.890950 0
M  V30 75 H 3.311158 0.116931 -0.754953 0
M  V30 76 H 3.159949 -2.108523 -2.579874 0
M  V30 77 H 1.991981 -1.527165 -1.398555 0
M  V30 END ATOM
M  V30 BEGIN BOND
M  V30 1 1 1 2
M  V30 2 1 2 3
M  V30 3 1 3 4
M  V30 4 1 4 5
M  V30 5 1 5 6
M  V30 6 1 6 7
M  V30 7 1 7 8
M  V30 8 2 8 9
M  V30 9 1 9 10
M  V30 10 2 10 11
M  V30 11 1 11 12
M  V30 12 2 12 13
M  V30 13 1 13 14
M  V30 14 2 14 15
M  V30 15 1 15 16
M  V30 16 1 16 17
M  V30 17 3 17 18
M  V30 18 1 18 19
M  V30 19 1 19 20
M  V30 20 1 20 21
M  V30 21 2 21 22
M  V30 22 1 21 23
M  V30 23 2 23 24
M  V30 24 1 24 25
M  V30 25 1 24 26
M  V30 26 1 26 27
M  V30 27 1 26 28
M  V30 28 1 28 29
M  V30 29 1 29 30
M  V30 30 2 30 31
M  V30 31 1 31 32
M  V30 32 2 32 33
M  V30 33 1 33 34
M  V30 34 1 33 35
M  V30 35 1 35 36
M  V30 36 2 35 37
M  V30 37 1 28 38
M  V30 38 2 38 39
M  V30 39 2 16 40
M  V30 40 1 40 41
M  V30 41 2 41 42
M  V30 42 1 6 43
M  V30 43 1 43 44
M  V30 44 1 44 3
M  V30 45 1 42 7
M  V30 46 1 42 10
M  V30 47 1 41 13
M  V30 48 1 38 23
M  V30 49 1 37 30
M  V30 50 1 1 45
M  V30 51 1 1 46
M  V30 52 1 1 47
M  V30 53 1 2 48
M  V30 54 1 2 49
M  V30 55 1 4 50
M  V30 56 1 4 51
M  V30 57 1 5 52
M  V30 58 1 5 53
M  V30 59 1 6 54
M  V30 60 1 8 55
M  V30 61 1 11 56
M  V30 62 1 14 57
M  V30 63 1 15 58
M  V30 64 1 19 59
M  V30 65 1 19 60
M  V30 66 1 20 61
M  V30 67 1 25 62
M  V30 68 1 25 63
M  V30 69 1 25 64
M  V30 70 1 27 65
M  V30 71 1 27 66
M  V30 72 1 27 67
M  V30 73 1 29 68
M  V30 74 1 29 69
M  V30 75 1 31 70
M  V30 76 1 32 71
M  V30 77 1 37 72
M  V30 78 1 40 73
M  V30 79 1 43 74
M  V30 80 1 43 75
M  V30 81 1 44 76
M  V30 82 1 44 77
M  V30 END BOND
M  V30 END CTAB
M  END
>  <Dataset>  (363) 
ChEMBL_Kinases

>  <Ligand_Instance>  (363) 
nan

>  <PDB_ID>  (363) 
nan

>  <Standardized_SMILES>  (363) 
CCN1CCC(n2cnc3cnc4ccc(C#CCNC(=O)c5c(C)n(C)n(Cc6ccc(F)c(F)c6)c5=O)cc4c32)CC1

>  <Name>  (363) 
nan

>  <Pocket>  (363) 
nan

>  <ATP_Site>  (363) 
nan

>  <Peripheral>  (363) 
nan

>  <Num_H_Atoms_ProtBoundConf>  (363) 
nan

>  <Num_Resolved_Atoms>  (363) 
nan

>  <Num_Not_Resolved_Atoms>  (363) 
nan

$$$$
CHEMBL3644748
     RDKit          3D

  0  0  0  0  0  0  0  0  0  0999 V3000
M  V30 BEGIN CTAB
M  V30 COUNTS 73 78 0 0 0
M  V30 BEGIN ATOM
M  V30 1 C 5.652237 -3.697082 3.607058 0
M  V30 2 C 5.775407 -2.481684 2.792677 0
M  V30 3 N 7.040475 -2.005039 2.553049 0
M  V30 4 C 6.958573 -0.896160 1.825917 0
M  V30 5 C 7.992953 -0.107146 1.372782 0
M  V30 6 N 7.610302 0.971401 0.653984 0
M  V30 7 C 6.315430 1.240180 0.409376 0
M  V30 8 C 6.079773 2.380034 -0.326516 0
M  V30 9 C 4.753654 2.673704 -0.572062 0
M  V30 10 C 3.712878 1.880322 -0.112616 0
M  V30 11 C 2.348734 2.250565 -0.411350 0
M  V30 12 C 1.207118 2.539136 -0.665271 0
M  V30 13 C -0.206995 2.871378 -0.969933 0
M  V30 14 N -0.946340 1.660049 -1.283566 0
M  V30 15 C -2.321930 1.669100 -1.615329 0
M  V30 16 O -2.702119 2.888807 -1.573261 0
M  V30 17 C -3.158235 0.533267 -1.942549 0
M  V30 18 C -3.073698 -0.833987 -2.055154 0
M  V30 19 C -1.776288 -1.502915 -1.778120 0
M  V30 20 N -4.222336 -1.380386 -2.411994 0
M  V30 21 C -4.368607 -2.826949 -2.594094 0
M  V30 22 N -5.084988 -0.388385 -2.541539 0
M  V30 23 C -6.456410 -0.630010 -2.928262 0
M  V30 24 C -7.383173 -0.858021 -1.823693 0
M  V30 25 C -7.677056 -2.096789 -1.284988 0
M  V30 26 C -8.554259 -2.301119 -0.243514 0
M  V30 27 C -9.170297 -1.206663 0.287229 0
M  V30 28 F -10.034063 -1.424321 1.316229 0
M  V30 29 C -8.910396 0.059631 -0.216557 0
M  V30 30 F -9.573248 1.080367 0.382282 0
M  V30 31 C -8.018001 0.217182 -1.268171 0
M  V30 32 C -4.479470 0.776448 -2.266975 0
M  V30 33 O -5.136205 1.854517 -2.333965 0
M  V30 34 C 4.060933 0.744457 0.625537 0
M  V30 35 C 5.351843 0.391739 0.904783 0
M  V30 36 C 5.622312 -0.736684 1.647248 0
M  V30 37 N 4.851474 -1.677314 2.214424 0
M  V30 38 C 3.450883 -1.860737 2.224449 0
M  V30 39 C 2.705118 -1.097506 3.292354 0
M  V30 40 C 1.230588 -1.153767 2.904417 0
M  V30 41 O 1.010566 -2.113389 1.918157 0
M  V30 42 C 1.508014 -3.347192 2.244991 0
M  V30 43 C 3.034034 -3.340357 2.476424 0
M  V30 44 H 5.169130 -3.516290 4.616224 0
M  V30 45 H 6.680412 -4.055220 3.936277 0
M  V30 46 H 5.255473 -4.589068 3.100225 0
M  V30 47 H 9.021973 -0.348997 1.585780 0
M  V30 48 H 6.885709 3.001429 -0.687432 0
M  V30 49 H 4.537390 3.562973 -1.147849 0
M  V30 50 H -0.679664 3.358493 -0.099572 0
M  V30 51 H -0.187265 3.573500 -1.812251 0
M  V30 52 H -0.430950 0.770425 -1.258628 0
M  V30 53 H -1.006824 -1.149432 -2.489217 0
M  V30 54 H -1.939270 -2.603259 -1.911012 0
M  V30 55 H -1.430902 -1.284737 -0.741217 0
M  V30 56 H -5.277436 -3.089022 -3.130001 0
M  V30 57 H -4.229395 -3.289374 -1.605605 0
M  V30 58 H -3.510431 -3.164857 -3.242016 0
M  V30 59 H -6.519933 -1.512841 -3.595174 0
M  V30 60 H -6.756902 0.243702 -3.557860 0
M  V30 61 H -7.195548 -2.972946 -1.698106 0
M  V30 62 H -8.729752 -3.301408 0.120285 0
M  V30 63 H -7.855028 1.208386 -1.615802 0
M  V30 64 H 3.212097 0.233121 0.934526 0
M  V30 65 H 2.914031 -1.719831 1.265619 0
M  V30 66 H 3.054057 -0.054011 3.423703 0
M  V30 67 H 2.806876 -1.666640 4.232228 0
M  V30 68 H 0.905031 -0.175297 2.462630 0
M  V30 69 H 0.566606 -1.356226 3.750185 0
M  V30 70 H 0.960536 -3.781876 3.096804 0
M  V30 71 H 1.309838 -4.025161 1.388033 0
M  V30 72 H 3.537703 -3.918615 1.701202 0
M  V30 73 H 3.153988 -3.601228 3.507259 0
M  V30 END ATOM
M  V30 BEGIN BOND
M  V30 1 1 1 2
M  V30 2 2 2 3
M  V30 3 1 3 4
M  V30 4 2 4 5
M  V30 5 1 5 6
M  V30 6 2 6 7
M  V30 7 1 7 8
M  V30 8 2 8 9
M  V30 9 1 9 10
M  V30 10 1 10 11
M  V30 11 3 11 12
M  V30 12 1 12 13
M  V30 13 1 13 14
M  V30 14 1 14 15
M  V30 15 2 15 16
M  V30 16 1 15 17
M  V30 17 2 17 18
M  V30 18 1 18 19
M  V30 19 1 18 20
M  V30 20 1 20 21
M  V30 21 1 20 22
M  V30 22 1 22 23
M  V30 23 1 23 24
M  V30 24 2 24 25
M  V30 25 1 25 26
M  V30 26 2 26 27
M  V30 27 1 27 28
M  V30 28 1 27 29
M  V30 29 1 29 30
M  V30 30 2 29 31
M  V30 31 1 22 32
M  V30 32 2 32 33
M  V30 33 2 10 34
M  V30 34 1 34 35
M  V30 35 2 35 36
M  V30 36 1 36 37
M  V30 37 1 37 38
M  V30 38 1 38 39
M  V30 39 1 39 40
M  V30 40 1 40 41
M  V30 41 1 41 42
M  V30 42 1 42 43
M  V30 43 1 37 2
M  V30 44 1 43 38
M  V30 45 1 36 4
M  V30 46 1 35 7
M  V30 47 1 32 17
M  V30 48 1 31 24
M  V30 49 1 1 44
M  V30 50 1 1 45
M  V30 51 1 1 46
M  V30 52 1 5 47
M  V30 53 1 8 48
M  V30 54 1 9 49
M  V30 55 1 13 50
M  V30 56 1 13 51
M  V30 57 1 14 52
M  V30 58 1 19 53
M  V30 59 1 19 54
M  V30 60 1 19 55
M  V30 61 1 21 56
M  V30 62 1 21 57
M  V30 63 1 21 58
M  V30 64 1 23 59
M  V30 65 1 23 60
M  V30 66 1 25 61
M  V30 67 1 26 62
M  V30 68 1 31 63
M  V30 69 1 34 64
M  V30 70 1 38 65
M  V30 71 1 39 66
M  V30 72 1 39 67
M  V30 73 1 40 68
M  V30 74 1 40 69
M  V30 75 1 42 70
M  V30 76 1 42 71
M  V30 77 1 43 72
M  V30 78 1 43 73
M  V30 END BOND
M  V30 END CTAB
M  END
>  <Dataset>  (364) 
ChEMBL_Kinases

>  <Ligand_Instance>  (364) 
nan

>  <PDB_ID>  (364) 
nan

>  <Standardized_SMILES>  (364) 
Cc1nc2cnc3ccc(C#CCNC(=O)c4c(C)n(C)n(Cc5ccc(F)c(F)c5)c4=O)cc3c2n1C1CCOCC1

>  <Name>  (364) 
nan

>  <Pocket>  (364) 
nan

>  <ATP_Site>  (364) 
nan

>  <Peripheral>  (364) 
nan

>  <Num_H_Atoms_ProtBoundConf>  (364) 
nan

>  <Num_Resolved_Atoms>  (364) 
nan

>  <Num_Not_Resolved_Atoms>  (364) 
nan

$$$$
CHEMBL3644758
     RDKit          3D

  0  0  0  0  0  0  0  0  0  0999 V3000
M  V30 BEGIN CTAB
M  V30 COUNTS 57 61 0 0 0
M  V30 BEGIN ATOM
M  V30 1 C 1.713572 -0.058857 4.247045 0
M  V30 2 C 1.985156 -0.842706 2.981086 0
M  V30 3 N 3.243899 -0.598304 2.379309 0
M  V30 4 C 4.406822 -1.304039 2.609970 0
M  V30 5 N 5.462070 -0.884204 1.905605 0
M  V30 6 C 5.020372 0.152193 1.156125 0
M  V30 7 C 5.715552 0.929337 0.263376 0
M  V30 8 N 5.012137 1.921315 -0.360894 0
M  V30 9 C 3.701741 2.103132 -0.091726 0
M  V30 10 C 3.039033 3.118045 -0.749425 0
M  V30 11 C 1.692613 3.347076 -0.509114 0
M  V30 12 C 0.987286 2.571135 0.387325 0
M  V30 13 C -0.435412 2.771468 0.645448 0
M  V30 14 C -1.613968 2.915715 0.859551 0
M  V30 15 C -3.071514 3.068386 1.117156 0
M  V30 16 N -3.595241 1.708070 1.389976 0
M  V30 17 C -3.354551 0.886776 0.288157 0
M  V30 18 O -2.777639 1.635970 -0.551566 0
M  V30 19 C -3.441057 -0.350429 -0.333449 0
M  V30 20 C -4.069599 -0.945131 0.910351 0
M  V30 21 N -4.513303 -2.227187 1.197698 0
M  V30 22 C -4.405854 -3.206516 0.243405 0
M  V30 23 N -3.856719 -2.782214 -0.910355 0
M  V30 24 C -3.595308 -3.537523 -2.110044 0
M  V30 25 C -2.246332 -4.168557 -2.089522 0
M  V30 26 C -2.137386 -5.420402 -1.505029 0
M  V30 27 C -0.942117 -6.100766 -1.429743 0
M  V30 28 C 0.222945 -5.570108 -1.935425 0
M  V30 29 F 1.397214 -6.212185 -1.874182 0
M  V30 30 C 0.118849 -4.312060 -2.523176 0
M  V30 31 F 1.205223 -3.705087 -3.049723 0
M  V30 32 C -1.073637 -3.624325 -2.602856 0
M  V30 33 C -3.523136 -1.522805 -0.922232 0
M  V30 34 O -2.970643 -0.949467 -1.981268 0
M  V30 35 C 1.695656 1.546075 1.039425 0
M  V30 36 C 3.028089 1.301002 0.816256 0
M  V30 37 C 3.686390 0.286264 1.473827 0
M  V30 38 H 0.631968 0.017065 4.464424 0
M  V30 39 H 2.210165 -0.421281 5.146125 0
M  V30 40 H 2.089729 0.986749 4.065791 0
M  V30 41 H 1.132569 -1.094678 2.355790 0
M  V30 42 H 2.109893 -1.894552 3.443910 0
M  V30 43 H 4.524073 -2.154588 3.305170 0
M  V30 44 H 6.772329 0.727136 0.091393 0
M  V30 45 H 3.591884 3.725542 -1.454868 0
M  V30 46 H 1.180932 4.148168 -1.034131 0
M  V30 47 H -3.282967 3.661370 2.010631 0
M  V30 48 H -3.516923 3.531089 0.247241 0
M  V30 49 H -4.086155 1.186175 2.144925 0
M  V30 50 H -4.400584 -0.670677 1.969693 0
M  V30 51 H -4.635748 -4.243069 0.127153 0
M  V30 52 H -3.709124 -2.908246 -3.013290 0
M  V30 53 H -4.354072 -4.379434 -2.169169 0
M  V30 54 H -2.985809 -5.948933 -1.065193 0
M  V30 55 H -0.871255 -7.090070 -0.963321 0
M  V30 56 H -1.145500 -2.651159 -3.061382 0
M  V30 57 H 1.095405 1.020560 1.698835 0
M  V30 END ATOM
M  V30 BEGIN BOND
M  V30 1 1 1 2
M  V30 2 1 2 3
M  V30 3 1 3 4
M  V30 4 2 4 5
M  V30 5 1 5 6
M  V30 6 2 6 7
M  V30 7 1 7 8
M  V30 8 2 8 9
M  V30 9 1 9 10
M  V30 10 2 10 11
M  V30 11 1 11 12
M  V30 12 1 12 13
M  V30 13 3 13 14
M  V30 14 1 14 15
M  V30 15 1 15 16
M  V30 16 1 16 17
M  V30 17 2 17 18
M  V30 18 1 17 19
M  V30 19 2 19 20
M  V30 20 1 20 21
M  V30 21 2 21 22
M  V30 22 1 22 23
M  V30 23 1 23 24
M  V30 24 1 24 25
M  V30 25 2 25 26
M  V30 26 1 26 27
M  V30 27 2 27 28
M  V30 28 1 28 29
M  V30 29 1 28 30
M  V30 30 1 30 31
M  V30 31 2 30 32
M  V30 32 1 23 33
M  V30 33 2 33 34
M  V30 34 2 12 35
M  V30 35 1 35 36
M  V30 36 2 36 37
M  V30 37 1 37 3
M  V30 38 1 37 6
M  V30 39 1 36 9
M  V30 40 1 33 19
M  V30 41 1 32 25
M  V30 42 1 1 38
M  V30 43 1 1 39
M  V30 44 1 1 40
M  V30 45 1 2 41
M  V30 46 1 2 42
M  V30 47 1 4 43
M  V30 48 1 7 44
M  V30 49 1 10 45
M  V30 50 1 11 46
M  V30 51 1 15 47
M  V30 52 1 15 48
M  V30 53 1 16 49
M  V30 54 1 20 50
M  V30 55 1 22 51
M  V30 56 1 24 52
M  V30 57 1 24 53
M  V30 58 1 26 54
M  V30 59 1 27 55
M  V30 60 1 32 56
M  V30 61 1 35 57
M  V30 END BOND
M  V30 END CTAB
M  END
>  <Dataset>  (365) 
ChEMBL_Kinases

>  <Ligand_Instance>  (365) 
nan

>  <PDB_ID>  (365) 
nan

>  <Standardized_SMILES>  (365) 
CCn1cnc2cnc3ccc(C#CCNC(=O)c4cncn(Cc5ccc(F)c(F)c5)c4=O)cc3c21

>  <Name>  (365) 
nan

>  <Pocket>  (365) 
nan

>  <ATP_Site>  (365) 
nan

>  <Peripheral>  (365) 
nan

>  <Num_H_Atoms_ProtBoundConf>  (365) 
nan

>  <Num_Resolved_Atoms>  (365) 
nan

>  <Num_Not_Resolved_Atoms>  (365) 
nan

$$$$
CHEMBL3644750
     RDKit          3D

  0  0  0  0  0  0  0  0  0  0999 V3000
M  V30 BEGIN CTAB
M  V30 COUNTS 82 87 0 0 0
M  V30 BEGIN ATOM
M  V30 1 C 5.765781 -4.703541 -0.557041 0
M  V30 2 C 5.988988 -3.371146 0.011160 0
M  V30 3 N 7.241250 -3.088747 0.486671 0
M  V30 4 C 7.233436 -1.847632 0.969642 0
M  V30 5 C 8.309221 -1.199424 1.535541 0
M  V30 6 N 8.032507 0.071579 1.955369 0
M  V30 7 C 6.816286 0.623915 1.821137 0
M  V30 8 C 6.628303 1.911509 2.291324 0
M  V30 9 C 5.372733 2.510970 2.185114 0
M  V30 10 C 4.330849 1.797978 1.605984 0
M  V30 11 C 2.996237 2.375003 1.475892 0
M  V30 12 C 1.889290 2.832754 1.359605 0
M  V30 13 C 0.526139 3.376169 1.199016 0
M  V30 14 N -0.396750 2.252573 1.086665 0
M  V30 15 C -1.715590 2.508855 0.910995 0
M  V30 16 O -2.257362 3.655952 0.829850 0
M  V30 17 C -3.011824 2.030537 0.744945 0
M  V30 18 C -2.552827 0.593066 0.803186 0
M  V30 19 C -3.336794 -0.610832 0.702114 0
M  V30 20 C -4.733619 -0.430611 0.523705 0
M  V30 21 N -5.217331 0.859898 0.462584 0
M  V30 22 C -6.574938 1.264382 0.292408 0 CFG=1
M  V30 23 C -6.825547 1.917176 -1.047251 0
M  V30 24 C -7.464885 0.078419 0.451982 0
M  V30 25 C -7.706529 -0.682821 -0.683505 0
M  V30 26 C -8.521463 -1.820988 -0.700421 0
M  V30 27 C -9.098697 -2.169332 0.507133 0
M  V30 28 F -9.896562 -3.263235 0.537624 0
M  V30 29 C -8.881827 -1.436770 1.658369 0
M  V30 30 F -9.453327 -1.783346 2.848028 0
M  V30 31 C -8.061720 -0.304092 1.642183 0
M  V30 32 C -4.157728 1.582087 0.598490 0
M  V30 33 O -4.575577 2.872612 0.545990 0
M  V30 34 C 4.616055 0.511590 1.162907 0
M  V30 35 C 5.824663 -0.125855 1.238727 0
M  V30 36 C 5.936349 -1.403932 0.766227 0
M  V30 37 N 5.161814 -2.327037 0.176184 0
M  V30 38 C 3.805317 -2.193297 -0.209688 0 CFG=1
M  V30 39 C 3.383310 -3.159461 -1.347351 0
M  V30 40 C 2.183068 -2.499670 -2.000980 0
M  V30 41 C 1.079779 -2.192938 -1.040392 0 CFG=2
M  V30 42 N 0.244960 -1.178419 -1.627907 0
M  V30 43 C 0.877700 0.048661 -1.952360 0
M  V30 44 C -0.766447 -1.634400 -2.513395 0
M  V30 45 C 1.473829 -1.825160 0.342469 0
M  V30 46 C 2.767003 -2.446816 0.817747 0
M  V30 47 H 5.944703 -4.749375 -1.653290 0
M  V30 48 H 6.547955 -5.429227 -0.154924 0
M  V30 49 H 4.826340 -5.205649 -0.232812 0
M  V30 50 H 9.279048 -1.659350 1.635556 0
M  V30 51 H 7.442203 2.452426 2.737585 0
M  V30 52 H 5.196188 3.508246 2.540740 0
M  V30 53 H 0.214408 3.995544 2.062505 0
M  V30 54 H 0.527726 3.963739 0.263407 0
M  V30 55 H -0.225644 1.241700 1.115323 0
M  V30 56 H -1.599898 -0.029869 0.926103 0
M  V30 57 H -3.161969 -1.705776 0.723249 0
M  V30 58 H -5.487185 -1.225664 0.426545 0
M  V30 59 H -6.838110 2.018442 1.090429 0
M  V30 60 H -7.810938 1.623601 -1.471876 0
M  V30 61 H -6.835083 3.030888 -0.914476 0
M  V30 62 H -5.967055 1.706236 -1.705621 0
M  V30 63 H -7.283393 -0.471127 -1.675355 0
M  V30 64 H -8.703561 -2.406529 -1.586137 0
M  V30 65 H -7.859956 0.305427 2.518539 0
M  V30 66 H 3.749607 0.066687 0.765502 0
M  V30 67 H 3.608333 -1.207560 -0.736036 0
M  V30 68 H 3.002344 -4.058614 -0.861998 0
M  V30 69 H 4.153368 -3.282356 -2.098150 0
M  V30 70 H 1.807644 -3.196117 -2.772242 0
M  V30 71 H 2.538156 -1.589686 -2.515761 0
M  V30 72 H 0.430014 -3.115654 -0.984095 0
M  V30 73 H 1.751627 0.186666 -1.288842 0
M  V30 74 H 1.313744 -0.042455 -2.989950 0
M  V30 75 H 0.185325 0.905464 -1.994381 0
M  V30 76 H -0.841380 -2.736874 -2.484605 0
M  V30 77 H -0.464671 -1.366312 -3.554617 0
M  V30 78 H -1.760183 -1.158386 -2.369123 0
M  V30 79 H 0.690032 -2.221181 1.058950 0
M  V30 80 H 1.529076 -0.746130 0.535594 0
M  V30 81 H 2.514330 -3.539749 0.927141 0
M  V30 82 H 3.002952 -2.096773 1.824169 0
M  V30 END ATOM
M  V30 BEGIN BOND
M  V30 1 1 1 2
M  V30 2 2 2 3
M  V30 3 1 3 4
M  V30 4 2 4 5
M  V30 5 1 5 6
M  V30 6 2 6 7
M  V30 7 1 7 8
M  V30 8 2 8 9
M  V30 9 1 9 10
M  V30 10 1 10 11
M  V30 11 3 11 12
M  V30 12 1 12 13
M  V30 13 1 13 14
M  V30 14 1 14 15
M  V30 15 2 15 16
M  V30 16 1 15 17
M  V30 17 2 17 18
M  V30 18 1 18 19
M  V30 19 2 19 20
M  V30 20 1 20 21
M  V30 21 1 21 22
M  V30 22 1 22 23
M  V30 23 1 22 24
M  V30 24 2 24 25
M  V30 25 1 25 26
M  V30 26 2 26 27
M  V30 27 1 27 28
M  V30 28 1 27 29
M  V30 29 1 29 30
M  V30 30 2 29 31
M  V30 31 1 21 32
M  V30 32 2 32 33
M  V30 33 2 10 34
M  V30 34 1 34 35
M  V30 35 2 35 36
M  V30 36 1 36 37
M  V30 37 1 37 38
M  V30 38 1 38 39
M  V30 39 1 39 40
M  V30 40 1 40 41
M  V30 41 1 41 42
M  V30 42 1 42 43
M  V30 43 1 42 44
M  V30 44 1 41 45
M  V30 45 1 45 46
M  V30 46 1 37 2
M  V30 47 1 46 38
M  V30 48 1 36 4
M  V30 49 1 35 7
M  V30 50 1 32 17
M  V30 51 1 31 24
M  V30 52 1 1 47
M  V30 53 1 1 48
M  V30 54 1 1 49
M  V30 55 1 5 50
M  V30 56 1 8 51
M  V30 57 1 9 52
M  V30 58 1 13 53
M  V30 59 1 13 54
M  V30 60 1 14 55
M  V30 61 1 18 56
M  V30 62 1 19 57
M  V30 63 1 20 58
M  V30 64 1 22 59 CFG=1
M  V30 65 1 23 60
M  V30 66 1 23 61
M  V30 67 1 23 62
M  V30 68 1 25 63
M  V30 69 1 26 64
M  V30 70 1 31 65
M  V30 71 1 34 66
M  V30 72 1 38 67 CFG=3
M  V30 73 1 39 68
M  V30 74 1 39 69
M  V30 75 1 40 70
M  V30 76 1 40 71
M  V30 77 1 41 72 CFG=1
M  V30 78 1 43 73
M  V30 79 1 43 74
M  V30 80 1 43 75
M  V30 81 1 44 76
M  V30 82 1 44 77
M  V30 83 1 44 78
M  V30 84 1 45 79
M  V30 85 1 45 80
M  V30 86 1 46 81
M  V30 87 1 46 82
M  V30 END BOND
M  V30 END CTAB
M  END
>  <Dataset>  (366) 
ChEMBL_Kinases

>  <Ligand_Instance>  (366) 
nan

>  <PDB_ID>  (366) 
nan

>  <Standardized_SMILES>  (366) 
Cc1nc2cnc3ccc(C#CCNC(=O)c4cccn([C@@H](C)c5ccc(F)c(F)c5)c4=O)cc3c2n1[C@H]1CC[C@H](N(C)C)CC1

>  <Name>  (366) 
nan

>  <Pocket>  (366) 
nan

>  <ATP_Site>  (366) 
nan

>  <Peripheral>  (366) 
nan

>  <Num_H_Atoms_ProtBoundConf>  (366) 
nan

>  <Num_Resolved_Atoms>  (366) 
nan

>  <Num_Not_Resolved_Atoms>  (366) 
nan

$$$$
CHEMBL3644751
     RDKit          3D

  0  0  0  0  0  0  0  0  0  0999 V3000
M  V30 BEGIN CTAB
M  V30 COUNTS 83 88 0 0 0
M  V30 BEGIN ATOM
M  V30 1 C 3.269044 -4.474074 2.913709 0
M  V30 2 C 3.766325 -3.082897 2.790259 0
M  V30 3 N 4.829002 -2.740212 3.589754 0
M  V30 4 C 5.126916 -1.448651 3.393976 0
M  V30 5 C 6.110018 -0.700476 3.994830 0
M  V30 6 N 6.180246 0.582680 3.622396 0
M  V30 7 C 5.310251 1.074953 2.704086 0
M  V30 8 C 5.472636 2.416087 2.430048 0
M  V30 9 C 4.584116 2.955637 1.520985 0
M  V30 10 C 3.586961 2.193410 0.918896 0
M  V30 11 C 2.723201 2.906205 0.023607 0
M  V30 12 C 2.003622 3.519726 -0.713667 0
M  V30 13 C 1.131948 4.285279 -1.593052 0
M  V30 14 N 0.055129 3.505428 -2.165055 0
M  V30 15 C -0.747888 2.944248 -1.256331 0
M  V30 16 O -0.440326 3.172334 -0.022683 0
M  V30 17 C -1.798595 2.204838 -0.787247 0
M  V30 18 C -2.289708 1.929973 -2.177502 0
M  V30 19 C -3.468680 1.137325 -2.512621 0
M  V30 20 C -4.114405 0.642535 -1.312949 0
M  V30 21 N -3.689941 0.873122 0.057712 0
M  V30 22 C -4.753807 0.121804 0.582423 0 CFG=1
M  V30 23 C -6.111591 0.817487 0.391153 0
M  V30 24 O -6.074643 2.065278 1.050145 0
M  V30 25 C -4.921825 -1.271739 0.169537 0
M  V30 26 C -6.018473 -1.735050 -0.539146 0
M  V30 27 C -6.183814 -3.056912 -0.941035 0
M  V30 28 C -5.214657 -3.982743 -0.628207 0
M  V30 29 C -4.104607 -3.571446 0.076373 0
M  V30 30 F -3.207456 -4.541462 0.340506 0
M  V30 31 C -3.965913 -2.233426 0.466266 0
M  V30 32 C -2.771718 1.520007 -0.360583 0
M  V30 33 O -2.342739 1.754710 0.919741 0
M  V30 34 C 3.497767 0.850795 1.252612 0
M  V30 35 C 4.344660 0.279202 2.135271 0
M  V30 36 C 4.196766 -1.058458 2.451973 0
M  V30 37 N 3.358688 -2.022691 2.059857 0
M  V30 38 C 2.329554 -2.013206 1.100641 0 CFG=1
M  V30 39 C 2.057577 -3.436630 0.513845 0
M  V30 40 C 1.114766 -3.332462 -0.662512 0
M  V30 41 C 0.585125 -1.967397 -0.953238 0 CFG=2
M  V30 42 N 1.450463 -1.286686 -1.893326 0
M  V30 43 C 1.014232 0.014068 -2.287586 0
M  V30 44 C 1.787375 -2.084373 -3.039984 0
M  V30 45 C 0.225779 -1.168010 0.252217 0
M  V30 46 C 0.953415 -1.656989 1.502660 0
M  V30 47 H 2.225216 -4.499155 3.356963 0
M  V30 48 H 3.426527 -5.124886 2.063352 0
M  V30 49 H 3.824370 -5.019435 3.744045 0
M  V30 50 H 6.780135 -1.134477 4.724085 0
M  V30 51 H 6.254858 3.007551 2.904851 0
M  V30 52 H 4.708161 4.010493 1.306748 0
M  V30 53 H 0.711668 5.163920 -1.039970 0
M  V30 54 H 1.747970 4.715076 -2.400794 0
M  V30 55 H -0.331298 3.217277 -3.088060 0
M  V30 56 H -1.962808 2.199106 -3.238466 0
M  V30 57 H -3.828242 0.940218 -3.559604 0
M  V30 58 H -4.978120 0.067515 -1.801272 0
M  V30 59 H -4.618666 0.149379 1.727329 0
M  V30 60 H -6.330636 0.999921 -0.665680 0
M  V30 61 H -6.898315 0.220091 0.864843 0
M  V30 62 H -5.481150 1.940402 1.837671 0
M  V30 63 H -6.800913 -1.030667 -0.792553 0
M  V30 64 H -7.081715 -3.326078 -1.493663 0
M  V30 65 H -5.420076 -4.981847 -0.977894 0
M  V30 66 H -3.067428 -1.988764 1.017105 0
M  V30 67 H 2.724550 0.385577 0.763823 0
M  V30 68 H 2.674791 -1.641077 0.082894 0
M  V30 69 H 3.040654 -3.840697 0.215878 0
M  V30 70 H 1.486441 -4.024329 1.243110 0
M  V30 71 H 0.280716 -4.079562 -0.625514 0
M  V30 72 H 1.705435 -3.666468 -1.564481 0
M  V30 73 H -0.369989 -2.128202 -1.516630 0
M  V30 74 H 0.939414 0.054940 -3.411604 0
M  V30 75 H 1.732097 0.827958 -1.991761 0
M  V30 76 H -0.011445 0.195902 -1.906346 0
M  V30 77 H 1.953370 -1.376699 -3.900624 0
M  V30 78 H 1.022416 -2.835796 -3.315075 0
M  V30 79 H 2.782707 -2.601953 -2.907794 0
M  V30 80 H -0.867419 -1.180089 0.509873 0
M  V30 81 H 0.469386 -0.095439 0.155043 0
M  V30 82 H 0.867174 -0.932212 2.330480 0
M  V30 83 H 0.321824 -2.507299 1.880337 0
M  V30 END ATOM
M  V30 BEGIN BOND
M  V30 1 1 1 2
M  V30 2 2 2 3
M  V30 3 1 3 4
M  V30 4 2 4 5
M  V30 5 1 5 6
M  V30 6 2 6 7
M  V30 7 1 7 8
M  V30 8 2 8 9
M  V30 9 1 9 10
M  V30 10 1 10 11
M  V30 11 3 11 12
M  V30 12 1 12 13
M  V30 13 1 13 14
M  V30 14 1 14 15
M  V30 15 2 15 16
M  V30 16 1 15 17
M  V30 17 2 17 18
M  V30 18 1 18 19
M  V30 19 2 19 20
M  V30 20 1 20 21
M  V30 21 1 21 22
M  V30 22 1 22 23
M  V30 23 1 23 24
M  V30 24 1 22 25
M  V30 25 2 25 26
M  V30 26 1 26 27
M  V30 27 2 27 28
M  V30 28 1 28 29
M  V30 29 1 29 30
M  V30 30 2 29 31
M  V30 31 1 21 32
M  V30 32 2 32 33
M  V30 33 2 10 34
M  V30 34 1 34 35
M  V30 35 2 35 36
M  V30 36 1 36 37
M  V30 37 1 37 38
M  V30 38 1 38 39
M  V30 39 1 39 40
M  V30 40 1 40 41
M  V30 41 1 41 42
M  V30 42 1 42 43
M  V30 43 1 42 44
M  V30 44 1 41 45
M  V30 45 1 45 46
M  V30 46 1 37 2
M  V30 47 1 46 38
M  V30 48 1 36 4
M  V30 49 1 35 7
M  V30 50 1 32 17
M  V30 51 1 31 25
M  V30 52 1 1 47
M  V30 53 1 1 48
M  V30 54 1 1 49
M  V30 55 1 5 50
M  V30 56 1 8 51
M  V30 57 1 9 52
M  V30 58 1 13 53
M  V30 59 1 13 54
M  V30 60 1 14 55
M  V30 61 1 18 56
M  V30 62 1 19 57
M  V30 63 1 20 58
M  V30 64 1 22 59 CFG=1
M  V30 65 1 23 60
M  V30 66 1 23 61
M  V30 67 1 24 62
M  V30 68 1 26 63
M  V30 69 1 27 64
M  V30 70 1 28 65
M  V30 71 1 31 66
M  V30 72 1 34 67
M  V30 73 1 38 68 CFG=3
M  V30 74 1 39 69
M  V30 75 1 39 70
M  V30 76 1 40 71
M  V30 77 1 40 72
M  V30 78 1 41 73 CFG=3
M  V30 79 1 43 74
M  V30 80 1 43 75
M  V30 81 1 43 76
M  V30 82 1 44 77
M  V30 83 1 44 78
M  V30 84 1 44 79
M  V30 85 1 45 80
M  V30 86 1 45 81
M  V30 87 1 46 82
M  V30 88 1 46 83
M  V30 END BOND
M  V30 END CTAB
M  END
>  <Dataset>  (367) 
ChEMBL_Kinases

>  <Ligand_Instance>  (367) 
nan

>  <PDB_ID>  (367) 
nan

>  <Standardized_SMILES>  (367) 
Cc1nc2cnc3ccc(C#CCNC(=O)c4cccn([C@@H](CO)c5cccc(F)c5)c4=O)cc3c2n1[C@H]1CC[C@H](N(C)C)CC1

>  <Name>  (367) 
nan

>  <Pocket>  (367) 
nan

>  <ATP_Site>  (367) 
nan

>  <Peripheral>  (367) 
nan

>  <Num_H_Atoms_ProtBoundConf>  (367) 
nan

>  <Num_Resolved_Atoms>  (367) 
nan

>  <Num_Not_Resolved_Atoms>  (367) 
nan

$$$$
CHEMBL3644752
     RDKit          3D

  0  0  0  0  0  0  0  0  0  0999 V3000
M  V30 BEGIN CTAB
M  V30 COUNTS 83 88 0 0 0
M  V30 BEGIN ATOM
M  V30 1 C 4.734071 -5.291591 1.654783 0
M  V30 2 C 4.847207 -3.873113 2.077110 0
M  V30 3 N 5.731226 -3.632966 3.099879 0
M  V30 4 C 5.688360 -2.313387 3.345994 0
M  V30 5 C 6.402761 -1.608157 4.288543 0
M  V30 6 N 6.195878 -0.299459 4.356722 0
M  V30 7 C 5.321331 0.299350 3.533344 0
M  V30 8 C 5.177528 1.649970 3.692338 0
M  V30 9 C 4.284777 2.297622 2.873521 0
M  V30 10 C 3.556153 1.604134 1.920299 0
M  V30 11 C 2.640028 2.342244 1.097921 0
M  V30 12 C 1.859802 2.944201 0.405106 0
M  V30 13 C 0.896416 3.655894 -0.435498 0
M  V30 14 N -0.438531 3.129821 -0.283657 0
M  V30 15 C -1.568235 3.627694 -0.976485 0
M  V30 16 O -1.216328 4.592396 -1.735912 0
M  V30 17 C -2.930773 3.171638 -0.891965 0
M  V30 18 C -3.854317 3.849077 -1.694525 0
M  V30 19 C -5.186627 3.502969 -1.699289 0
M  V30 20 C -5.675562 2.478288 -0.918939 0
M  V30 21 N -4.785847 1.836174 -0.154895 0
M  V30 22 C -5.270726 0.758510 0.671720 0 CFG=1
M  V30 23 C -6.534678 1.205321 1.414260 0
M  V30 24 O -6.230501 2.309475 2.217558 0
M  V30 25 C -5.531205 -0.490017 -0.064224 0
M  V30 26 C -6.715181 -0.865448 -0.661284 0
M  V30 27 C -6.767266 -2.093107 -1.315340 0
M  V30 28 C -5.700001 -2.959925 -1.401886 0
M  V30 29 C -4.510025 -2.592054 -0.806694 0
M  V30 30 F -3.440931 -3.416976 -0.870835 0
M  V30 31 C -4.453567 -1.377831 -0.158108 0
M  V30 32 C -3.484452 2.164197 -0.141496 0
M  V30 33 O -2.692939 1.540530 0.583906 0
M  V30 34 C 3.756941 0.219821 1.815044 0
M  V30 35 C 4.638665 -0.465835 2.611854 0
M  V30 36 C 4.766209 -1.827073 2.442987 0
M  V30 37 N 4.227875 -2.757267 1.644042 0
M  V30 38 C 3.288888 -2.592510 0.618953 0 CFG=1
M  V30 39 C 3.266174 -3.785493 -0.370629 0
M  V30 40 C 2.721143 -3.263364 -1.728462 0
M  V30 41 C 1.830134 -2.069860 -1.500763 0 CFG=1
M  V30 42 N 0.873170 -2.094041 -2.612248 0
M  V30 43 C -0.062765 -1.003281 -2.542105 0
M  V30 44 C 1.589843 -2.007939 -3.884387 0
M  V30 45 C 1.089190 -2.040015 -0.221363 0
M  V30 46 C 1.835607 -2.568156 0.984103 0
M  V30 47 H 3.735462 -5.625582 1.385429 0
M  V30 48 H 5.543643 -5.591152 0.925439 0
M  V30 49 H 4.985437 -5.983226 2.530124 0
M  V30 50 H 7.101832 -2.107409 4.942676 0
M  V30 51 H 5.735339 2.209262 4.428930 0
M  V30 52 H 4.164226 3.365360 2.991458 0
M  V30 53 H 0.919617 4.717624 -0.161229 0
M  V30 54 H 1.151757 3.587323 -1.511706 0
M  V30 55 H -0.569960 2.341106 0.373085 0
M  V30 56 H -3.528129 4.676842 -2.340709 0
M  V30 57 H -5.850316 4.071294 -2.347044 0
M  V30 58 H -6.729259 2.291073 -0.998625 0
M  V30 59 H -4.498385 0.584001 1.470448 0
M  V30 60 H -7.355820 1.379899 0.708514 0
M  V30 61 H -6.858481 0.400880 2.117080 0
M  V30 62 H -5.262884 2.220680 2.463275 0
M  V30 63 H -7.526560 -0.184715 -0.584333 0
M  V30 64 H -7.713461 -2.348837 -1.769465 0
M  V30 65 H -5.751799 -3.908700 -1.911337 0
M  V30 66 H -3.480346 -1.149436 0.291136 0
M  V30 67 H 3.163901 -0.190765 1.087658 0
M  V30 68 H 3.602292 -1.845921 -0.175311 0
M  V30 69 H 4.238728 -4.240180 -0.503194 0
M  V30 70 H 2.470498 -4.514064 -0.107072 0
M  V30 71 H 3.620325 -2.907315 -2.270685 0
M  V30 72 H 2.259621 -4.067795 -2.312418 0
M  V30 73 H 2.395353 -1.118664 -1.655375 0
M  V30 74 H 0.374508 -0.076631 -2.103180 0
M  V30 75 H -0.320242 -0.708376 -3.597191 0
M  V30 76 H -1.032927 -1.270903 -2.068462 0
M  V30 77 H 2.353803 -1.204454 -3.779380 0
M  V30 78 H 0.836228 -1.750189 -4.646476 0
M  V30 79 H 2.124708 -2.944246 -4.086953 0
M  V30 80 H 0.075954 -2.485188 -0.254551 0
M  V30 81 H 0.897702 -0.952941 0.020322 0
M  V30 82 H 1.611582 -1.996560 1.901974 0
M  V30 83 H 1.423588 -3.581226 1.177551 0
M  V30 END ATOM
M  V30 BEGIN BOND
M  V30 1 1 1 2
M  V30 2 2 2 3
M  V30 3 1 3 4
M  V30 4 2 4 5
M  V30 5 1 5 6
M  V30 6 2 6 7
M  V30 7 1 7 8
M  V30 8 2 8 9
M  V30 9 1 9 10
M  V30 10 1 10 11
M  V30 11 3 11 12
M  V30 12 1 12 13
M  V30 13 1 13 14
M  V30 14 1 14 15
M  V30 15 2 15 16
M  V30 16 1 15 17
M  V30 17 2 17 18
M  V30 18 1 18 19
M  V30 19 2 19 20
M  V30 20 1 20 21
M  V30 21 1 21 22
M  V30 22 1 22 23
M  V30 23 1 23 24
M  V30 24 1 22 25
M  V30 25 2 25 26
M  V30 26 1 26 27
M  V30 27 2 27 28
M  V30 28 1 28 29
M  V30 29 1 29 30
M  V30 30 2 29 31
M  V30 31 1 21 32
M  V30 32 2 32 33
M  V30 33 2 10 34
M  V30 34 1 34 35
M  V30 35 2 35 36
M  V30 36 1 36 37
M  V30 37 1 37 38
M  V30 38 1 38 39
M  V30 39 1 39 40
M  V30 40 1 40 41
M  V30 41 1 41 42
M  V30 42 1 42 43
M  V30 43 1 42 44
M  V30 44 1 41 45
M  V30 45 1 45 46
M  V30 46 1 37 2
M  V30 47 1 46 38
M  V30 48 1 36 4
M  V30 49 1 35 7
M  V30 50 1 32 17
M  V30 51 1 31 25
M  V30 52 1 1 47
M  V30 53 1 1 48
M  V30 54 1 1 49
M  V30 55 1 5 50
M  V30 56 1 8 51
M  V30 57 1 9 52
M  V30 58 1 13 53
M  V30 59 1 13 54
M  V30 60 1 14 55
M  V30 61 1 18 56
M  V30 62 1 19 57
M  V30 63 1 20 58
M  V30 64 1 22 59 CFG=1
M  V30 65 1 23 60
M  V30 66 1 23 61
M  V30 67 1 24 62
M  V30 68 1 26 63
M  V30 69 1 27 64
M  V30 70 1 28 65
M  V30 71 1 31 66
M  V30 72 1 34 67
M  V30 73 1 38 68 CFG=3
M  V30 74 1 39 69
M  V30 75 1 39 70
M  V30 76 1 40 71
M  V30 77 1 40 72
M  V30 78 1 41 73 CFG=3
M  V30 79 1 43 74
M  V30 80 1 43 75
M  V30 81 1 43 76
M  V30 82 1 44 77
M  V30 83 1 44 78
M  V30 84 1 44 79
M  V30 85 1 45 80
M  V30 86 1 45 81
M  V30 87 1 46 82
M  V30 88 1 46 83
M  V30 END BOND
M  V30 END CTAB
M  END
>  <Dataset>  (368) 
ChEMBL_Kinases

>  <Ligand_Instance>  (368) 
nan

>  <PDB_ID>  (368) 
nan

>  <Standardized_SMILES>  (368) 
Cc1nc2cnc3ccc(C#CCNC(=O)c4cccn([C@@H](CO)c5cccc(F)c5)c4=O)cc3c2n1[C@H]1CC[C@@H](N(C)C)CC1

>  <Name>  (368) 
nan

>  <Pocket>  (368) 
nan

>  <ATP_Site>  (368) 
nan

>  <Peripheral>  (368) 
nan

>  <Num_H_Atoms_ProtBoundConf>  (368) 
nan

>  <Num_Resolved_Atoms>  (368) 
nan

>  <Num_Not_Resolved_Atoms>  (368) 
nan

$$$$
CHEMBL3644753
     RDKit          3D

  0  0  0  0  0  0  0  0  0  0999 V3000
M  V30 BEGIN CTAB
M  V30 COUNTS 80 85 0 0 0
M  V30 BEGIN ATOM
M  V30 1 C -3.255277 -3.156725 -2.391904 0
M  V30 2 N -1.935106 -3.038059 -2.954898 0
M  V30 3 C -1.021799 -4.029781 -2.435839 0
M  V30 4 C -1.391307 -1.704126 -2.862415 0 CFG=1
M  V30 5 C -0.023563 -1.722710 -3.483865 0
M  V30 6 C 0.489848 -0.281063 -3.425347 0
M  V30 7 C -0.306634 0.468701 -4.424757 0 CFG=2
M  V30 8 N 0.177124 1.682947 -4.984433 0
M  V30 9 C 0.773951 1.840083 -6.224683 0
M  V30 10 N 1.152932 3.090763 -6.542113 0
M  V30 11 C 0.803771 3.847809 -5.470013 0
M  V30 12 C 0.961942 5.196598 -5.264312 0
M  V30 13 N 0.525234 5.708088 -4.100268 0
M  V30 14 C -0.054614 4.906894 -3.159955 0
M  V30 15 C -0.458454 5.526327 -2.023361 0
M  V30 16 C -1.043219 4.725066 -1.071209 0
M  V30 17 C -1.206781 3.376463 -1.264294 0
M  V30 18 C -1.830824 2.650847 -0.189564 0
M  V30 19 C -2.342116 2.026549 0.703921 0
M  V30 20 C -2.957222 1.237756 1.802112 0
M  V30 21 N -2.006260 0.252667 2.292794 0
M  V30 22 C -2.306725 -0.651764 3.338337 0
M  V30 23 O -3.480935 -0.461893 3.749527 0
M  V30 24 C -1.467165 -1.675421 3.920333 0
M  V30 25 C -2.015994 -2.423704 4.941953 0
M  V30 26 C -1.296067 -3.423010 5.561748 0
M  V30 27 C 0.014185 -3.663451 5.128053 0
M  V30 28 N 0.568737 -2.931380 4.119570 0
M  V30 29 C 1.896469 -3.380891 3.879651 0 CFG=1
M  V30 30 C 2.491339 -2.705222 2.669276 0
M  V30 31 O 3.801132 -3.158980 2.439846 0
M  V30 32 C 2.840420 -3.133322 5.008104 0
M  V30 33 C 3.136962 -4.179963 5.874521 0
M  V30 34 C 3.988907 -4.073110 6.950293 0
M  V30 35 C 4.599657 -2.849317 7.200463 0
M  V30 36 C 4.322197 -1.802618 6.358939 0
M  V30 37 F 4.887616 -0.601492 6.558557 0
M  V30 38 C 3.470499 -1.944646 5.299751 0
M  V30 39 C -0.179301 -1.994534 3.576089 0
M  V30 40 O 0.357296 -1.343279 2.656671 0
M  V30 41 C -0.765648 2.823513 -2.455717 0
M  V30 42 C -0.177063 3.576634 -3.436016 0
M  V30 43 C 0.224753 2.939664 -4.575134 0
M  V30 44 C -1.794201 0.244476 -4.437098 0
M  V30 45 C -2.287683 -0.634197 -3.330625 0
M  V30 46 H -3.421519 -4.237651 -2.177605 0
M  V30 47 H -4.000529 -2.887284 -3.160994 0
M  V30 48 H -3.394322 -2.648370 -1.427708 0
M  V30 49 H -0.248395 -4.207715 -3.210662 0
M  V30 50 H -1.542898 -4.955595 -2.122341 0
M  V30 51 H -0.480350 -3.554802 -1.566788 0
M  V30 52 H -1.203959 -1.558190 -1.763135 0
M  V30 53 H -0.112425 -2.041678 -4.522635 0
M  V30 54 H 0.616699 -2.389876 -2.870686 0
M  V30 55 H 0.463097 -0.052355 -2.385957 0
M  V30 56 H 1.550883 -0.322335 -3.753971 0
M  V30 57 H -0.038237 -0.252370 -5.298754 0
M  V30 58 H 0.982861 1.083708 -6.989908 0
M  V30 59 H 1.428037 5.790144 -6.041380 0
M  V30 60 H -0.326841 6.588599 -1.877506 0
M  V30 61 H -1.373143 5.201897 -0.155457 0
M  V30 62 H -3.827109 0.734264 1.371889 0
M  V30 63 H -3.268044 1.891237 2.629064 0
M  V30 64 H -1.063136 0.210559 1.856589 0
M  V30 65 H -3.034364 -2.232182 5.273949 0
M  V30 66 H -1.785419 -3.968610 6.352804 0
M  V30 67 H 0.458156 -4.471103 5.698643 0
M  V30 68 H 1.867431 -4.489914 3.682683 0
M  V30 69 H 1.854299 -2.853234 1.782148 0
M  V30 70 H 2.602580 -1.613906 2.821402 0
M  V30 71 H 4.104003 -2.964873 1.533881 0
M  V30 72 H 2.729358 -5.184299 5.786838 0
M  V30 73 H 4.227331 -4.877346 7.630137 0
M  V30 74 H 5.281411 -2.659559 8.013079 0
M  V30 75 H 3.270254 -1.111472 4.659315 0
M  V30 76 H -0.970532 1.785771 -2.432687 0
M  V30 77 H -2.360880 1.217334 -4.367752 0
M  V30 78 H -2.205893 -0.160218 -5.387292 0
M  V30 79 H -3.295340 -1.040439 -3.660270 0
M  V30 80 H -2.592661 0.046127 -2.477810 0
M  V30 END ATOM
M  V30 BEGIN BOND
M  V30 1 1 1 2
M  V30 2 1 2 3
M  V30 3 1 2 4
M  V30 4 1 4 5
M  V30 5 1 5 6
M  V30 6 1 6 7
M  V30 7 1 7 8
M  V30 8 1 8 9
M  V30 9 2 9 10
M  V30 10 1 10 11
M  V30 11 2 11 12
M  V30 12 1 12 13
M  V30 13 2 13 14
M  V30 14 1 14 15
M  V30 15 2 15 16
M  V30 16 1 16 17
M  V30 17 1 17 18
M  V30 18 3 18 19
M  V30 19 1 19 20
M  V30 20 1 20 21
M  V30 21 1 21 22
M  V30 22 2 22 23
M  V30 23 1 22 24
M  V30 24 2 24 25
M  V30 25 1 25 26
M  V30 26 2 26 27
M  V30 27 1 27 28
M  V30 28 1 28 29
M  V30 29 1 29 30
M  V30 30 1 30 31
M  V30 31 1 29 32
M  V30 32 2 32 33
M  V30 33 1 33 34
M  V30 34 2 34 35
M  V30 35 1 35 36
M  V30 36 1 36 37
M  V30 37 2 36 38
M  V30 38 1 28 39
M  V30 39 2 39 40
M  V30 40 2 17 41
M  V30 41 1 41 42
M  V30 42 2 42 43
M  V30 43 1 7 44
M  V30 44 1 44 45
M  V30 45 1 45 4
M  V30 46 1 43 8
M  V30 47 1 43 11
M  V30 48 1 42 14
M  V30 49 1 39 24
M  V30 50 1 38 32
M  V30 51 1 1 46
M  V30 52 1 1 47
M  V30 53 1 1 48
M  V30 54 1 3 49
M  V30 55 1 3 50
M  V30 56 1 3 51
M  V30 57 1 4 52 CFG=1
M  V30 58 1 5 53
M  V30 59 1 5 54
M  V30 60 1 6 55
M  V30 61 1 6 56
M  V30 62 1 7 57 CFG=3
M  V30 63 1 9 58
M  V30 64 1 12 59
M  V30 65 1 15 60
M  V30 66 1 16 61
M  V30 67 1 20 62
M  V30 68 1 20 63
M  V30 69 1 21 64
M  V30 70 1 25 65
M  V30 71 1 26 66
M  V30 72 1 27 67
M  V30 73 1 29 68 CFG=3
M  V30 74 1 30 69
M  V30 75 1 30 70
M  V30 76 1 31 71
M  V30 77 1 33 72
M  V30 78 1 34 73
M  V30 79 1 35 74
M  V30 80 1 38 75
M  V30 81 1 41 76
M  V30 82 1 44 77
M  V30 83 1 44 78
M  V30 84 1 45 79
M  V30 85 1 45 80
M  V30 END BOND
M  V30 END CTAB
M  END
>  <Dataset>  (369) 
ChEMBL_Kinases

>  <Ligand_Instance>  (369) 
nan

>  <PDB_ID>  (369) 
nan

>  <Standardized_SMILES>  (369) 
CN(C)[C@H]1CC[C@H](n2cnc3cnc4ccc(C#CCNC(=O)c5cccn([C@@H](CO)c6cccc(F)c6)c5=O)cc4c32)CC1

>  <Name>  (369) 
nan

>  <Pocket>  (369) 
nan

>  <ATP_Site>  (369) 
nan

>  <Peripheral>  (369) 
nan

>  <Num_H_Atoms_ProtBoundConf>  (369) 
nan

>  <Num_Resolved_Atoms>  (369) 
nan

>  <Num_Not_Resolved_Atoms>  (369) 
nan

$$$$
CHEMBL3644754
     RDKit          3D

  0  0  0  0  0  0  0  0  0  0999 V3000
M  V30 BEGIN CTAB
M  V30 COUNTS 80 85 0 0 0
M  V30 BEGIN ATOM
M  V30 1 C -2.639085 -3.087613 -1.301612 0
M  V30 2 N -1.211588 -3.345887 -1.549536 0
M  V30 3 C -0.579006 -3.873949 -0.385042 0
M  V30 4 C -0.591319 -2.141089 -2.066264 0 CFG=1
M  V30 5 C 0.860137 -2.330346 -2.380399 0
M  V30 6 C 1.334244 -1.398329 -3.484283 0
M  V30 7 C 0.469974 -0.102924 -3.360088 0 CFG=1
M  V30 8 N 1.041718 0.903557 -4.173466 0
M  V30 9 C 2.001312 0.687782 -5.125778 0
M  V30 10 N 2.373910 1.806302 -5.763980 0
M  V30 11 C 1.663040 2.831811 -5.252702 0
M  V30 12 C 1.595808 4.179122 -5.483288 0
M  V30 13 N 0.751666 4.944960 -4.776971 0
M  V30 14 C -0.044806 4.452488 -3.838897 0
M  V30 15 C -0.897381 5.314988 -3.137762 0
M  V30 16 C -1.712516 4.780079 -2.161154 0
M  V30 17 C -1.699166 3.442788 -1.873941 0
M  V30 18 C -2.500765 2.768599 -0.854313 0
M  V30 19 C -3.147657 2.199885 -0.015950 0
M  V30 20 C -3.920700 1.484394 1.009356 0
M  V30 21 N -2.949911 0.674328 1.835738 0
M  V30 22 C -3.291574 -0.178804 2.887911 0
M  V30 23 O -4.492177 -0.285965 3.223035 0
M  V30 24 C -2.259739 -0.941190 3.589549 0
M  V30 25 C -2.641225 -1.738329 4.670035 0
M  V30 26 C -1.645634 -2.445250 5.347745 0
M  V30 27 C -0.303137 -2.405857 5.016486 0
M  V30 28 N 0.062416 -1.625682 3.960079 0
M  V30 29 C 1.442321 -1.541431 3.521983 0 CFG=1
M  V30 30 C 1.962035 -0.142616 3.765760 0
M  V30 31 O 3.307016 -0.123374 3.320136 0
M  V30 32 C 2.311610 -2.524392 4.170165 0
M  V30 33 C 2.295648 -3.812370 3.680053 0
M  V30 34 C 3.058169 -4.873404 4.173265 0
M  V30 35 C 3.835236 -4.446363 5.226778 0
M  V30 36 C 3.948734 -3.226949 5.804408 0
M  V30 37 F 4.767820 -2.969042 6.849289 0
M  V30 38 C 3.142320 -2.237457 5.233870 0
M  V30 39 C -0.907647 -0.962432 3.332171 0
M  V30 40 O -0.474144 -0.277565 2.378015 0
M  V30 41 C -0.812205 2.636269 -2.622079 0
M  V30 42 C 0.031743 3.085736 -3.610777 0
M  V30 43 C 0.860619 2.234987 -4.283520 0
M  V30 44 C -0.845075 -0.550050 -3.993000 0
M  V30 45 C -1.354152 -1.803269 -3.337782 0
M  V30 46 H -2.923829 -3.627128 -0.364891 0
M  V30 47 H -2.744615 -2.015477 -1.098110 0
M  V30 48 H -3.278200 -3.453529 -2.114128 0
M  V30 49 H -0.477717 -4.988819 -0.498550 0
M  V30 50 H -1.261658 -3.684124 0.480101 0
M  V30 51 H 0.403822 -3.387534 -0.234659 0
M  V30 52 H -0.770222 -1.338799 -1.289626 0
M  V30 53 H 1.479822 -2.184492 -1.458658 0
M  V30 54 H 1.047146 -3.356409 -2.731491 0
M  V30 55 H 1.265412 -1.798270 -4.483982 0
M  V30 56 H 2.353606 -1.081254 -3.233047 0
M  V30 57 H 0.457779 0.029266 -2.285799 0
M  V30 58 H 2.493001 -0.228353 -5.431365 0
M  V30 59 H 2.245773 4.592891 -6.251656 0
M  V30 60 H -0.923686 6.359130 -3.346627 0
M  V30 61 H -2.410078 5.380041 -1.563319 0
M  V30 62 H -4.409487 2.138243 1.737675 0
M  V30 63 H -4.606899 0.797248 0.523138 0
M  V30 64 H -1.994929 0.861669 1.485269 0
M  V30 65 H -3.666526 -1.822696 4.986673 0
M  V30 66 H -1.879624 -3.082333 6.203957 0
M  V30 67 H 0.439427 -2.969534 5.565902 0
M  V30 68 H 1.450539 -1.740847 2.426628 0
M  V30 69 H 1.453198 0.634396 3.171629 0
M  V30 70 H 1.881658 0.100267 4.838289 0
M  V30 71 H 3.286322 -0.449571 2.387308 0
M  V30 72 H 1.642213 -4.062778 2.828157 0
M  V30 73 H 3.059118 -5.884199 3.807350 0
M  V30 74 H 4.479697 -5.213956 5.693980 0
M  V30 75 H 3.174383 -1.240139 5.641979 0
M  V30 76 H -0.880109 1.627354 -2.322409 0
M  V30 77 H -0.563847 -0.842927 -5.033442 0
M  V30 78 H -1.578823 0.253382 -4.103864 0
M  V30 79 H -1.237020 -2.715763 -3.991476 0
M  V30 80 H -2.431117 -1.669649 -3.140371 0
M  V30 END ATOM
M  V30 BEGIN BOND
M  V30 1 1 1 2
M  V30 2 1 2 3
M  V30 3 1 2 4
M  V30 4 1 4 5
M  V30 5 1 5 6
M  V30 6 1 6 7
M  V30 7 1 7 8
M  V30 8 1 8 9
M  V30 9 2 9 10
M  V30 10 1 10 11
M  V30 11 2 11 12
M  V30 12 1 12 13
M  V30 13 2 13 14
M  V30 14 1 14 15
M  V30 15 2 15 16
M  V30 16 1 16 17
M  V30 17 1 17 18
M  V30 18 3 18 19
M  V30 19 1 19 20
M  V30 20 1 20 21
M  V30 21 1 21 22
M  V30 22 2 22 23
M  V30 23 1 22 24
M  V30 24 2 24 25
M  V30 25 1 25 26
M  V30 26 2 26 27
M  V30 27 1 27 28
M  V30 28 1 28 29
M  V30 29 1 29 30
M  V30 30 1 30 31
M  V30 31 1 29 32
M  V30 32 2 32 33
M  V30 33 1 33 34
M  V30 34 2 34 35
M  V30 35 1 35 36
M  V30 36 1 36 37
M  V30 37 2 36 38
M  V30 38 1 28 39
M  V30 39 2 39 40
M  V30 40 2 17 41
M  V30 41 1 41 42
M  V30 42 2 42 43
M  V30 43 1 7 44
M  V30 44 1 44 45
M  V30 45 1 45 4
M  V30 46 1 43 8
M  V30 47 1 43 11
M  V30 48 1 42 14
M  V30 49 1 39 24
M  V30 50 1 38 32
M  V30 51 1 1 46
M  V30 52 1 1 47
M  V30 53 1 1 48
M  V30 54 1 3 49
M  V30 55 1 3 50
M  V30 56 1 3 51
M  V30 57 1 4 52 CFG=1
M  V30 58 1 5 53
M  V30 59 1 5 54
M  V30 60 1 6 55
M  V30 61 1 6 56
M  V30 62 1 7 57 CFG=1
M  V30 63 1 9 58
M  V30 64 1 12 59
M  V30 65 1 15 60
M  V30 66 1 16 61
M  V30 67 1 20 62
M  V30 68 1 20 63
M  V30 69 1 21 64
M  V30 70 1 25 65
M  V30 71 1 26 66
M  V30 72 1 27 67
M  V30 73 1 29 68 CFG=3
M  V30 74 1 30 69
M  V30 75 1 30 70
M  V30 76 1 31 71
M  V30 77 1 33 72
M  V30 78 1 34 73
M  V30 79 1 35 74
M  V30 80 1 38 75
M  V30 81 1 41 76
M  V30 82 1 44 77
M  V30 83 1 44 78
M  V30 84 1 45 79
M  V30 85 1 45 80
M  V30 END BOND
M  V30 END CTAB
M  END
>  <Dataset>  (370) 
ChEMBL_Kinases

>  <Ligand_Instance>  (370) 
nan

>  <PDB_ID>  (370) 
nan

>  <Standardized_SMILES>  (370) 
CN(C)[C@H]1CC[C@@H](n2cnc3cnc4ccc(C#CCNC(=O)c5cccn([C@@H](CO)c6cccc(F)c6)c5=O)cc4c32)CC1

>  <Name>  (370) 
nan

>  <Pocket>  (370) 
nan

>  <ATP_Site>  (370) 
nan

>  <Peripheral>  (370) 
nan

>  <Num_H_Atoms_ProtBoundConf>  (370) 
nan

>  <Num_Resolved_Atoms>  (370) 
nan

>  <Num_Not_Resolved_Atoms>  (370) 
nan

$$$$
CHEMBL3644755
     RDKit          3D

  0  0  0  0  0  0  0  0  0  0999 V3000
M  V30 BEGIN CTAB
M  V30 COUNTS 68 73 0 0 0
M  V30 BEGIN ATOM
M  V30 1 C 2.290712 -2.062261 5.008091 0
M  V30 2 C 2.938028 -1.499762 3.806456 0
M  V30 3 N 4.308984 -1.545975 3.872231 0
M  V30 4 C 4.797470 -1.001900 2.744960 0
M  V30 5 C 6.112986 -0.838019 2.388060 0
M  V30 6 N 6.332339 -0.255039 1.198784 0
M  V30 7 C 5.306459 0.138038 0.419619 0
M  V30 8 C 5.668975 0.722992 -0.751534 0
M  V30 9 C 4.663940 1.159068 -1.589781 0
M  V30 10 C 3.331185 0.989276 -1.215609 0
M  V30 11 C 2.345138 1.469240 -2.141317 0
M  V30 12 C 1.503357 1.859267 -2.909570 0
M  V30 13 C 0.448369 2.331582 -3.839415 0
M  V30 14 N -0.742047 1.507592 -3.633677 0
M  V30 15 C -1.172966 1.637520 -2.306334 0
M  V30 16 O -0.387168 2.438723 -1.690592 0
M  V30 17 C -2.311422 1.003227 -1.658641 0
M  V30 18 C -2.480917 1.337163 -0.307261 0
M  V30 19 N -3.494202 0.819345 0.407611 0
M  V30 20 C -4.391937 -0.033707 -0.113915 0
M  V30 21 N -4.231075 -0.353615 -1.405197 0
M  V30 22 C -5.178402 -1.271308 -2.004665 0
M  V30 23 C -4.655346 -2.651707 -1.819336 0
M  V30 24 C -3.845338 -3.364889 -2.659039 0
M  V30 25 C -3.465986 -4.640927 -2.304372 0
M  V30 26 C -3.860314 -5.254902 -1.132660 0
M  V30 27 F -3.418559 -6.518595 -0.896106 0
M  V30 28 C -4.673345 -4.532867 -0.294846 0
M  V30 29 F -5.056349 -5.141344 0.853042 0
M  V30 30 C -5.070769 -3.240502 -0.630997 0
M  V30 31 C -3.249182 0.128746 -2.154875 0
M  V30 32 O -3.098075 -0.163624 -3.344471 0
M  V30 33 C 3.066645 0.382700 -0.004829 0
M  V30 34 C 4.031293 -0.066545 0.858114 0
M  V30 35 C 3.656398 -0.651438 2.050246 0
M  V30 36 N 2.478556 -0.944340 2.672326 0
M  V30 37 C 1.157431 -0.731357 2.204928 0
M  V30 38 C 0.185967 -1.652522 2.905002 0
M  V30 39 C -0.873024 -0.908573 3.646465 0
M  V30 40 C -0.438075 0.314042 4.404554 0
M  V30 41 O 0.730811 0.860800 3.849813 0
M  V30 42 C 0.591565 0.637925 2.485621 0
M  V30 43 H 1.363246 -1.553793 5.327006 0
M  V30 44 H 2.941153 -1.896565 5.935710 0
M  V30 45 H 2.224898 -3.172054 4.988125 0
M  V30 46 H 6.898690 -1.166109 3.040900 0
M  V30 47 H 6.683944 0.863403 -1.057913 0
M  V30 48 H 4.923652 1.626852 -2.526288 0
M  V30 49 H 0.151019 3.365180 -3.658896 0
M  V30 50 H 0.794738 2.252554 -4.885694 0
M  V30 51 H -1.288226 0.881196 -4.265861 0
M  V30 52 H -1.803887 2.019738 0.201085 0
M  V30 53 H -5.169286 -0.395277 0.539357 0
M  V30 54 H -6.183849 -1.150311 -1.585398 0
M  V30 55 H -5.205320 -1.092964 -3.105022 0
M  V30 56 H -3.560289 -2.864378 -3.551409 0
M  V30 57 H -2.834098 -5.167581 -2.983126 0
M  V30 58 H -5.717568 -2.783277 0.128932 0
M  V30 59 H 2.050610 0.329673 0.157116 0
M  V30 60 H 1.034836 -1.045082 1.123416 0
M  V30 61 H -0.418060 -2.159857 2.043343 0
M  V30 62 H 0.596745 -2.525269 3.401069 0
M  V30 63 H -1.791086 -0.690111 3.016608 0
M  V30 64 H -1.273547 -1.629500 4.401600 0
M  V30 65 H -0.365479 0.096932 5.472400 0
M  V30 66 H -1.222585 1.086767 4.270707 0
M  V30 67 H -0.494180 0.712591 2.262759 0
M  V30 68 H 0.994596 1.464847 1.877359 0
M  V30 END ATOM
M  V30 BEGIN BOND
M  V30 1 1 1 2
M  V30 2 2 2 3
M  V30 3 1 3 4
M  V30 4 2 4 5
M  V30 5 1 5 6
M  V30 6 2 6 7
M  V30 7 1 7 8
M  V30 8 2 8 9
M  V30 9 1 9 10
M  V30 10 1 10 11
M  V30 11 3 11 12
M  V30 12 1 12 13
M  V30 13 1 13 14
M  V30 14 1 14 15
M  V30 15 2 15 16
M  V30 16 1 15 17
M  V30 17 2 17 18
M  V30 18 1 18 19
M  V30 19 2 19 20
M  V30 20 1 20 21
M  V30 21 1 21 22
M  V30 22 1 22 23
M  V30 23 2 23 24
M  V30 24 1 24 25
M  V30 25 2 25 26
M  V30 26 1 26 27
M  V30 27 1 26 28
M  V30 28 1 28 29
M  V30 29 2 28 30
M  V30 30 1 21 31
M  V30 31 2 31 32
M  V30 32 2 10 33
M  V30 33 1 33 34
M  V30 34 2 34 35
M  V30 35 1 35 36
M  V30 36 1 36 37
M  V30 37 1 37 38
M  V30 38 1 38 39
M  V30 39 1 39 40
M  V30 40 1 40 41
M  V30 41 1 41 42
M  V30 42 1 36 2
M  V30 43 1 42 37
M  V30 44 1 35 4
M  V30 45 1 34 7
M  V30 46 1 31 17
M  V30 47 1 30 23
M  V30 48 1 1 43
M  V30 49 1 1 44
M  V30 50 1 1 45
M  V30 51 1 5 46
M  V30 52 1 8 47
M  V30 53 1 9 48
M  V30 54 1 13 49
M  V30 55 1 13 50
M  V30 56 1 14 51
M  V30 57 1 18 52
M  V30 58 1 20 53
M  V30 59 1 22 54
M  V30 60 1 22 55
M  V30 61 1 24 56
M  V30 62 1 25 57
M  V30 63 1 30 58
M  V30 64 1 33 59
M  V30 65 1 37 60
M  V30 66 1 38 61
M  V30 67 1 38 62
M  V30 68 1 39 63
M  V30 69 1 39 64
M  V30 70 1 40 65
M  V30 71 1 40 66
M  V30 72 1 42 67
M  V30 73 1 42 68
M  V30 END BOND
M  V30 END CTAB
M  END
>  <Dataset>  (371) 
ChEMBL_Kinases

>  <Ligand_Instance>  (371) 
nan

>  <PDB_ID>  (371) 
nan

>  <Standardized_SMILES>  (371) 
Cc1nc2cnc3ccc(C#CCNC(=O)c4cncn(Cc5ccc(F)c(F)c5)c4=O)cc3c2n1C1CCCOC1

>  <Name>  (371) 
nan

>  <Pocket>  (371) 
nan

>  <ATP_Site>  (371) 
nan

>  <Peripheral>  (371) 
nan

>  <Num_H_Atoms_ProtBoundConf>  (371) 
nan

>  <Num_Resolved_Atoms>  (371) 
nan

>  <Num_Not_Resolved_Atoms>  (371) 
nan

$$$$
CHEMBL3644756
     RDKit          3D

  0  0  0  0  0  0  0  0  0  0999 V3000
M  V30 BEGIN CTAB
M  V30 COUNTS 68 73 0 0 0
M  V30 BEGIN ATOM
M  V30 1 N 3.111452 2.576285 -0.291708 0
M  V30 2 C 3.361153 1.170599 -0.644594 0
M  V30 3 C 3.121823 0.957007 -2.105203 0 CFG=1
M  V30 4 C 3.393755 -0.490227 -2.426038 0
M  V30 5 C 3.015923 -1.564740 -1.654766 0
M  V30 6 C 3.298746 -2.865297 -1.997527 0
M  V30 7 C 3.992971 -3.103031 -3.167461 0
M  V30 8 C 4.423238 -2.085315 -4.021922 0
M  V30 9 C 4.077646 -0.835064 -3.566228 0
M  V30 10 N 1.836752 1.256084 -2.567095 0
M  V30 11 C 1.545909 1.443613 -3.923592 0
M  V30 12 C 0.218470 1.752222 -4.337755 0
M  V30 13 C -0.776152 1.855451 -3.292970 0
M  V30 14 C -0.543478 1.667715 -1.808532 0
M  V30 15 C -1.860130 1.900307 -1.441494 0
M  V30 16 O -1.451581 1.752353 -0.265855 0
M  V30 17 N -3.138886 2.171031 -1.858369 0
M  V30 18 C -4.046327 2.279655 -0.699719 0
M  V30 19 C -4.048882 1.013404 0.066743 0
M  V30 20 C -4.061243 -0.019676 0.683990 0
M  V30 21 C -4.057605 -1.259915 1.445743 0
M  V30 22 C -5.103429 -2.140314 1.242874 0
M  V30 23 C -5.241138 -3.349590 1.883091 0
M  V30 24 C -4.238083 -3.644648 2.772985 0
M  V30 25 N -4.371855 -4.845562 3.406842 0
M  V30 26 C -3.427972 -5.232367 4.306896 0
M  V30 27 C -2.375595 -4.373082 4.527810 0
M  V30 28 N -1.322888 -4.518692 5.359973 0
M  V30 29 C -0.593077 -3.401098 5.198535 0
M  V30 30 N -1.116067 -2.515364 4.291997 0
M  V30 31 C -0.473710 -1.270453 4.004681 0
M  V30 32 C 0.401216 -1.255037 2.794161 0
M  V30 33 C 1.321320 -0.080939 3.149577 0
M  V30 34 O 1.213934 0.117947 4.516992 0
M  V30 35 C 0.660948 -1.038657 5.054173 0
M  V30 36 C -2.210472 -3.165777 3.912104 0
M  V30 37 C -3.176897 -2.809096 3.014380 0
M  V30 38 C -3.081540 -1.621483 2.356684 0
M  V30 39 C 0.666388 1.454024 -2.146379 0
M  V30 40 O 0.865805 1.284302 -0.793123 0
M  V30 41 H 3.907957 3.176898 -0.611567 0
M  V30 42 H 3.073634 2.683630 0.757581 0
M  V30 43 H 4.460155 1.024096 -0.416918 0
M  V30 44 H 2.849349 0.467879 0.029486 0
M  V30 45 H 3.857026 1.537106 -2.716423 0
M  V30 46 H 2.466760 -1.361311 -0.739994 0
M  V30 47 H 2.979177 -3.676790 -1.352918 0
M  V30 48 H 4.224659 -4.139396 -3.451527 0
M  V30 49 H 4.965790 -2.249586 -4.938806 0
M  V30 50 H 4.395565 -0.002535 -4.207209 0
M  V30 51 H 2.339943 1.355229 -4.695956 0
M  V30 52 H 0.133430 1.874557 -5.436842 0
M  V30 53 H -1.644190 2.100387 -4.009396 0
M  V30 54 H -3.171974 2.237076 -2.887957 0
M  V30 55 H -3.792055 3.148468 -0.068566 0
M  V30 56 H -5.046017 2.380333 -1.108244 0
M  V30 57 H -5.886735 -1.871923 0.525345 0
M  V30 58 H -6.063110 -4.016087 1.709856 0
M  V30 59 H -3.509877 -6.197808 4.832164 0
M  V30 60 H 0.326610 -3.326641 5.803420 0
M  V30 61 H -1.090348 -0.366865 4.091506 0
M  V30 62 H -0.057306 -0.988871 1.848197 0
M  V30 63 H 1.017540 -2.178932 2.739976 0
M  V30 64 H 2.348404 -0.232823 2.782921 0
M  V30 65 H 0.964115 0.853546 2.673934 0
M  V30 66 H 1.414777 -1.835169 4.947795 0
M  V30 67 H 0.254420 -0.881750 6.046984 0
M  V30 68 H -2.345360 -0.860158 2.408025 0
M  V30 END ATOM
M  V30 BEGIN BOND
M  V30 1 1 1 2
M  V30 2 1 2 3
M  V30 3 1 3 4
M  V30 4 2 4 5
M  V30 5 1 5 6
M  V30 6 2 6 7
M  V30 7 1 7 8
M  V30 8 2 8 9
M  V30 9 1 3 10
M  V30 10 1 10 11
M  V30 11 2 11 12
M  V30 12 1 12 13
M  V30 13 2 13 14
M  V30 14 1 14 15
M  V30 15 2 15 16
M  V30 16 1 15 17
M  V30 17 1 17 18
M  V30 18 1 18 19
M  V30 19 3 19 20
M  V30 20 1 20 21
M  V30 21 2 21 22
M  V30 22 1 22 23
M  V30 23 2 23 24
M  V30 24 1 24 25
M  V30 25 2 25 26
M  V30 26 1 26 27
M  V30 27 1 27 28
M  V30 28 2 28 29
M  V30 29 1 29 30
M  V30 30 1 30 31
M  V30 31 1 31 32
M  V30 32 1 32 33
M  V30 33 1 33 34
M  V30 34 1 34 35
M  V30 35 1 30 36
M  V30 36 1 36 37
M  V30 37 2 37 38
M  V30 38 1 14 39
M  V30 39 2 39 40
M  V30 40 1 9 4
M  V30 41 1 39 10
M  V30 42 1 38 21
M  V30 43 1 37 24
M  V30 44 2 36 27
M  V30 45 1 35 31
M  V30 46 1 1 41
M  V30 47 1 1 42
M  V30 48 1 2 43
M  V30 49 1 2 44
M  V30 50 1 3 45 CFG=3
M  V30 51 1 5 46
M  V30 52 1 6 47
M  V30 53 1 7 48
M  V30 54 1 8 49
M  V30 55 1 9 50
M  V30 56 1 11 51
M  V30 57 1 12 52
M  V30 58 1 13 53
M  V30 59 1 17 54
M  V30 60 1 18 55
M  V30 61 1 18 56
M  V30 62 1 22 57
M  V30 63 1 23 58
M  V30 64 1 26 59
M  V30 65 1 29 60
M  V30 66 1 31 61
M  V30 67 1 32 62
M  V30 68 1 32 63
M  V30 69 1 33 64
M  V30 70 1 33 65
M  V30 71 1 35 66
M  V30 72 1 35 67
M  V30 73 1 38 68
M  V30 END BOND
M  V30 END CTAB
M  END
>  <Dataset>  (372) 
ChEMBL_Kinases

>  <Ligand_Instance>  (372) 
nan

>  <PDB_ID>  (372) 
nan

>  <Standardized_SMILES>  (372) 
NC[C@@H](c1ccccc1)n1cccc(C(=O)NCC#Cc2ccc3ncc4ncn(C5CCOC5)c4c3c2)c1=O

>  <Name>  (372) 
nan

>  <Pocket>  (372) 
nan

>  <ATP_Site>  (372) 
nan

>  <Peripheral>  (372) 
nan

>  <Num_H_Atoms_ProtBoundConf>  (372) 
nan

>  <Num_Resolved_Atoms>  (372) 
nan

>  <Num_Not_Resolved_Atoms>  (372) 
nan

$$$$
CHEMBL3644757
     RDKit          3D

  0  0  0  0  0  0  0  0  0  0999 V3000
M  V30 BEGIN CTAB
M  V30 COUNTS 54 58 0 0 0
M  V30 BEGIN ATOM
M  V30 1 C 5.252856 -0.903449 1.905705 0
M  V30 2 N 6.013404 -1.449409 0.804672 0
M  V30 3 C 7.129317 -2.210155 0.958027 0
M  V30 4 N 7.643449 -2.590040 -0.223615 0
M  V30 5 C 6.859053 -2.076219 -1.203688 0
M  V30 6 C 6.954760 -2.172765 -2.564853 0
M  V30 7 N 5.994349 -1.529512 -3.249046 0
M  V30 8 C 4.999807 -0.834317 -2.672181 0
M  V30 9 C 4.073631 -0.218486 -3.486422 0
M  V30 10 C 3.054725 0.492842 -2.888582 0
M  V30 11 C 2.972257 0.580316 -1.512503 0
M  V30 12 C 1.868908 1.345315 -0.974029 0
M  V30 13 C 0.955256 1.975237 -0.506225 0
M  V30 14 C -0.177639 2.733731 0.088183 0
M  V30 15 N -1.344207 1.881604 0.215116 0
M  V30 16 C -2.579779 2.318016 0.753190 0
M  V30 17 O -2.471304 3.547432 1.085213 0
M  V30 18 C -3.786358 1.530208 0.915595 0
M  V30 19 C -4.852805 2.246875 1.467343 0
M  V30 20 N -6.049846 1.675936 1.682823 0
M  V30 21 C -6.284534 0.384459 1.378903 0
M  V30 22 N -5.277447 -0.322461 0.849296 0
M  V30 23 C -5.461218 -1.702660 0.513054 0
M  V30 24 C -5.138800 -2.609146 1.649828 0
M  V30 25 C -6.171816 -2.919936 2.518224 0
M  V30 26 C -5.899188 -3.762749 3.584887 0
M  V30 27 C -4.642101 -4.300315 3.811618 0
M  V30 28 F -4.470025 -5.119937 4.887957 0
M  V30 29 C -3.608719 -3.990053 2.944292 0
M  V30 30 F -2.373692 -4.502545 3.145042 0
M  V30 31 C -3.911295 -3.151729 1.896047 0
M  V30 32 C -4.073076 0.216688 0.621948 0
M  V30 33 O -3.102563 -0.402096 0.129347 0
M  V30 34 C 3.934472 -0.060751 -0.736122 0
M  V30 35 C 4.944133 -0.765024 -1.303501 0
M  V30 36 C 5.882742 -1.391367 -0.523983 0
M  V30 37 H 4.234397 -1.333756 2.004715 0
M  V30 38 H 5.745687 -1.224858 2.880209 0
M  V30 39 H 5.278049 0.201859 1.978380 0
M  V30 40 H 7.579384 -2.496900 1.915646 0
M  V30 41 H 7.764974 -2.736604 -2.980919 0
M  V30 42 H 4.185266 -0.318670 -4.562026 0
M  V30 43 H 2.334536 0.971776 -3.532140 0
M  V30 44 H -0.328164 3.613504 -0.545490 0
M  V30 45 H 0.115508 3.046366 1.133142 0
M  V30 46 H -1.257496 0.897079 -0.112089 0
M  V30 47 H -4.864592 3.285087 1.774988 0
M  V30 48 H -7.223046 -0.120151 1.530468 0
M  V30 49 H -6.504030 -1.916447 0.170343 0
M  V30 50 H -4.793503 -2.016477 -0.311404 0
M  V30 51 H -7.153390 -2.505448 2.348298 0
M  V30 52 H -6.724366 -3.990155 4.247225 0
M  V30 53 H -3.094776 -2.918791 1.225165 0
M  V30 54 H 3.739815 0.095597 0.282631 0
M  V30 END ATOM
M  V30 BEGIN BOND
M  V30 1 1 1 2
M  V30 2 1 2 3
M  V30 3 2 3 4
M  V30 4 1 4 5
M  V30 5 2 5 6
M  V30 6 1 6 7
M  V30 7 2 7 8
M  V30 8 1 8 9
M  V30 9 2 9 10
M  V30 10 1 10 11
M  V30 11 1 11 12
M  V30 12 3 12 13
M  V30 13 1 13 14
M  V30 14 1 14 15
M  V30 15 1 15 16
M  V30 16 2 16 17
M  V30 17 1 16 18
M  V30 18 2 18 19
M  V30 19 1 19 20
M  V30 20 2 20 21
M  V30 21 1 21 22
M  V30 22 1 22 23
M  V30 23 1 23 24
M  V30 24 2 24 25
M  V30 25 1 25 26
M  V30 26 2 26 27
M  V30 27 1 27 28
M  V30 28 1 27 29
M  V30 29 1 29 30
M  V30 30 2 29 31
M  V30 31 1 22 32
M  V30 32 2 32 33
M  V30 33 2 11 34
M  V30 34 1 34 35
M  V30 35 2 35 36
M  V30 36 1 36 2
M  V30 37 1 36 5
M  V30 38 1 35 8
M  V30 39 1 32 18
M  V30 40 1 31 24
M  V30 41 1 1 37
M  V30 42 1 1 38
M  V30 43 1 1 39
M  V30 44 1 3 40
M  V30 45 1 6 41
M  V30 46 1 9 42
M  V30 47 1 10 43
M  V30 48 1 14 44
M  V30 49 1 14 45
M  V30 50 1 15 46
M  V30 51 1 19 47
M  V30 52 1 21 48
M  V30 53 1 23 49
M  V30 54 1 23 50
M  V30 55 1 25 51
M  V30 56 1 26 52
M  V30 57 1 31 53
M  V30 58 1 34 54
M  V30 END BOND
M  V30 END CTAB
M  END
>  <Dataset>  (373) 
ChEMBL_Kinases

>  <Ligand_Instance>  (373) 
nan

>  <PDB_ID>  (373) 
nan

>  <Standardized_SMILES>  (373) 
Cn1cnc2cnc3ccc(C#CCNC(=O)c4cncn(Cc5ccc(F)c(F)c5)c4=O)cc3c21

>  <Name>  (373) 
nan

>  <Pocket>  (373) 
nan

>  <ATP_Site>  (373) 
nan

>  <Peripheral>  (373) 
nan

>  <Num_H_Atoms_ProtBoundConf>  (373) 
nan

>  <Num_Resolved_Atoms>  (373) 
nan

>  <Num_Not_Resolved_Atoms>  (373) 
nan

$$$$
CHEMBL3644749
     RDKit          3D

  0  0  0  0  0  0  0  0  0  0999 V3000
M  V30 BEGIN CTAB
M  V30 COUNTS 67 72 0 0 0
M  V30 BEGIN ATOM
M  V30 1 O 1.575276 -3.356736 0.212128 0
M  V30 2 C 1.343877 -2.888135 1.378617 0
M  V30 3 N 2.571635 -2.591261 1.998868 0
M  V30 4 C 3.703201 -2.909185 1.122673 0
M  V30 5 C 3.505111 -2.067603 -0.082456 0
M  V30 6 C 3.347662 -1.367275 -1.049069 0
M  V30 7 C 3.138071 -0.524954 -2.191676 0
M  V30 8 C 4.256169 -0.190337 -2.924266 0
M  V30 9 C 4.191632 0.611765 -4.043507 0
M  V30 10 C 2.947657 1.076874 -4.412324 0
M  V30 11 N 2.939633 1.854416 -5.513807 0
M  V30 12 C 1.748883 2.331439 -5.915423 0
M  V30 13 C 0.604448 2.023940 -5.214212 0
M  V30 14 N -0.675884 2.382624 -5.425688 0
M  V30 15 C -1.389675 1.804067 -4.438047 0
M  V30 16 N -0.626936 1.066830 -3.568471 0
M  V30 17 C -1.157616 0.363035 -2.438261 0
M  V30 18 C -1.435492 -1.102204 -2.684742 0
M  V30 19 C -2.848985 -1.167678 -3.212218 0
M  V30 20 O -3.337468 0.116548 -3.210833 0
M  V30 21 C -2.629959 0.841521 -2.279547 0
M  V30 22 C 0.597455 1.229598 -4.085222 0
M  V30 23 C 1.812707 0.767797 -3.711564 0
M  V30 24 C 1.900034 -0.030766 -2.603077 0
M  V30 25 C 0.002698 -2.724356 1.895296 0
M  V30 26 C -1.020209 -3.117309 1.023630 0
M  V30 27 C -2.344733 -3.016957 1.384451 0
M  V30 28 C -2.637325 -2.516634 2.633290 0
M  V30 29 N -1.667816 -2.125062 3.506208 0
M  V30 30 C -2.054788 -1.617139 4.783010 0 CFG=1
M  V30 31 C -2.306421 -2.781826 5.710195 0
M  V30 32 O -2.692735 -2.379840 6.991770 0
M  V30 33 C -1.206878 -0.580375 5.356594 0
M  V30 34 C -1.420738 0.751514 4.976219 0
M  V30 35 C -0.729437 1.846746 5.413708 0
M  V30 36 C 0.282531 1.624467 6.321874 0
M  V30 37 C 0.551784 0.352892 6.741330 0
M  V30 38 F 1.552126 0.157823 7.635528 0
M  V30 39 C -0.179474 -0.725307 6.266758 0
M  V30 40 C -0.416574 -2.243916 3.106579 0
M  V30 41 O 0.480046 -1.895778 3.879857 0
M  V30 42 H 2.542229 -2.197993 2.963839 0
M  V30 43 H 3.627244 -3.983748 0.857104 0
M  V30 44 H 4.629823 -2.658717 1.650147 0
M  V30 45 H 5.231920 -0.556886 -2.631989 0
M  V30 46 H 5.085323 0.854383 -4.594129 0
M  V30 47 H 1.689204 2.963795 -6.799154 0
M  V30 48 H -2.456894 1.974311 -4.432320 0
M  V30 49 H -0.749291 0.615764 -1.460671 0
M  V30 50 H -0.780599 -1.504733 -3.473240 0
M  V30 51 H -1.393881 -1.699869 -1.755877 0
M  V30 52 H -2.910344 -1.663167 -4.203854 0
M  V30 53 H -3.531315 -1.782565 -2.558808 0
M  V30 54 H -2.986018 0.602775 -1.258263 0
M  V30 55 H -2.697723 1.930242 -2.411484 0
M  V30 56 H 1.142786 -0.378144 -1.943037 0
M  V30 57 H -0.796920 -3.518771 0.022549 0
M  V30 58 H -3.097123 -3.332733 0.678017 0
M  V30 59 H -3.700288 -2.464129 2.854341 0
M  V30 60 H -3.077157 -1.150824 4.652128 0
M  V30 61 H -1.428748 -3.440098 5.825204 0
M  V30 62 H -3.136340 -3.394330 5.302921 0
M  V30 63 H -3.138649 -1.520550 6.903750 0
M  V30 64 H -2.218977 0.950125 4.256483 0
M  V30 65 H -0.962497 2.827891 5.068155 0
M  V30 66 H 0.833543 2.485774 6.672258 0
M  V30 67 H 0.017962 -1.741280 6.586531 0
M  V30 END ATOM
M  V30 BEGIN BOND
M  V30 1 2 1 2
M  V30 2 1 2 3
M  V30 3 1 3 4
M  V30 4 1 4 5
M  V30 5 3 5 6
M  V30 6 1 6 7
M  V30 7 2 7 8
M  V30 8 1 8 9
M  V30 9 2 9 10
M  V30 10 1 10 11
M  V30 11 2 11 12
M  V30 12 1 12 13
M  V30 13 1 13 14
M  V30 14 2 14 15
M  V30 15 1 15 16
M  V30 16 1 16 17
M  V30 17 1 17 18
M  V30 18 1 18 19
M  V30 19 1 19 20
M  V30 20 1 20 21
M  V30 21 1 16 22
M  V30 22 1 22 23
M  V30 23 2 23 24
M  V30 24 1 2 25
M  V30 25 2 25 26
M  V30 26 1 26 27
M  V30 27 2 27 28
M  V30 28 1 28 29
M  V30 29 1 29 30
M  V30 30 1 30 31
M  V30 31 1 31 32
M  V30 32 1 30 33
M  V30 33 2 33 34
M  V30 34 1 34 35
M  V30 35 2 35 36
M  V30 36 1 36 37
M  V30 37 1 37 38
M  V30 38 2 37 39
M  V30 39 1 29 40
M  V30 40 2 40 41
M  V30 41 1 24 7
M  V30 42 1 40 25
M  V30 43 1 23 10
M  V30 44 1 39 33
M  V30 45 2 22 13
M  V30 46 1 21 17
M  V30 47 1 3 42
M  V30 48 1 4 43
M  V30 49 1 4 44
M  V30 50 1 8 45
M  V30 51 1 9 46
M  V30 52 1 12 47
M  V30 53 1 15 48
M  V30 54 1 17 49
M  V30 55 1 18 50
M  V30 56 1 18 51
M  V30 57 1 19 52
M  V30 58 1 19 53
M  V30 59 1 21 54
M  V30 60 1 21 55
M  V30 61 1 24 56
M  V30 62 1 26 57
M  V30 63 1 27 58
M  V30 64 1 28 59
M  V30 65 1 30 60 CFG=3
M  V30 66 1 31 61
M  V30 67 1 31 62
M  V30 68 1 32 63
M  V30 69 1 34 64
M  V30 70 1 35 65
M  V30 71 1 36 66
M  V30 72 1 39 67
M  V30 END BOND
M  V30 END CTAB
M  END
>  <Dataset>  (374) 
ChEMBL_Kinases

>  <Ligand_Instance>  (374) 
nan

>  <PDB_ID>  (374) 
nan

>  <Standardized_SMILES>  (374) 
O=C(NCC#Cc1ccc2ncc3ncn(C4CCOC4)c3c2c1)c1cccn([C@@H](CO)c2cccc(F)c2)c1=O

>  <Name>  (374) 
nan

>  <Pocket>  (374) 
nan

>  <ATP_Site>  (374) 
nan

>  <Peripheral>  (374) 
nan

>  <Num_H_Atoms_ProtBoundConf>  (374) 
nan

>  <Num_Resolved_Atoms>  (374) 
nan

>  <Num_Not_Resolved_Atoms>  (374) 
nan

$$$$
CHEMBL3643995
     RDKit          3D

  0  0  0  0  0  0  0  0  0  0999 V3000
M  V30 BEGIN CTAB
M  V30 COUNTS 56 58 0 0 0
M  V30 BEGIN ATOM
M  V30 1 C 2.063961 -1.503570 4.267353 0
M  V30 2 C 3.567487 -1.619056 4.280506 0
M  V30 3 N 4.019459 -2.970200 4.065957 0
M  V30 4 C 3.720246 -3.671771 2.881873 0
M  V30 5 N 3.017558 -3.161465 1.885108 0
M  V30 6 C 2.707164 -3.775425 0.747466 0
M  V30 7 N 1.957307 -3.241158 -0.330440 0
M  V30 8 C 1.384573 -1.952895 -0.456843 0
M  V30 9 C 1.477928 -0.958807 0.493337 0
M  V30 10 C 0.931166 0.302655 0.394436 0
M  V30 11 F 1.049673 1.240521 1.351255 0
M  V30 12 C 0.223963 0.624034 -0.744556 0
M  V30 13 C -0.410370 1.911483 -0.997485 0
M  V30 14 O 0.021411 2.942348 -1.542105 0
M  V30 15 N -1.762845 2.003534 -0.539786 0
M  V30 16 C -2.650800 1.076823 0.132634 0
M  V30 17 C -3.855123 0.691607 -0.660059 0 CFG=1
M  V30 18 C -5.021690 0.280528 0.219366 0
M  V30 19 O -4.162235 1.574428 -1.647012 0
M  V30 20 C -3.804374 2.874789 -1.509151 0 CFG=1
M  V30 21 C -5.037963 3.691242 -1.106297 0
M  V30 22 C -2.614062 3.186863 -0.677412 0
M  V30 23 C 0.098262 -0.332826 -1.729702 0
M  V30 24 C 0.663817 -1.577685 -1.581042 0
M  V30 25 O 0.502030 -2.496555 -2.607692 0
M  V30 26 C -0.191510 -2.279055 -3.799816 0
M  V30 27 N 3.166848 -5.028809 0.635862 0
M  V30 28 C 3.884373 -5.641857 1.577166 0
M  V30 29 C 4.173656 -4.959273 2.728910 0
M  V30 30 C 4.943331 -5.574799 3.773215 0
M  V30 31 N 5.546256 -6.081440 4.615084 0
M  V30 32 H 1.726775 -0.514678 3.879775 0
M  V30 33 H 1.666306 -2.341181 3.662592 0
M  V30 34 H 1.614932 -1.626265 5.272310 0
M  V30 35 H 3.947486 -1.193724 5.229577 0
M  V30 36 H 3.999104 -0.957702 3.479014 0
M  V30 37 H 4.577568 -3.408544 4.822915 0
M  V30 38 H 1.785629 -3.870206 -1.171149 0
M  V30 39 H 2.005865 -1.121317 1.400983 0
M  V30 40 H -2.049804 0.152309 0.385849 0
M  V30 41 H -2.980068 1.441585 1.139555 0
M  V30 42 H -3.587135 -0.272345 -1.192905 0
M  V30 43 H -4.582442 -0.464629 0.941166 0
M  V30 44 H -5.469145 1.087229 0.792270 0
M  V30 45 H -5.742581 -0.265051 -0.405579 0
M  V30 46 H -3.553447 3.235005 -2.553586 0
M  V30 47 H -5.645133 3.930980 -2.028847 0
M  V30 48 H -4.773515 4.666138 -0.678283 0
M  V30 49 H -5.735355 3.098687 -0.479744 0
M  V30 50 H -1.969700 3.969340 -1.131477 0
M  V30 51 H -2.857397 3.618432 0.338196 0
M  V30 52 H -0.449800 -0.115194 -2.637232 0
M  V30 53 H -1.289480 -2.451389 -3.681296 0
M  V30 54 H 0.216128 -3.016048 -4.538564 0
M  V30 55 H -0.066058 -1.297441 -4.259977 0
M  V30 56 H 4.225276 -6.664062 1.417151 0
M  V30 END ATOM
M  V30 BEGIN BOND
M  V30 1 1 1 2
M  V30 2 1 2 3
M  V30 3 1 3 4
M  V30 4 2 4 5
M  V30 5 1 5 6
M  V30 6 1 6 7
M  V30 7 1 7 8
M  V30 8 2 8 9
M  V30 9 1 9 10
M  V30 10 1 10 11
M  V30 11 2 10 12
M  V30 12 1 12 13
M  V30 13 2 13 14
M  V30 14 1 13 15
M  V30 15 1 15 16
M  V30 16 1 16 17
M  V30 17 1 17 18
M  V30 18 1 17 19
M  V30 19 1 19 20
M  V30 20 1 20 21
M  V30 21 1 20 22
M  V30 22 1 12 23
M  V30 23 2 23 24
M  V30 24 1 24 25
M  V30 25 1 25 26
M  V30 26 2 6 27
M  V30 27 1 27 28
M  V30 28 2 28 29
M  V30 29 1 29 30
M  V30 30 3 30 31
M  V30 31 1 29 4
M  V30 32 1 24 8
M  V30 33 1 22 15
M  V30 34 1 1 32
M  V30 35 1 1 33
M  V30 36 1 1 34
M  V30 37 1 2 35
M  V30 38 1 2 36
M  V30 39 1 3 37
M  V30 40 1 7 38
M  V30 41 1 9 39
M  V30 42 1 16 40
M  V30 43 1 16 41
M  V30 44 1 17 42 CFG=3
M  V30 45 1 18 43
M  V30 46 1 18 44
M  V30 47 1 18 45
M  V30 48 1 20 46 CFG=3
M  V30 49 1 21 47
M  V30 50 1 21 48
M  V30 51 1 21 49
M  V30 52 1 22 50
M  V30 53 1 22 51
M  V30 54 1 23 52
M  V30 55 1 26 53
M  V30 56 1 26 54
M  V30 57 1 26 55
M  V30 58 1 28 56
M  V30 END BOND
M  V30 END CTAB
M  END
>  <Dataset>  (375) 
ChEMBL_Kinases

>  <Ligand_Instance>  (375) 
nan

>  <PDB_ID>  (375) 
nan

>  <Standardized_SMILES>  (375) 
CCNc1nc(Nc2cc(F)c(C(=O)N3C[C@@H](C)O[C@@H](C)C3)cc2OC)ncc1C#N

>  <Name>  (375) 
nan

>  <Pocket>  (375) 
nan

>  <ATP_Site>  (375) 
nan

>  <Peripheral>  (375) 
nan

>  <Num_H_Atoms_ProtBoundConf>  (375) 
nan

>  <Num_Resolved_Atoms>  (375) 
nan

>  <Num_Not_Resolved_Atoms>  (375) 
nan

$$$$
CHEMBL3643994
     RDKit          3D

  0  0  0  0  0  0  0  0  0  0999 V3000
M  V30 BEGIN CTAB
M  V30 COUNTS 53 55 0 0 0
M  V30 BEGIN ATOM
M  V30 1 C 0.967195 -5.291661 3.947516 0
M  V30 2 N 2.299924 -5.374347 3.416206 0
M  V30 3 C 2.680152 -5.014909 2.092159 0
M  V30 4 N 1.740744 -4.561702 1.257729 0
M  V30 5 C 1.992871 -4.194466 -0.015085 0
M  V30 6 N 0.915537 -3.724694 -0.818507 0
M  V30 7 C 0.560879 -2.349300 -0.881571 0
M  V30 8 C 1.265317 -1.413174 -0.151917 0
M  V30 9 C 0.962684 -0.067036 -0.177887 0
M  V30 10 F 1.597218 0.906428 0.500830 0
M  V30 11 C -0.102917 0.354932 -0.979382 0
M  V30 12 C -0.578662 1.724994 -1.142957 0
M  V30 13 O 0.002625 2.325293 -2.099232 0
M  V30 14 N -1.577725 2.334816 -0.333914 0
M  V30 15 C -2.205816 1.610067 0.737936 0
M  V30 16 C -2.818116 2.474868 1.792212 0 CFG=1
M  V30 17 C -1.888374 2.397783 3.008112 0
M  V30 18 O -3.138741 3.746726 1.446444 0
M  V30 19 C -2.288625 4.439314 0.640637 0 CFG=1
M  V30 20 C -1.092114 4.955644 1.373345 0
M  V30 21 C -1.938854 3.689504 -0.618009 0
M  V30 22 C -0.808688 -0.580474 -1.709998 0
M  V30 23 C -0.504064 -1.926165 -1.682320 0
M  V30 24 O -1.191895 -2.892864 -2.403408 0
M  V30 25 C -2.270103 -2.463235 -3.213980 0
M  V30 26 N 3.273817 -4.300371 -0.445009 0
M  V30 27 C 4.280345 -4.738142 0.302747 0
M  V30 28 C 3.974433 -5.101378 1.594887 0
M  V30 29 C 4.999756 -5.592750 2.495335 0
M  V30 30 N 5.831089 -5.969167 3.221335 0
M  V30 31 H 0.301606 -4.771066 3.217597 0
M  V30 32 H 0.523764 -6.307424 4.119630 0
M  V30 33 H 0.941385 -4.753934 4.929466 0
M  V30 34 H 3.037672 -5.729470 4.068943 0
M  V30 35 H 0.363898 -4.411401 -1.382826 0
M  V30 36 H 2.096482 -1.713615 0.478008 0
M  V30 37 H -1.513575 0.843830 1.154315 0
M  V30 38 H -3.023282 1.017583 0.267618 0
M  V30 39 H -3.781815 2.002455 2.147288 0
M  V30 40 H -0.822117 2.366974 2.726239 0
M  V30 41 H -2.103480 3.217040 3.700765 0
M  V30 42 H -2.068964 1.429941 3.560255 0
M  V30 43 H -2.865139 5.344424 0.285406 0
M  V30 44 H -0.810219 5.945124 0.987778 0
M  V30 45 H -1.300947 5.103415 2.453749 0
M  V30 46 H -0.239530 4.228193 1.328301 0
M  V30 47 H -1.178642 4.237728 -1.202062 0
M  V30 48 H -2.850003 3.675308 -1.251322 0
M  V30 49 H -1.653929 -0.350989 -2.362974 0
M  V30 50 H -1.974669 -1.692966 -3.938424 0
M  V30 51 H -3.018352 -1.987477 -2.532603 0
M  V30 52 H -2.704960 -3.293494 -3.796204 0
M  V30 53 H 5.290988 -4.818690 -0.045597 0
M  V30 END ATOM
M  V30 BEGIN BOND
M  V30 1 1 1 2
M  V30 2 1 2 3
M  V30 3 2 3 4
M  V30 4 1 4 5
M  V30 5 1 5 6
M  V30 6 1 6 7
M  V30 7 2 7 8
M  V30 8 1 8 9
M  V30 9 1 9 10
M  V30 10 2 9 11
M  V30 11 1 11 12
M  V30 12 2 12 13
M  V30 13 1 12 14
M  V30 14 1 14 15
M  V30 15 1 15 16
M  V30 16 1 16 17
M  V30 17 1 16 18
M  V30 18 1 18 19
M  V30 19 1 19 20
M  V30 20 1 19 21
M  V30 21 1 11 22
M  V30 22 2 22 23
M  V30 23 1 23 24
M  V30 24 1 24 25
M  V30 25 2 5 26
M  V30 26 1 26 27
M  V30 27 2 27 28
M  V30 28 1 28 29
M  V30 29 3 29 30
M  V30 30 1 28 3
M  V30 31 1 23 7
M  V30 32 1 21 14
M  V30 33 1 1 31
M  V30 34 1 1 32
M  V30 35 1 1 33
M  V30 36 1 2 34
M  V30 37 1 6 35
M  V30 38 1 8 36
M  V30 39 1 15 37
M  V30 40 1 15 38
M  V30 41 1 16 39 CFG=1
M  V30 42 1 17 40
M  V30 43 1 17 41
M  V30 44 1 17 42
M  V30 45 1 19 43 CFG=3
M  V30 46 1 20 44
M  V30 47 1 20 45
M  V30 48 1 20 46
M  V30 49 1 21 47
M  V30 50 1 21 48
M  V30 51 1 22 49
M  V30 52 1 25 50
M  V30 53 1 25 51
M  V30 54 1 25 52
M  V30 55 1 27 53
M  V30 END BOND
M  V30 END CTAB
M  END
>  <Dataset>  (376) 
ChEMBL_Kinases

>  <Ligand_Instance>  (376) 
nan

>  <PDB_ID>  (376) 
nan

>  <Standardized_SMILES>  (376) 
CNc1nc(Nc2cc(F)c(C(=O)N3C[C@@H](C)O[C@@H](C)C3)cc2OC)ncc1C#N

>  <Name>  (376) 
nan

>  <Pocket>  (376) 
nan

>  <ATP_Site>  (376) 
nan

>  <Peripheral>  (376) 
nan

>  <Num_H_Atoms_ProtBoundConf>  (376) 
nan

>  <Num_Resolved_Atoms>  (376) 
nan

>  <Num_Not_Resolved_Atoms>  (376) 
nan

$$$$
CHEMBL3643993
     RDKit          3D

  0  0  0  0  0  0  0  0  0  0999 V3000
M  V30 BEGIN CTAB
M  V30 COUNTS 47 49 0 0 0
M  V30 BEGIN ATOM
M  V30 1 C -1.392171 -5.509328 2.022106 0
M  V30 2 N -1.160268 -6.029954 0.677010 0
M  V30 3 C -1.192172 -5.126163 -0.413412 0
M  V30 4 N -1.428467 -3.816848 -0.235183 0
M  V30 5 C -1.468870 -2.919779 -1.237107 0
M  V30 6 N -1.733280 -1.583323 -0.839244 0
M  V30 7 C -0.832525 -0.544917 -0.470746 0
M  V30 8 C 0.507358 -0.894139 -0.508061 0
M  V30 9 C 1.448674 0.069757 -0.160906 0
M  V30 10 F 2.786372 -0.152983 -0.159344 0
M  V30 11 C 1.004042 1.335951 0.206653 0
M  V30 12 C 1.957874 2.377452 0.578180 0
M  V30 13 O 2.535603 3.245880 -0.159867 0
M  V30 14 N 2.349498 2.506182 1.942270 0
M  V30 15 C 3.286614 3.536637 2.278036 0
M  V30 16 C 2.993687 4.166419 3.612852 0
M  V30 17 O 2.704837 3.226171 4.573202 0
M  V30 18 C 1.590246 2.487570 4.250080 0
M  V30 19 C 1.847715 1.651014 2.992030 0
M  V30 20 C -0.340257 1.651650 0.233391 0
M  V30 21 C -1.300394 0.717752 -0.105482 0
M  V30 22 O -2.672291 0.893640 -0.123308 0
M  V30 23 C -3.175207 2.185681 0.249165 0
M  V30 24 N -1.263854 -3.317608 -2.523801 0
M  V30 25 C -1.016594 -4.630004 -2.798675 0
M  V30 26 C -0.985457 -5.514372 -1.730456 0
M  V30 27 C -0.724970 -6.898754 -2.017669 0
M  V30 28 N -0.500812 -8.025983 -2.236599 0
M  V30 29 H -0.649673 -4.692574 2.195159 0
M  V30 30 H -1.192551 -6.297615 2.747980 0
M  V30 31 H -2.405025 -5.092572 2.153085 0
M  V30 32 H -0.969381 -7.034129 0.452162 0
M  V30 33 H -2.774098 -1.475150 -0.861727 0
M  V30 34 H 0.844253 -1.866743 -0.790620 0
M  V30 35 H 4.328140 3.104233 2.337036 0
M  V30 36 H 3.309115 4.350362 1.525892 0
M  V30 37 H 2.194427 4.934776 3.517196 0
M  V30 38 H 3.913127 4.731417 3.927790 0
M  V30 39 H 1.393352 1.783992 5.090114 0
M  V30 40 H 0.708925 3.119001 4.141045 0
M  V30 41 H 2.649848 0.940858 3.259279 0
M  V30 42 H 0.909848 1.141904 2.724263 0
M  V30 43 H -0.732044 2.626940 0.513894 0
M  V30 44 H -2.687575 2.531249 1.185535 0
M  V30 45 H -2.959819 2.942890 -0.519697 0
M  V30 46 H -4.260539 2.157655 0.447156 0
M  V30 47 H -0.855170 -4.938366 -3.819061 0
M  V30 END ATOM
M  V30 BEGIN BOND
M  V30 1 1 1 2
M  V30 2 1 2 3
M  V30 3 2 3 4
M  V30 4 1 4 5
M  V30 5 1 5 6
M  V30 6 1 6 7
M  V30 7 2 7 8
M  V30 8 1 8 9
M  V30 9 1 9 10
M  V30 10 2 9 11
M  V30 11 1 11 12
M  V30 12 2 12 13
M  V30 13 1 12 14
M  V30 14 1 14 15
M  V30 15 1 15 16
M  V30 16 1 16 17
M  V30 17 1 17 18
M  V30 18 1 18 19
M  V30 19 1 11 20
M  V30 20 2 20 21
M  V30 21 1 21 22
M  V30 22 1 22 23
M  V30 23 2 5 24
M  V30 24 1 24 25
M  V30 25 2 25 26
M  V30 26 1 26 27
M  V30 27 3 27 28
M  V30 28 1 26 3
M  V30 29 1 21 7
M  V30 30 1 19 14
M  V30 31 1 1 29
M  V30 32 1 1 30
M  V30 33 1 1 31
M  V30 34 1 2 32
M  V30 35 1 6 33
M  V30 36 1 8 34
M  V30 37 1 15 35
M  V30 38 1 15 36
M  V30 39 1 16 37
M  V30 40 1 16 38
M  V30 41 1 18 39
M  V30 42 1 18 40
M  V30 43 1 19 41
M  V30 44 1 19 42
M  V30 45 1 20 43
M  V30 46 1 23 44
M  V30 47 1 23 45
M  V30 48 1 23 46
M  V30 49 1 25 47
M  V30 END BOND
M  V30 END CTAB
M  END
>  <Dataset>  (377) 
ChEMBL_Kinases

>  <Ligand_Instance>  (377) 
nan

>  <PDB_ID>  (377) 
nan

>  <Standardized_SMILES>  (377) 
CNc1nc(Nc2cc(F)c(C(=O)N3CCOCC3)cc2OC)ncc1C#N

>  <Name>  (377) 
nan

>  <Pocket>  (377) 
nan

>  <ATP_Site>  (377) 
nan

>  <Peripheral>  (377) 
nan

>  <Num_H_Atoms_ProtBoundConf>  (377) 
nan

>  <Num_Resolved_Atoms>  (377) 
nan

>  <Num_Not_Resolved_Atoms>  (377) 
nan

$$$$
CHEMBL3643992
     RDKit          3D

  0  0  0  0  0  0  0  0  0  0999 V3000
M  V30 BEGIN CTAB
M  V30 COUNTS 50 52 0 0 0
M  V30 BEGIN ATOM
M  V30 1 C -1.084918 -2.915906 4.324022 0
M  V30 2 C -0.539334 -3.178998 2.950976 0
M  V30 3 N 0.639211 -4.030932 2.944764 0
M  V30 4 C 1.213819 -4.186462 1.630643 0
M  V30 5 N 0.745676 -3.608922 0.528192 0
M  V30 6 C 1.247432 -3.703547 -0.709502 0
M  V30 7 N 0.432858 -2.931186 -1.580746 0
M  V30 8 C 0.484845 -1.520230 -1.403279 0
M  V30 9 C 1.277345 -0.921329 -0.434895 0
M  V30 10 C 1.390537 0.426717 -0.161432 0
M  V30 11 F 2.201936 0.871106 0.814501 0
M  V30 12 C 0.604233 1.259850 -0.970289 0
M  V30 13 C 0.711878 2.682699 -0.671058 0
M  V30 14 O 1.489183 3.572060 -1.108037 0
M  V30 15 N -0.244921 3.156538 0.301886 0
M  V30 16 C -0.429930 4.498198 0.842714 0
M  V30 17 C -0.295536 4.362430 2.343662 0
M  V30 18 O 0.123061 3.076567 2.729779 0
M  V30 19 C -0.804384 2.112677 2.352585 0
M  V30 20 C -1.238272 2.258177 0.918231 0
M  V30 21 C -0.196752 0.706577 -1.943896 0
M  V30 22 C -0.278784 -0.649371 -2.182204 0
M  V30 23 O -1.089635 -1.180887 -3.165593 0
M  V30 24 C -1.921398 -0.475966 -4.034297 0
M  V30 25 N 2.341587 -4.466021 -0.842299 0
M  V30 26 C 2.908403 -5.102987 0.200959 0
M  V30 27 C 2.341964 -4.962470 1.442849 0
M  V30 28 C 2.974493 -5.656029 2.533341 0
M  V30 29 N 3.484933 -6.200992 3.427934 0
M  V30 30 H -0.272442 -2.682962 5.058085 0
M  V30 31 H -1.690139 -1.981022 4.248462 0
M  V30 32 H -1.747541 -3.724158 4.621328 0
M  V30 33 H -1.331727 -3.732576 2.401543 0
M  V30 34 H -0.243065 -2.242117 2.431440 0
M  V30 35 H 1.104765 -4.524450 3.731155 0
M  V30 36 H -0.206532 -3.280449 -2.346969 0
M  V30 37 H 1.897544 -1.572032 0.199876 0
M  V30 38 H 0.241369 5.252374 0.397025 0
M  V30 39 H -1.495242 4.777099 0.633844 0
M  V30 40 H -1.261189 4.518367 2.882127 0
M  V30 41 H 0.420718 5.106315 2.739538 0
M  V30 42 H -0.343876 1.121225 2.504704 0
M  V30 43 H -1.710407 2.266673 2.979624 0
M  V30 44 H -1.277675 1.293197 0.366856 0
M  V30 45 H -2.233022 2.727687 0.796153 0
M  V30 46 H -0.791506 1.399120 -2.550238 0
M  V30 47 H -2.887901 -0.210701 -3.564443 0
M  V30 48 H -1.407666 0.398288 -4.469437 0
M  V30 49 H -2.134096 -1.162218 -4.908996 0
M  V30 50 H 3.781619 -5.680457 -0.061924 0
M  V30 END ATOM
M  V30 BEGIN BOND
M  V30 1 1 1 2
M  V30 2 1 2 3
M  V30 3 1 3 4
M  V30 4 2 4 5
M  V30 5 1 5 6
M  V30 6 1 6 7
M  V30 7 1 7 8
M  V30 8 2 8 9
M  V30 9 1 9 10
M  V30 10 1 10 11
M  V30 11 2 10 12
M  V30 12 1 12 13
M  V30 13 2 13 14
M  V30 14 1 13 15
M  V30 15 1 15 16
M  V30 16 1 16 17
M  V30 17 1 17 18
M  V30 18 1 18 19
M  V30 19 1 19 20
M  V30 20 1 12 21
M  V30 21 2 21 22
M  V30 22 1 22 23
M  V30 23 1 23 24
M  V30 24 2 6 25
M  V30 25 1 25 26
M  V30 26 2 26 27
M  V30 27 1 27 28
M  V30 28 3 28 29
M  V30 29 1 27 4
M  V30 30 1 22 8
M  V30 31 1 20 15
M  V30 32 1 1 30
M  V30 33 1 1 31
M  V30 34 1 1 32
M  V30 35 1 2 33
M  V30 36 1 2 34
M  V30 37 1 3 35
M  V30 38 1 7 36
M  V30 39 1 9 37
M  V30 40 1 16 38
M  V30 41 1 16 39
M  V30 42 1 17 40
M  V30 43 1 17 41
M  V30 44 1 19 42
M  V30 45 1 19 43
M  V30 46 1 20 44
M  V30 47 1 20 45
M  V30 48 1 21 46
M  V30 49 1 24 47
M  V30 50 1 24 48
M  V30 51 1 24 49
M  V30 52 1 26 50
M  V30 END BOND
M  V30 END CTAB
M  END
>  <Dataset>  (378) 
ChEMBL_Kinases

>  <Ligand_Instance>  (378) 
nan

>  <PDB_ID>  (378) 
nan

>  <Standardized_SMILES>  (378) 
CCNc1nc(Nc2cc(F)c(C(=O)N3CCOCC3)cc2OC)ncc1C#N

>  <Name>  (378) 
nan

>  <Pocket>  (378) 
nan

>  <ATP_Site>  (378) 
nan

>  <Peripheral>  (378) 
nan

>  <Num_H_Atoms_ProtBoundConf>  (378) 
nan

>  <Num_Resolved_Atoms>  (378) 
nan

>  <Num_Not_Resolved_Atoms>  (378) 
nan

$$$$
CHEMBL3643991
     RDKit          3D

  0  0  0  0  0  0  0  0  0  0999 V3000
M  V30 BEGIN CTAB
M  V30 COUNTS 46 48 0 0 0
M  V30 BEGIN ATOM
M  V30 1 C 3.512122 -0.216398 3.408883 0
M  V30 2 O 2.590665 -1.260961 3.124952 0
M  V30 3 C 1.503615 -0.997219 2.256851 0
M  V30 4 C 1.396163 0.280989 1.725204 0
M  V30 5 C 0.393428 0.627945 0.886313 0
M  V30 6 C 0.392045 1.981531 0.412258 0
M  V30 7 O 0.575210 1.904941 -0.850074 0
M  V30 8 N 0.386612 3.291668 -0.017661 0
M  V30 9 C 0.565087 3.624062 -1.413117 0
M  V30 10 C 0.596529 5.097733 -1.651712 0
M  V30 11 O 0.482418 5.907130 -0.557632 0
M  V30 12 C 1.054490 5.462492 0.608526 0
M  V30 13 C 0.185810 4.272438 1.055047 0
M  V30 14 C -0.634664 -0.227566 0.457977 0
M  V30 15 C -0.495632 -1.485093 1.005264 0
M  V30 16 C 0.500449 -1.846054 1.844256 0
M  V30 17 N 0.603672 -3.165223 2.367650 0
M  V30 18 C -0.445543 -4.072395 1.965119 0
M  V30 19 N -1.479415 -4.155978 2.866965 0
M  V30 20 C -2.496282 -4.976399 2.522593 0
M  V30 21 C -2.467762 -5.671773 1.335358 0
M  V30 22 C -3.575384 -6.533935 1.003326 0
M  V30 23 N -4.469929 -7.212997 0.752884 0
M  V30 24 C -1.408861 -5.554447 0.466566 0
M  V30 25 O -1.407422 -6.268016 -0.723599 0
M  V30 26 C -0.325140 -6.162889 -1.635242 0
M  V30 27 N -0.367122 -4.729271 0.792952 0
M  V30 28 H 3.979572 0.098822 2.476144 0
M  V30 29 H 4.271081 -0.555720 4.112164 0
M  V30 30 H 2.922059 0.603921 3.837754 0
M  V30 31 H 2.160124 1.023657 2.005511 0
M  V30 32 H -0.266092 3.149468 -2.018912 0
M  V30 33 H 1.513045 3.198997 -1.822627 0
M  V30 34 H -0.291381 5.350929 -2.309520 0
M  V30 35 H 1.473421 5.394238 -2.310412 0
M  V30 36 H 1.036128 6.265741 1.356231 0
M  V30 37 H 2.083356 5.032868 0.488262 0
M  V30 38 H 0.429886 3.906341 2.043045 0
M  V30 39 H -0.875747 4.634883 0.931258 0
M  V30 40 H -1.392893 0.117753 -0.209499 0
M  V30 41 H -1.253094 -2.224307 0.729518 0
M  V30 42 H 1.349569 -3.513351 2.995513 0
M  V30 43 H -3.367923 -5.112974 3.172907 0
M  V30 44 H 0.438556 -5.484082 -1.196738 0
M  V30 45 H -0.644911 -5.691824 -2.599167 0
M  V30 46 H 0.158382 -7.156149 -1.803439 0
M  V30 END ATOM
M  V30 BEGIN BOND
M  V30 1 1 1 2
M  V30 2 1 2 3
M  V30 3 2 3 4
M  V30 4 1 4 5
M  V30 5 1 5 6
M  V30 6 2 6 7
M  V30 7 1 6 8
M  V30 8 1 8 9
M  V30 9 1 9 10
M  V30 10 1 10 11
M  V30 11 1 11 12
M  V30 12 1 12 13
M  V30 13 2 5 14
M  V30 14 1 14 15
M  V30 15 2 15 16
M  V30 16 1 16 17
M  V30 17 1 17 18
M  V30 18 2 18 19
M  V30 19 1 19 20
M  V30 20 2 20 21
M  V30 21 1 21 22
M  V30 22 3 22 23
M  V30 23 1 21 24
M  V30 24 1 24 25
M  V30 25 1 25 26
M  V30 26 2 24 27
M  V30 27 1 16 3
M  V30 28 1 27 18
M  V30 29 1 13 8
M  V30 30 1 1 28
M  V30 31 1 1 29
M  V30 32 1 1 30
M  V30 33 1 4 31
M  V30 34 1 9 32
M  V30 35 1 9 33
M  V30 36 1 10 34
M  V30 37 1 10 35
M  V30 38 1 12 36
M  V30 39 1 12 37
M  V30 40 1 13 38
M  V30 41 1 13 39
M  V30 42 1 14 40
M  V30 43 1 15 41
M  V30 44 1 17 42
M  V30 45 1 20 43
M  V30 46 1 26 44
M  V30 47 1 26 45
M  V30 48 1 26 46
M  V30 END BOND
M  V30 END CTAB
M  END
>  <Dataset>  (379) 
ChEMBL_Kinases

>  <Ligand_Instance>  (379) 
nan

>  <PDB_ID>  (379) 
nan

>  <Standardized_SMILES>  (379) 
COc1cc(C(=O)N2CCOCC2)ccc1Nc1ncc(C#N)c(OC)n1

>  <Name>  (379) 
nan

>  <Pocket>  (379) 
nan

>  <ATP_Site>  (379) 
nan

>  <Peripheral>  (379) 
nan

>  <Num_H_Atoms_ProtBoundConf>  (379) 
nan

>  <Num_Resolved_Atoms>  (379) 
nan

>  <Num_Not_Resolved_Atoms>  (379) 
nan

$$$$
CHEMBL3643990
     RDKit          3D

  0  0  0  0  0  0  0  0  0  0999 V3000
M  V30 BEGIN CTAB
M  V30 COUNTS 55 57 0 0 0
M  V30 BEGIN ATOM
M  V30 1 C 3.764862 0.114437 4.256548 0
M  V30 2 C 4.376609 -1.186058 4.693281 0
M  V30 3 N 3.300651 -2.111421 5.026172 0
M  V30 4 C 2.324847 -2.567863 4.130297 0
M  V30 5 N 2.309594 -2.170067 2.845245 0
M  V30 6 C 1.392068 -2.580947 1.954083 0
M  V30 7 N 1.262355 -2.257238 0.596499 0
M  V30 8 C 0.634255 -1.163629 -0.058581 0
M  V30 9 C 0.090676 -0.245228 0.850274 0
M  V30 10 C -0.538083 0.873115 0.297267 0
M  V30 11 F -1.086260 1.802007 1.104097 0
M  V30 12 C -0.622833 1.069199 -1.086216 0
M  V30 13 C -1.278699 2.243798 -1.648923 0
M  V30 14 O -0.483505 3.198991 -1.827066 0
M  V30 15 N -2.666847 2.017922 -1.858346 0
M  V30 16 C -3.459464 0.806952 -1.587887 0
M  V30 17 C -4.750563 1.268083 -0.950601 0
M  V30 18 O -5.566016 1.924684 -1.862283 0
M  V30 19 C -4.845698 2.596040 -2.839535 0
M  V30 20 C -3.496894 3.079970 -2.408218 0
M  V30 21 C -0.065847 0.123898 -1.918104 0
M  V30 22 C 0.566375 -0.998267 -1.426137 0
M  V30 23 O 1.170566 -2.031715 -2.107689 0
M  V30 24 C 1.293867 -2.203017 -3.477912 0
M  V30 25 C 0.026597 -2.289941 -4.254835 0
M  V30 26 N 0.427019 -3.442742 2.365360 0
M  V30 27 C 0.360110 -3.895606 3.627621 0
M  V30 28 C 1.318765 -3.457516 4.530462 0
M  V30 29 C 1.321966 -3.919339 5.961290 0
M  V30 30 F 2.476726 -4.578583 6.293810 0
M  V30 31 F 0.238227 -4.773047 6.098600 0
M  V30 32 F 1.110220 -2.862187 6.815613 0
M  V30 33 H 3.466059 0.679637 5.173007 0
M  V30 34 H 2.905775 0.001966 3.570461 0
M  V30 35 H 4.543054 0.736299 3.769917 0
M  V30 36 H 5.019000 -0.981789 5.548955 0
M  V30 37 H 5.010828 -1.613449 3.887179 0
M  V30 38 H 3.264685 -2.451997 6.012575 0
M  V30 39 H 1.742797 -3.007864 0.034153 0
M  V30 40 H 0.129627 -0.351890 1.924338 0
M  V30 41 H -3.711900 0.304874 -2.520738 0
M  V30 42 H -2.948908 0.109072 -0.912542 0
M  V30 43 H -5.294985 0.368129 -0.604509 0
M  V30 44 H -4.605423 1.922690 -0.072650 0
M  V30 45 H -5.448742 3.528395 -3.050248 0
M  V30 46 H -4.790240 2.062240 -3.809689 0
M  V30 47 H -3.550309 3.945360 -1.713992 0
M  V30 48 H -2.992282 3.460466 -3.319631 0
M  V30 49 H -0.079622 0.188538 -2.996253 0
M  V30 50 H 1.897276 -1.361095 -3.882108 0
M  V30 51 H 1.848400 -3.177776 -3.622365 0
M  V30 52 H 0.073436 -1.800662 -5.266226 0
M  V30 53 H -0.880111 -1.946630 -3.709194 0
M  V30 54 H -0.189246 -3.364996 -4.491124 0
M  V30 55 H -0.369731 -4.575140 4.023743 0
M  V30 END ATOM
M  V30 BEGIN BOND
M  V30 1 1 1 2
M  V30 2 1 2 3
M  V30 3 1 3 4
M  V30 4 2 4 5
M  V30 5 1 5 6
M  V30 6 1 6 7
M  V30 7 1 7 8
M  V30 8 2 8 9
M  V30 9 1 9 10
M  V30 10 1 10 11
M  V30 11 2 10 12
M  V30 12 1 12 13
M  V30 13 2 13 14
M  V30 14 1 13 15
M  V30 15 1 15 16
M  V30 16 1 16 17
M  V30 17 1 17 18
M  V30 18 1 18 19
M  V30 19 1 19 20
M  V30 20 1 12 21
M  V30 21 2 21 22
M  V30 22 1 22 23
M  V30 23 1 23 24
M  V30 24 1 24 25
M  V30 25 2 6 26
M  V30 26 1 26 27
M  V30 27 2 27 28
M  V30 28 1 28 29
M  V30 29 1 29 30
M  V30 30 1 29 31
M  V30 31 1 29 32
M  V30 32 1 28 4
M  V30 33 1 22 8
M  V30 34 1 20 15
M  V30 35 1 1 33
M  V30 36 1 1 34
M  V30 37 1 1 35
M  V30 38 1 2 36
M  V30 39 1 2 37
M  V30 40 1 3 38
M  V30 41 1 7 39
M  V30 42 1 9 40
M  V30 43 1 16 41
M  V30 44 1 16 42
M  V30 45 1 17 43
M  V30 46 1 17 44
M  V30 47 1 19 45
M  V30 48 1 19 46
M  V30 49 1 20 47
M  V30 50 1 20 48
M  V30 51 1 21 49
M  V30 52 1 24 50
M  V30 53 1 24 51
M  V30 54 1 25 52
M  V30 55 1 25 53
M  V30 56 1 25 54
M  V30 57 1 27 55
M  V30 END BOND
M  V30 END CTAB
M  END
>  <Dataset>  (380) 
ChEMBL_Kinases

>  <Ligand_Instance>  (380) 
nan

>  <PDB_ID>  (380) 
nan

>  <Standardized_SMILES>  (380) 
CCNc1nc(Nc2cc(F)c(C(=O)N3CCOCC3)cc2OCC)ncc1C(F)(F)F

>  <Name>  (380) 
nan

>  <Pocket>  (380) 
nan

>  <ATP_Site>  (380) 
nan

>  <Peripheral>  (380) 
nan

>  <Num_H_Atoms_ProtBoundConf>  (380) 
nan

>  <Num_Resolved_Atoms>  (380) 
nan

>  <Num_Not_Resolved_Atoms>  (380) 
nan

$$$$
CHEMBL3643989
     RDKit          3D

  0  0  0  0  0  0  0  0  0  0999 V3000
M  V30 BEGIN CTAB
M  V30 COUNTS 54 55 0 0 0
M  V30 BEGIN ATOM
M  V30 1 C 3.429951 4.376078 1.944195 0
M  V30 2 C 4.018041 3.002128 1.650790 0
M  V30 3 N 2.963462 2.012643 1.745947 0
M  V30 4 C 2.520060 1.257978 2.870433 0
M  V30 5 C 3.179096 -0.052691 3.102187 0
M  V30 6 O 4.528101 -0.043780 3.314430 0
M  V30 7 C 4.920884 0.682700 4.426047 0
M  V30 8 C 2.274240 1.775038 0.507773 0
M  V30 9 O 2.808594 2.536983 -0.363944 0
M  V30 10 C 1.178061 0.874743 0.195611 0
M  V30 11 C -0.095316 1.368275 0.348050 0
M  V30 12 C -1.185967 0.579112 0.074999 0
M  V30 13 O -2.458826 1.154153 0.254601 0
M  V30 14 C -2.643059 2.474282 0.692596 0
M  V30 15 C -1.104137 -0.725674 -0.358793 0
M  V30 16 N -2.253808 -1.511793 -0.631310 0
M  V30 17 C -2.346092 -2.846795 -1.076921 0
M  V30 18 N -1.290220 -3.630842 -1.328431 0
M  V30 19 C -1.411925 -4.893852 -1.750345 0
M  V30 20 C -2.658594 -5.441049 -1.944126 0
M  V30 21 C -2.846116 -6.835169 -2.410372 0
M  V30 22 F -3.564633 -7.548807 -1.458406 0
M  V30 23 F -3.599469 -6.839769 -3.579853 0
M  V30 24 F -1.638608 -7.455869 -2.587240 0
M  V30 25 C -3.734402 -4.628425 -1.683287 0
M  V30 26 N -5.058325 -5.113435 -1.857080 0
M  V30 27 C -6.209305 -4.276287 -1.588731 0
M  V30 28 N -3.554888 -3.370236 -1.262439 0
M  V30 29 C 0.189599 -1.159883 -0.491328 0
M  V30 30 C 1.327534 -0.426138 -0.236318 0
M  V30 31 F 2.583536 -0.910361 -0.387257 0
M  V30 32 H 2.957996 4.717591 1.002496 0
M  V30 33 H 2.701061 4.365348 2.754226 0
M  V30 34 H 4.264829 5.056156 2.209252 0
M  V30 35 H 4.438526 3.057210 0.625537 0
M  V30 36 H 4.891061 2.791738 2.298918 0
M  V30 37 H 2.584433 1.842955 3.835296 0
M  V30 38 H 1.425391 1.043408 2.782977 0
M  V30 39 H 2.705937 -0.505760 4.011422 0
M  V30 40 H 2.965169 -0.775268 2.277444 0
M  V30 41 H 6.038724 0.607665 4.476763 0
M  V30 42 H 4.550487 0.173843 5.343305 0
M  V30 43 H 4.646989 1.735199 4.427021 0
M  V30 44 H -0.252872 2.383617 0.684719 0
M  V30 45 H -3.711485 2.572038 1.003183 0
M  V30 46 H -2.041356 2.702486 1.612291 0
M  V30 47 H -2.396299 3.209266 -0.082906 0
M  V30 48 H -3.147030 -0.988725 -0.465287 0
M  V30 49 H -0.546334 -5.519185 -1.950731 0
M  V30 50 H -5.258929 -6.082987 -2.181999 0
M  V30 51 H -6.490362 -4.296045 -0.518389 0
M  V30 52 H -7.098983 -4.607171 -2.161513 0
M  V30 53 H -6.019766 -3.229981 -1.884463 0
M  V30 54 H 0.416300 -2.160107 -0.822344 0
M  V30 END ATOM
M  V30 BEGIN BOND
M  V30 1 1 1 2
M  V30 2 1 2 3
M  V30 3 1 3 4
M  V30 4 1 4 5
M  V30 5 1 5 6
M  V30 6 1 6 7
M  V30 7 1 3 8
M  V30 8 2 8 9
M  V30 9 1 8 10
M  V30 10 2 10 11
M  V30 11 1 11 12
M  V30 12 1 12 13
M  V30 13 1 13 14
M  V30 14 2 12 15
M  V30 15 1 15 16
M  V30 16 1 16 17
M  V30 17 2 17 18
M  V30 18 1 18 19
M  V30 19 2 19 20
M  V30 20 1 20 21
M  V30 21 1 21 22
M  V30 22 1 21 23
M  V30 23 1 21 24
M  V30 24 1 20 25
M  V30 25 1 25 26
M  V30 26 1 26 27
M  V30 27 2 25 28
M  V30 28 1 15 29
M  V30 29 2 29 30
M  V30 30 1 30 31
M  V30 31 1 30 10
M  V30 32 1 28 17
M  V30 33 1 1 32
M  V30 34 1 1 33
M  V30 35 1 1 34
M  V30 36 1 2 35
M  V30 37 1 2 36
M  V30 38 1 4 37
M  V30 39 1 4 38
M  V30 40 1 5 39
M  V30 41 1 5 40
M  V30 42 1 7 41
M  V30 43 1 7 42
M  V30 44 1 7 43
M  V30 45 1 11 44
M  V30 46 1 14 45
M  V30 47 1 14 46
M  V30 48 1 14 47
M  V30 49 1 16 48
M  V30 50 1 19 49
M  V30 51 1 26 50
M  V30 52 1 27 51
M  V30 53 1 27 52
M  V30 54 1 27 53
M  V30 55 1 29 54
M  V30 END BOND
M  V30 END CTAB
M  END
>  <Dataset>  (381) 
ChEMBL_Kinases

>  <Ligand_Instance>  (381) 
nan

>  <PDB_ID>  (381) 
nan

>  <Standardized_SMILES>  (381) 
CCN(CCOC)C(=O)c1cc(OC)c(Nc2ncc(C(F)(F)F)c(NC)n2)cc1F

>  <Name>  (381) 
nan

>  <Pocket>  (381) 
nan

>  <ATP_Site>  (381) 
nan

>  <Peripheral>  (381) 
nan

>  <Num_H_Atoms_ProtBoundConf>  (381) 
nan

>  <Num_Resolved_Atoms>  (381) 
nan

>  <Num_Not_Resolved_Atoms>  (381) 
nan

$$$$
CHEMBL3643988
     RDKit          3D

  0  0  0  0  0  0  0  0  0  0999 V3000
M  V30 BEGIN CTAB
M  V30 COUNTS 57 58 0 0 0
M  V30 BEGIN ATOM
M  V30 1 C 4.455763 -1.886508 3.695823 0
M  V30 2 C 5.204496 -3.161988 3.361052 0
M  V30 3 N 4.219631 -4.218346 3.301285 0
M  V30 4 C 3.128214 -4.313770 2.417344 0
M  V30 5 N 2.926521 -3.364673 1.495513 0
M  V30 6 C 1.923489 -3.388692 0.627173 0
M  V30 7 N 1.499920 -2.550809 -0.430677 0
M  V30 8 C 0.759492 -1.339752 -0.373771 0
M  V30 9 C 0.409364 -0.742451 0.812520 0
M  V30 10 C -0.296966 0.437995 0.928408 0
M  V30 11 F -0.557239 0.883533 2.168126 0
M  V30 12 C -0.680915 1.066579 -0.239746 0
M  V30 13 C -1.397591 2.306972 0.007384 0
M  V30 14 O -1.040738 3.499195 0.070233 0
M  V30 15 N -2.778138 2.594390 0.271614 0
M  V30 16 C -3.180037 3.950342 0.474993 0
M  V30 17 C -3.605313 4.635104 -0.789473 0
M  V30 18 C -3.827061 1.616051 0.361192 0
M  V30 19 C -4.506702 1.359534 -0.963644 0
M  V30 20 O -3.573326 0.901200 -1.855510 0
M  V30 21 C -4.094780 0.622198 -3.111900 0
M  V30 22 C -0.346514 0.496269 -1.457856 0
M  V30 23 C 0.358589 -0.681294 -1.546594 0
M  V30 24 O 0.685141 -1.237427 -2.755727 0
M  V30 25 C 0.371125 -0.712663 -4.017624 0
M  V30 26 N 1.090964 -4.416831 0.696335 0
M  V30 27 C 1.172068 -5.426258 1.558555 0
M  V30 28 C 2.227490 -5.358737 2.438713 0
M  V30 29 C 2.416742 -6.432674 3.446540 0
M  V30 30 F 2.362809 -5.935892 4.753761 0
M  V30 31 F 1.405666 -7.369283 3.360931 0
M  V30 32 F 3.645957 -7.087327 3.276690 0
M  V30 33 H 4.950436 -1.031253 3.181454 0
M  V30 34 H 3.429242 -1.959918 3.330902 0
M  V30 35 H 4.388220 -1.726600 4.801320 0
M  V30 36 H 5.821151 -3.077095 2.468641 0
M  V30 37 H 5.891614 -3.330535 4.233257 0
M  V30 38 H 4.314067 -5.013492 3.990669 0
M  V30 39 H 1.788647 -2.912827 -1.363375 0
M  V30 40 H 0.740880 -1.286364 1.689476 0
M  V30 41 H -2.356130 4.579735 0.914315 0
M  V30 42 H -3.968878 3.984080 1.278583 0
M  V30 43 H -4.722584 4.676466 -0.836608 0
M  V30 44 H -3.222003 5.680522 -0.852657 0
M  V30 45 H -3.266180 4.099446 -1.694837 0
M  V30 46 H -3.354078 0.649995 0.720695 0
M  V30 47 H -4.579696 1.925494 1.142009 0
M  V30 48 H -5.346203 0.650249 -0.794606 0
M  V30 49 H -4.914113 2.331152 -1.322836 0
M  V30 50 H -4.898936 -0.156641 -3.061135 0
M  V30 51 H -4.372027 1.492431 -3.698052 0
M  V30 52 H -3.251776 0.098044 -3.653339 0
M  V30 53 H -0.681183 1.042028 -2.315208 0
M  V30 54 H 0.319075 0.398951 -4.012475 0
M  V30 55 H 1.092169 -1.018444 -4.781273 0
M  V30 56 H -0.628228 -1.059052 -4.310492 0
M  V30 57 H 0.510412 -6.294111 1.655000 0
M  V30 END ATOM
M  V30 BEGIN BOND
M  V30 1 1 1 2
M  V30 2 1 2 3
M  V30 3 1 3 4
M  V30 4 2 4 5
M  V30 5 1 5 6
M  V30 6 1 6 7
M  V30 7 1 7 8
M  V30 8 2 8 9
M  V30 9 1 9 10
M  V30 10 1 10 11
M  V30 11 2 10 12
M  V30 12 1 12 13
M  V30 13 2 13 14
M  V30 14 1 13 15
M  V30 15 1 15 16
M  V30 16 1 16 17
M  V30 17 1 15 18
M  V30 18 1 18 19
M  V30 19 1 19 20
M  V30 20 1 20 21
M  V30 21 1 12 22
M  V30 22 2 22 23
M  V30 23 1 23 24
M  V30 24 1 24 25
M  V30 25 2 6 26
M  V30 26 1 26 27
M  V30 27 2 27 28
M  V30 28 1 28 29
M  V30 29 1 29 30
M  V30 30 1 29 31
M  V30 31 1 29 32
M  V30 32 1 28 4
M  V30 33 1 23 8
M  V30 34 1 1 33
M  V30 35 1 1 34
M  V30 36 1 1 35
M  V30 37 1 2 36
M  V30 38 1 2 37
M  V30 39 1 3 38
M  V30 40 1 7 39
M  V30 41 1 9 40
M  V30 42 1 16 41
M  V30 43 1 16 42
M  V30 44 1 17 43
M  V30 45 1 17 44
M  V30 46 1 17 45
M  V30 47 1 18 46
M  V30 48 1 18 47
M  V30 49 1 19 48
M  V30 50 1 19 49
M  V30 51 1 21 50
M  V30 52 1 21 51
M  V30 53 1 21 52
M  V30 54 1 22 53
M  V30 55 1 25 54
M  V30 56 1 25 55
M  V30 57 1 25 56
M  V30 58 1 27 57
M  V30 END BOND
M  V30 END CTAB
M  END
>  <Dataset>  (382) 
ChEMBL_Kinases

>  <Ligand_Instance>  (382) 
nan

>  <PDB_ID>  (382) 
nan

>  <Standardized_SMILES>  (382) 
CCNc1nc(Nc2cc(F)c(C(=O)N(CC)CCOC)cc2OC)ncc1C(F)(F)F

>  <Name>  (382) 
nan

>  <Pocket>  (382) 
nan

>  <ATP_Site>  (382) 
nan

>  <Peripheral>  (382) 
nan

>  <Num_H_Atoms_ProtBoundConf>  (382) 
nan

>  <Num_Resolved_Atoms>  (382) 
nan

>  <Num_Not_Resolved_Atoms>  (382) 
nan

$$$$
CHEMBL3643987
     RDKit          3D

  0  0  0  0  0  0  0  0  0  0999 V3000
M  V30 BEGIN CTAB
M  V30 COUNTS 58 60 0 0 0
M  V30 BEGIN ATOM
M  V30 1 C -0.376950 -4.673387 6.185764 0
M  V30 2 C -0.877719 -3.248978 6.055586 0
M  V30 3 N -0.015988 -2.326172 5.446639 0
M  V30 4 C 0.855279 -1.400662 4.820058 0
M  V30 5 N 1.422739 -1.364467 3.606039 0
M  V30 6 C 2.236620 -0.371718 3.218446 0
M  V30 7 N 2.720602 -0.544324 1.894882 0
M  V30 8 C 2.022063 -0.049922 0.740182 0
M  V30 9 C 0.816895 0.616379 0.943801 0
M  V30 10 C 0.116297 1.100999 -0.130952 0
M  V30 11 F -1.050824 1.737972 0.180295 0
M  V30 12 C 0.571316 0.950830 -1.450103 0
M  V30 13 C -0.217706 1.488124 -2.521016 0
M  V30 14 O 0.050419 2.688663 -2.865074 0
M  V30 15 N -1.273176 1.018755 -3.344803 0
M  V30 16 C -1.850095 1.868156 -4.363971 0
M  V30 17 C -3.346708 1.648409 -4.256863 0
M  V30 18 C -3.431546 0.181259 -3.918210 0
M  V30 19 C -2.063074 -0.198794 -3.508675 0 CFG=1
M  V30 20 C -1.392378 -1.188281 -4.396228 0
M  V30 21 O -2.132346 -2.310049 -4.577654 0
M  V30 22 C -2.378037 -2.971164 -3.391973 0
M  V30 23 C 1.789002 0.277247 -1.654023 0
M  V30 24 C 2.490284 -0.211003 -0.540827 0
M  V30 25 O 3.684836 -0.872691 -0.724576 0
M  V30 26 C 4.222830 -1.069298 -2.018536 0
M  V30 27 N 2.454625 0.587196 4.111911 0
M  V30 28 C 1.959068 0.675788 5.345316 0
M  V30 29 C 1.108236 -0.369817 5.738882 0
M  V30 30 C 0.552554 -0.265565 7.137802 0
M  V30 31 F -0.844404 -0.231079 7.044917 0
M  V30 32 F 0.895215 -1.357716 7.865769 0
M  V30 33 F 0.926730 0.923319 7.687472 0
M  V30 34 H -1.206489 -5.272249 6.606364 0
M  V30 35 H -0.135209 -5.042439 5.156499 0
M  V30 36 H 0.486543 -4.759712 6.855320 0
M  V30 37 H -1.894385 -3.308819 5.569515 0
M  V30 38 H -1.162476 -2.901298 7.120028 0
M  V30 39 H -0.054245 -2.987035 4.595907 0
M  V30 40 H 3.616843 -1.047124 1.709914 0
M  V30 41 H 0.474972 0.727333 1.959325 0
M  V30 42 H -1.540030 2.913382 -4.299061 0
M  V30 43 H -1.548914 1.480257 -5.375178 0
M  V30 44 H -3.852247 1.901354 -5.195595 0
M  V30 45 H -3.774668 2.192735 -3.388695 0
M  V30 46 H -4.183615 -0.004253 -3.102442 0
M  V30 47 H -3.768433 -0.370514 -4.847360 0
M  V30 48 H -2.154720 -0.696337 -2.495559 0
M  V30 49 H -1.042687 -0.752199 -5.358697 0
M  V30 50 H -0.433714 -1.475361 -3.863225 0
M  V30 51 H -1.446526 -3.280302 -2.841473 0
M  V30 52 H -2.830054 -3.961773 -3.703851 0
M  V30 53 H -3.022774 -2.438245 -2.699555 0
M  V30 54 H 2.162035 0.150215 -2.660886 0
M  V30 55 H 3.474298 -1.399302 -2.764481 0
M  V30 56 H 4.682473 -0.118826 -2.410561 0
M  V30 57 H 5.007664 -1.858644 -1.978393 0
M  V30 58 H 2.246305 1.533297 5.939125 0
M  V30 END ATOM
M  V30 BEGIN BOND
M  V30 1 1 1 2
M  V30 2 1 2 3
M  V30 3 1 3 4
M  V30 4 2 4 5
M  V30 5 1 5 6
M  V30 6 1 6 7
M  V30 7 1 7 8
M  V30 8 2 8 9
M  V30 9 1 9 10
M  V30 10 1 10 11
M  V30 11 2 10 12
M  V30 12 1 12 13
M  V30 13 2 13 14
M  V30 14 1 13 15
M  V30 15 1 15 16
M  V30 16 1 16 17
M  V30 17 1 17 18
M  V30 18 1 18 19
M  V30 19 1 19 20
M  V30 20 1 20 21
M  V30 21 1 21 22
M  V30 22 1 12 23
M  V30 23 2 23 24
M  V30 24 1 24 25
M  V30 25 1 25 26
M  V30 26 2 6 27
M  V30 27 1 27 28
M  V30 28 2 28 29
M  V30 29 1 29 30
M  V30 30 1 30 31
M  V30 31 1 30 32
M  V30 32 1 30 33
M  V30 33 1 29 4
M  V30 34 1 24 8
M  V30 35 1 19 15
M  V30 36 1 1 34
M  V30 37 1 1 35
M  V30 38 1 1 36
M  V30 39 1 2 37
M  V30 40 1 2 38
M  V30 41 1 3 39
M  V30 42 1 7 40
M  V30 43 1 9 41
M  V30 44 1 16 42
M  V30 45 1 16 43
M  V30 46 1 17 44
M  V30 47 1 17 45
M  V30 48 1 18 46
M  V30 49 1 18 47
M  V30 50 1 19 48 CFG=1
M  V30 51 1 20 49
M  V30 52 1 20 50
M  V30 53 1 22 51
M  V30 54 1 22 52
M  V30 55 1 22 53
M  V30 56 1 23 54
M  V30 57 1 26 55
M  V30 58 1 26 56
M  V30 59 1 26 57
M  V30 60 1 28 58
M  V30 END BOND
M  V30 END CTAB
M  END
>  <Dataset>  (383) 
ChEMBL_Kinases

>  <Ligand_Instance>  (383) 
nan

>  <PDB_ID>  (383) 
nan

>  <Standardized_SMILES>  (383) 
CCNc1nc(Nc2cc(F)c(C(=O)N3CCC[C@H]3COC)cc2OC)ncc1C(F)(F)F

>  <Name>  (383) 
nan

>  <Pocket>  (383) 
nan

>  <ATP_Site>  (383) 
nan

>  <Peripheral>  (383) 
nan

>  <Num_H_Atoms_ProtBoundConf>  (383) 
nan

>  <Num_Resolved_Atoms>  (383) 
nan

>  <Num_Not_Resolved_Atoms>  (383) 
nan

$$$$
CHEMBL3643986
     RDKit          3D

  0  0  0  0  0  0  0  0  0  0999 V3000
M  V30 BEGIN CTAB
M  V30 COUNTS 55 57 0 0 0
M  V30 BEGIN ATOM
M  V30 1 C 5.980151 -3.899712 0.842362 0
M  V30 2 N 4.905287 -4.589954 1.547510 0
M  V30 3 C 3.503527 -4.549989 1.310634 0
M  V30 4 N 3.080553 -3.772139 0.296696 0
M  V30 5 C 1.764458 -3.665265 -0.012617 0
M  V30 6 N 1.152357 -2.894180 -1.036622 0
M  V30 7 C 0.673795 -1.586907 -0.765492 0
M  V30 8 C 0.803834 -1.072862 0.531241 0
M  V30 9 C 0.319695 0.215259 0.786341 0
M  V30 10 F 0.517705 0.577745 2.091147 0
M  V30 11 C -0.277959 0.969012 -0.226066 0
M  V30 12 C -0.684892 2.255358 0.319851 0
M  V30 13 O 0.053600 3.287367 0.320026 0
M  V30 14 N -1.891305 2.719782 0.953575 0
M  V30 15 C -1.963705 4.091807 1.386941 0
M  V30 16 C -2.582362 4.011227 2.747816 0
M  V30 17 C -3.361293 2.730881 2.733613 0
M  V30 18 C -3.176225 2.155722 1.323147 0 CFG=1
M  V30 19 C -4.278507 2.673498 0.426374 0
M  V30 20 O -4.037804 2.342270 -0.903067 0
M  V30 21 C -3.973070 0.972049 -1.107963 0
M  V30 22 C -0.391780 0.441093 -1.485009 0
M  V30 23 C 0.080715 -0.825178 -1.749232 0
M  V30 24 O -0.073184 -1.277236 -3.038929 0
M  V30 25 C -0.649808 -0.607035 -4.109325 0
M  V30 26 N 0.935118 -4.381311 0.756034 0
M  V30 27 C 1.273918 -5.166665 1.768086 0
M  V30 28 C 2.613553 -5.271029 2.077349 0
M  V30 29 C 3.135178 -6.121881 3.189538 0
M  V30 30 F 2.030820 -6.705516 3.769163 0
M  V30 31 F 3.811055 -5.347151 4.107706 0
M  V30 32 F 3.931710 -7.141637 2.688118 0
M  V30 33 H 5.615490 -3.352790 -0.050558 0
M  V30 34 H 6.706087 -4.651996 0.425153 0
M  V30 35 H 6.494958 -3.159800 1.481096 0
M  V30 36 H 5.248746 -5.188851 2.329074 0
M  V30 37 H 1.083179 -3.334173 -1.958781 0
M  V30 38 H 1.275434 -1.707688 1.266581 0
M  V30 39 H -2.645421 4.662199 0.703556 0
M  V30 40 H -0.979171 4.612447 1.425767 0
M  V30 41 H -3.240997 4.893706 2.963402 0
M  V30 42 H -1.798158 3.934853 3.541292 0
M  V30 43 H -4.440324 2.905440 2.898941 0
M  V30 44 H -2.961389 2.009724 3.488943 0
M  V30 45 H -3.194691 1.072763 1.416923 0
M  V30 46 H -5.246232 2.199345 0.768711 0
M  V30 47 H -4.447045 3.762313 0.541808 0
M  V30 48 H -4.929223 0.471304 -0.819483 0
M  V30 49 H -3.121513 0.527864 -0.558914 0
M  V30 50 H -3.786292 0.842202 -2.206855 0
M  V30 51 H -0.870383 1.129759 -2.159798 0
M  V30 52 H -0.111421 0.260159 -4.500870 0
M  V30 53 H -1.703693 -0.314673 -3.844464 0
M  V30 54 H -0.795167 -1.365678 -4.933525 0
M  V30 55 H 0.567171 -5.716789 2.350304 0
M  V30 END ATOM
M  V30 BEGIN BOND
M  V30 1 1 1 2
M  V30 2 1 2 3
M  V30 3 2 3 4
M  V30 4 1 4 5
M  V30 5 1 5 6
M  V30 6 1 6 7
M  V30 7 2 7 8
M  V30 8 1 8 9
M  V30 9 1 9 10
M  V30 10 2 9 11
M  V30 11 1 11 12
M  V30 12 2 12 13
M  V30 13 1 12 14
M  V30 14 1 14 15
M  V30 15 1 15 16
M  V30 16 1 16 17
M  V30 17 1 17 18
M  V30 18 1 18 19
M  V30 19 1 19 20
M  V30 20 1 20 21
M  V30 21 1 11 22
M  V30 22 2 22 23
M  V30 23 1 23 24
M  V30 24 1 24 25
M  V30 25 2 5 26
M  V30 26 1 26 27
M  V30 27 2 27 28
M  V30 28 1 28 29
M  V30 29 1 29 30
M  V30 30 1 29 31
M  V30 31 1 29 32
M  V30 32 1 28 3
M  V30 33 1 23 7
M  V30 34 1 18 14
M  V30 35 1 1 33
M  V30 36 1 1 34
M  V30 37 1 1 35
M  V30 38 1 2 36
M  V30 39 1 6 37
M  V30 40 1 8 38
M  V30 41 1 15 39
M  V30 42 1 15 40
M  V30 43 1 16 41
M  V30 44 1 16 42
M  V30 45 1 17 43
M  V30 46 1 17 44
M  V30 47 1 18 45 CFG=1
M  V30 48 1 19 46
M  V30 49 1 19 47
M  V30 50 1 21 48
M  V30 51 1 21 49
M  V30 52 1 21 50
M  V30 53 1 22 51
M  V30 54 1 25 52
M  V30 55 1 25 53
M  V30 56 1 25 54
M  V30 57 1 27 55
M  V30 END BOND
M  V30 END CTAB
M  END
>  <Dataset>  (384) 
ChEMBL_Kinases

>  <Ligand_Instance>  (384) 
nan

>  <PDB_ID>  (384) 
nan

>  <Standardized_SMILES>  (384) 
CNc1nc(Nc2cc(F)c(C(=O)N3CCC[C@H]3COC)cc2OC)ncc1C(F)(F)F

>  <Name>  (384) 
nan

>  <Pocket>  (384) 
nan

>  <ATP_Site>  (384) 
nan

>  <Peripheral>  (384) 
nan

>  <Num_H_Atoms_ProtBoundConf>  (384) 
nan

>  <Num_Resolved_Atoms>  (384) 
nan

>  <Num_Not_Resolved_Atoms>  (384) 
nan

$$$$
CHEMBL3643985
     RDKit          3D

  0  0  0  0  0  0  0  0  0  0999 V3000
M  V30 BEGIN CTAB
M  V30 COUNTS 54 55 0 0 0
M  V30 BEGIN ATOM
M  V30 1 C 3.455743 -1.720427 4.098641 0
M  V30 2 C 3.211522 -3.059602 4.714126 0
M  V30 3 N 2.907657 -4.088225 3.745605 0
M  V30 4 C 1.788437 -3.977255 2.894984 0
M  V30 5 N 0.973256 -2.909454 2.963023 0
M  V30 6 C -0.110738 -2.783886 2.151778 0
M  V30 7 N -1.010110 -1.680849 2.174553 0
M  V30 8 C -0.904307 -0.482908 1.413385 0
M  V30 9 C 0.201289 -0.428727 0.579854 0
M  V30 10 C 0.440856 0.670353 -0.221906 0
M  V30 11 F 1.505557 0.738187 -1.033552 0
M  V30 12 C -0.460758 1.713942 -0.163552 0
M  V30 13 C -0.298385 2.932557 -0.977501 0
M  V30 14 O 0.248996 4.053309 -0.879703 0
M  V30 15 N -0.893291 2.966882 -2.275121 0
M  V30 16 C -0.660432 4.205024 -2.957709 0
M  V30 17 C -1.669942 1.959185 -2.968097 0
M  V30 18 C -0.868778 1.030083 -3.790644 0
M  V30 19 O -1.637334 0.090996 -4.439774 0
M  V30 20 C -2.381113 -0.748298 -3.668039 0
M  V30 21 C -1.569030 1.683030 0.658628 0
M  V30 22 C -1.800108 0.583309 1.454588 0
M  V30 23 O -2.836928 0.342119 2.345015 0
M  V30 24 C -3.881641 1.237877 2.591686 0
M  V30 25 N -0.417839 -3.735434 1.234264 0
M  V30 26 C 0.377158 -4.809547 1.145094 0
M  V30 27 C 1.481634 -4.954882 1.959548 0
M  V30 28 C 2.345038 -6.138878 1.850517 0
M  V30 29 F 2.397022 -6.845296 3.023114 0
M  V30 30 F 1.877356 -6.957244 0.821724 0
M  V30 31 F 3.636668 -5.777464 1.480114 0
M  V30 32 H 3.669777 -1.838408 3.003733 0
M  V30 33 H 2.661259 -0.981800 4.240753 0
M  V30 34 H 4.391539 -1.262755 4.513541 0
M  V30 35 H 2.352308 -2.956449 5.421306 0
M  V30 36 H 4.076282 -3.339506 5.332723 0
M  V30 37 H 3.517620 -4.938819 3.658757 0
M  V30 38 H -1.807380 -1.831357 2.839336 0
M  V30 39 H 0.925868 -1.230834 0.512060 0
M  V30 40 H -1.197454 5.015006 -2.404936 0
M  V30 41 H 0.410734 4.500886 -2.966425 0
M  V30 42 H -1.056961 4.238187 -3.985991 0
M  V30 43 H -2.250214 1.348278 -2.215313 0
M  V30 44 H -2.428086 2.465608 -3.590422 0
M  V30 45 H -0.133301 0.439765 -3.169939 0
M  V30 46 H -0.236919 1.514669 -4.560209 0
M  V30 47 H -3.118278 -0.211193 -3.056953 0
M  V30 48 H -2.898145 -1.502783 -4.328781 0
M  V30 49 H -1.745467 -1.333704 -2.960677 0
M  V30 50 H -2.318553 2.452234 0.763325 0
M  V30 51 H -3.707711 1.810333 3.525897 0
M  V30 52 H -4.024851 1.964381 1.769245 0
M  V30 53 H -4.815223 0.652782 2.719318 0
M  V30 54 H 0.176662 -5.606448 0.423707 0
M  V30 END ATOM
M  V30 BEGIN BOND
M  V30 1 1 1 2
M  V30 2 1 2 3
M  V30 3 1 3 4
M  V30 4 2 4 5
M  V30 5 1 5 6
M  V30 6 1 6 7
M  V30 7 1 7 8
M  V30 8 2 8 9
M  V30 9 1 9 10
M  V30 10 1 10 11
M  V30 11 2 10 12
M  V30 12 1 12 13
M  V30 13 2 13 14
M  V30 14 1 13 15
M  V30 15 1 15 16
M  V30 16 1 15 17
M  V30 17 1 17 18
M  V30 18 1 18 19
M  V30 19 1 19 20
M  V30 20 1 12 21
M  V30 21 2 21 22
M  V30 22 1 22 23
M  V30 23 1 23 24
M  V30 24 2 6 25
M  V30 25 1 25 26
M  V30 26 2 26 27
M  V30 27 1 27 28
M  V30 28 1 28 29
M  V30 29 1 28 30
M  V30 30 1 28 31
M  V30 31 1 27 4
M  V30 32 1 22 8
M  V30 33 1 1 32
M  V30 34 1 1 33
M  V30 35 1 1 34
M  V30 36 1 2 35
M  V30 37 1 2 36
M  V30 38 1 3 37
M  V30 39 1 7 38
M  V30 40 1 9 39
M  V30 41 1 16 40
M  V30 42 1 16 41
M  V30 43 1 16 42
M  V30 44 1 17 43
M  V30 45 1 17 44
M  V30 46 1 18 45
M  V30 47 1 18 46
M  V30 48 1 20 47
M  V30 49 1 20 48
M  V30 50 1 20 49
M  V30 51 1 21 50
M  V30 52 1 24 51
M  V30 53 1 24 52
M  V30 54 1 24 53
M  V30 55 1 26 54
M  V30 END BOND
M  V30 END CTAB
M  END
>  <Dataset>  (385) 
ChEMBL_Kinases

>  <Ligand_Instance>  (385) 
nan

>  <PDB_ID>  (385) 
nan

>  <Standardized_SMILES>  (385) 
CCNc1nc(Nc2cc(F)c(C(=O)N(C)CCOC)cc2OC)ncc1C(F)(F)F

>  <Name>  (385) 
nan

>  <Pocket>  (385) 
nan

>  <ATP_Site>  (385) 
nan

>  <Peripheral>  (385) 
nan

>  <Num_H_Atoms_ProtBoundConf>  (385) 
nan

>  <Num_Resolved_Atoms>  (385) 
nan

>  <Num_Not_Resolved_Atoms>  (385) 
nan

$$$$
CHEMBL3643984
     RDKit          3D

  0  0  0  0  0  0  0  0  0  0999 V3000
M  V30 BEGIN CTAB
M  V30 COUNTS 51 52 0 0 0
M  V30 BEGIN ATOM
M  V30 1 C -2.203017 -3.656069 2.240614 0
M  V30 2 N -1.208895 -4.562316 2.782315 0
M  V30 3 C 0.059580 -4.579748 2.094765 0
M  V30 4 N 0.348962 -3.796418 1.047031 0
M  V30 5 C 1.486796 -3.730105 0.375234 0
M  V30 6 N 1.354512 -2.759671 -0.657859 0
M  V30 7 C 1.404043 -1.391225 -0.235335 0
M  V30 8 C 1.564082 -1.062008 1.093343 0
M  V30 9 C 1.593981 0.240242 1.539297 0
M  V30 10 F 1.749109 0.607932 2.824238 0
M  V30 11 C 1.453576 1.225645 0.590637 0
M  V30 12 C 1.467838 2.649430 0.900534 0
M  V30 13 O 2.241570 3.627220 0.967296 0
M  V30 14 N 0.118418 3.023302 1.243562 0
M  V30 15 C 0.129218 4.434652 1.543460 0
M  V30 16 C -1.115329 2.272750 1.332648 0
M  V30 17 C -1.903968 2.254579 0.069822 0
M  V30 18 O -2.272715 3.557656 -0.329073 0
M  V30 19 C -2.978422 3.375374 -1.529532 0
M  V30 20 C 1.294736 0.887144 -0.737359 0
M  V30 21 C 1.261621 -0.402690 -1.217209 0
M  V30 22 O 1.101617 -0.724533 -2.554644 0
M  V30 23 C 0.954518 0.244193 -3.570744 0
M  V30 24 N 2.497806 -4.547727 0.781281 0
M  V30 25 C 2.308091 -5.377794 1.829352 0
M  V30 26 C 1.102665 -5.418333 2.507347 0
M  V30 27 C 0.877435 -6.328915 3.659671 0
M  V30 28 F 2.011804 -7.072175 3.909551 0
M  V30 29 F -0.143736 -7.233772 3.378638 0
M  V30 30 F 0.572063 -5.654900 4.830549 0
M  V30 31 H -2.826719 -4.103641 1.466591 0
M  V30 32 H -1.666852 -2.781653 1.822770 0
M  V30 33 H -2.821809 -3.220418 3.084391 0
M  V30 34 H -1.301701 -5.196939 3.600784 0
M  V30 35 H 1.223679 -2.986516 -1.672524 0
M  V30 36 H 1.677689 -1.825424 1.865025 0
M  V30 37 H -0.923411 4.805775 1.598470 0
M  V30 38 H 0.653477 5.043447 0.788075 0
M  V30 39 H 0.572458 4.667820 2.535582 0
M  V30 40 H -0.871926 1.249256 1.699715 0
M  V30 41 H -1.741609 2.724783 2.132109 0
M  V30 42 H -2.867158 1.733241 0.281473 0
M  V30 43 H -1.383893 1.831071 -0.805444 0
M  V30 44 H -2.283983 2.901645 -2.266217 0
M  V30 45 H -3.437581 4.304963 -1.905365 0
M  V30 46 H -3.760067 2.584419 -1.320394 0
M  V30 47 H 1.183319 1.662957 -1.482692 0
M  V30 48 H -0.006937 0.789098 -3.359730 0
M  V30 49 H 0.761973 -0.332145 -4.517761 0
M  V30 50 H 1.812186 0.921303 -3.640981 0
M  V30 51 H 3.128608 -6.001471 2.111356 0
M  V30 END ATOM
M  V30 BEGIN BOND
M  V30 1 1 1 2
M  V30 2 1 2 3
M  V30 3 2 3 4
M  V30 4 1 4 5
M  V30 5 1 5 6
M  V30 6 1 6 7
M  V30 7 2 7 8
M  V30 8 1 8 9
M  V30 9 1 9 10
M  V30 10 2 9 11
M  V30 11 1 11 12
M  V30 12 2 12 13
M  V30 13 1 12 14
M  V30 14 1 14 15
M  V30 15 1 14 16
M  V30 16 1 16 17
M  V30 17 1 17 18
M  V30 18 1 18 19
M  V30 19 1 11 20
M  V30 20 2 20 21
M  V30 21 1 21 22
M  V30 22 1 22 23
M  V30 23 2 5 24
M  V30 24 1 24 25
M  V30 25 2 25 26
M  V30 26 1 26 27
M  V30 27 1 27 28
M  V30 28 1 27 29
M  V30 29 1 27 30
M  V30 30 1 26 3
M  V30 31 1 21 7
M  V30 32 1 1 31
M  V30 33 1 1 32
M  V30 34 1 1 33
M  V30 35 1 2 34
M  V30 36 1 6 35
M  V30 37 1 8 36
M  V30 38 1 15 37
M  V30 39 1 15 38
M  V30 40 1 15 39
M  V30 41 1 16 40
M  V30 42 1 16 41
M  V30 43 1 17 42
M  V30 44 1 17 43
M  V30 45 1 19 44
M  V30 46 1 19 45
M  V30 47 1 19 46
M  V30 48 1 20 47
M  V30 49 1 23 48
M  V30 50 1 23 49
M  V30 51 1 23 50
M  V30 52 1 25 51
M  V30 END BOND
M  V30 END CTAB
M  END
>  <Dataset>  (386) 
ChEMBL_Kinases

>  <Ligand_Instance>  (386) 
nan

>  <PDB_ID>  (386) 
nan

>  <Standardized_SMILES>  (386) 
CNc1nc(Nc2cc(F)c(C(=O)N(C)CCOC)cc2OC)ncc1C(F)(F)F

>  <Name>  (386) 
nan

>  <Pocket>  (386) 
nan

>  <ATP_Site>  (386) 
nan

>  <Peripheral>  (386) 
nan

>  <Num_H_Atoms_ProtBoundConf>  (386) 
nan

>  <Num_Resolved_Atoms>  (386) 
nan

>  <Num_Not_Resolved_Atoms>  (386) 
nan

$$$$
CHEMBL3643983
     RDKit          3D

  0  0  0  0  0  0  0  0  0  0999 V3000
M  V30 BEGIN CTAB
M  V30 COUNTS 54 55 0 0 0
M  V30 BEGIN ATOM
M  V30 1 C -0.579518 -4.440950 1.801453 0
M  V30 2 C 0.758756 -4.512323 2.533750 0
M  V30 3 N 1.701103 -5.127264 1.616607 0
M  V30 4 C 2.117949 -4.607668 0.366954 0
M  V30 5 N 1.718987 -3.467746 -0.159479 0
M  V30 6 C 2.065230 -2.919676 -1.313972 0
M  V30 7 N 1.626618 -1.690324 -1.854842 0
M  V30 8 C 0.753402 -0.711230 -1.316786 0
M  V30 9 C 0.196767 -0.861296 -0.043625 0
M  V30 10 C -0.652040 0.064910 0.527328 0
M  V30 11 C -0.995413 1.211332 -0.156632 0
M  V30 12 C -1.888176 2.180590 0.465195 0
M  V30 13 O -2.846299 2.186518 -0.318671 0
M  V30 14 N -1.489956 2.822745 1.695641 0
M  V30 15 C -0.176386 2.438176 2.242334 0
M  V30 16 C -2.179791 3.796620 2.509780 0
M  V30 17 C -3.038603 3.229081 3.585478 0
M  V30 18 O -4.053490 2.415289 3.124275 0
M  V30 19 C -4.969192 3.046814 2.315282 0
M  V30 20 C -0.444945 1.357014 -1.413436 0
M  V30 21 C 0.404214 0.454217 -2.013306 0
M  V30 22 O 0.936442 0.639688 -3.281967 0
M  V30 23 C 0.625538 1.786325 -4.037352 0
M  V30 24 N 2.943767 -3.647859 -2.021355 0
M  V30 25 C 3.439106 -4.812646 -1.629242 0
M  V30 26 C 3.014386 -5.284158 -0.424737 0
M  V30 27 C 3.564342 -6.596329 0.030879 0
M  V30 28 F 4.453998 -7.132413 -0.893944 0
M  V30 29 F 4.260124 -6.449538 1.199741 0
M  V30 30 F 2.547215 -7.518713 0.224544 0
M  V30 31 H -0.827838 -5.497206 1.564147 0
M  V30 32 H -0.379191 -3.950453 0.829216 0
M  V30 33 H -1.363394 -3.938152 2.385741 0
M  V30 34 H 0.703001 -5.040618 3.492722 0
M  V30 35 H 1.128947 -3.461282 2.667083 0
M  V30 36 H 2.103272 -6.044837 1.922881 0
M  V30 37 H 1.986025 -1.422280 -2.813242 0
M  V30 38 H 0.388353 -1.703478 0.585117 0
M  V30 39 H -1.080127 -0.061983 1.518330 0
M  V30 40 H 0.316204 3.302008 2.720405 0
M  V30 41 H 0.489429 2.052140 1.449810 0
M  V30 42 H -0.286855 1.649474 3.000857 0
M  V30 43 H -2.857151 4.441337 1.876705 0
M  V30 44 H -1.401883 4.501827 2.907012 0
M  V30 45 H -2.468141 2.769626 4.417190 0
M  V30 46 H -3.544223 4.117165 4.071783 0
M  V30 47 H -5.430903 3.876946 2.925375 0
M  V30 48 H -4.537147 3.441156 1.394619 0
M  V30 49 H -5.836798 2.367717 2.113509 0
M  V30 50 H -0.712322 2.254068 -1.950633 0
M  V30 51 H -0.482532 1.982536 -3.954121 0
M  V30 52 H 0.843331 1.650267 -5.119173 0
M  V30 53 H 1.185611 2.669943 -3.696201 0
M  V30 54 H 4.141159 -5.328556 -2.260328 0
M  V30 END ATOM
M  V30 BEGIN BOND
M  V30 1 1 1 2
M  V30 2 1 2 3
M  V30 3 1 3 4
M  V30 4 2 4 5
M  V30 5 1 5 6
M  V30 6 1 6 7
M  V30 7 1 7 8
M  V30 8 2 8 9
M  V30 9 1 9 10
M  V30 10 2 10 11
M  V30 11 1 11 12
M  V30 12 2 12 13
M  V30 13 1 12 14
M  V30 14 1 14 15
M  V30 15 1 14 16
M  V30 16 1 16 17
M  V30 17 1 17 18
M  V30 18 1 18 19
M  V30 19 1 11 20
M  V30 20 2 20 21
M  V30 21 1 21 22
M  V30 22 1 22 23
M  V30 23 2 6 24
M  V30 24 1 24 25
M  V30 25 2 25 26
M  V30 26 1 26 27
M  V30 27 1 27 28
M  V30 28 1 27 29
M  V30 29 1 27 30
M  V30 30 1 26 4
M  V30 31 1 21 8
M  V30 32 1 1 31
M  V30 33 1 1 32
M  V30 34 1 1 33
M  V30 35 1 2 34
M  V30 36 1 2 35
M  V30 37 1 3 36
M  V30 38 1 7 37
M  V30 39 1 9 38
M  V30 40 1 10 39
M  V30 41 1 15 40
M  V30 42 1 15 41
M  V30 43 1 15 42
M  V30 44 1 16 43
M  V30 45 1 16 44
M  V30 46 1 17 45
M  V30 47 1 17 46
M  V30 48 1 19 47
M  V30 49 1 19 48
M  V30 50 1 19 49
M  V30 51 1 20 50
M  V30 52 1 23 51
M  V30 53 1 23 52
M  V30 54 1 23 53
M  V30 55 1 25 54
M  V30 END BOND
M  V30 END CTAB
M  END
>  <Dataset>  (387) 
ChEMBL_Kinases

>  <Ligand_Instance>  (387) 
nan

>  <PDB_ID>  (387) 
nan

>  <Standardized_SMILES>  (387) 
CCNc1nc(Nc2ccc(C(=O)N(C)CCOC)cc2OC)ncc1C(F)(F)F

>  <Name>  (387) 
nan

>  <Pocket>  (387) 
nan

>  <ATP_Site>  (387) 
nan

>  <Peripheral>  (387) 
nan

>  <Num_H_Atoms_ProtBoundConf>  (387) 
nan

>  <Num_Resolved_Atoms>  (387) 
nan

>  <Num_Not_Resolved_Atoms>  (387) 
nan

$$$$
CHEMBL3643982
     RDKit          3D

  0  0  0  0  0  0  0  0  0  0999 V3000
M  V30 BEGIN CTAB
M  V30 COUNTS 51 52 0 0 0
M  V30 BEGIN ATOM
M  V30 1 C -2.379870 -3.638088 2.056332 0
M  V30 2 N -1.422373 -4.698641 2.312571 0
M  V30 3 C -0.248468 -4.646440 1.494967 0
M  V30 4 N -0.018874 -3.689425 0.580264 0
M  V30 5 C 1.071275 -3.593770 -0.191306 0
M  V30 6 N 0.921831 -2.447613 -1.018750 0
M  V30 7 C 1.156882 -1.095484 -0.680649 0
M  V30 8 C 1.563793 -0.955517 0.659304 0
M  V30 9 C 1.816264 0.290731 1.184270 0
M  V30 10 C 1.659188 1.387819 0.365858 0
M  V30 11 C 1.819174 2.832780 0.643035 0
M  V30 12 O 2.537030 3.791129 0.315919 0
M  V30 13 N 0.856949 3.335030 1.583482 0
M  V30 14 C 0.961218 4.755851 1.870343 0
M  V30 15 C -0.206192 2.706831 2.318516 0
M  V30 16 C -1.536718 2.690340 1.639504 0
M  V30 17 O -1.539913 2.029193 0.433764 0
M  V30 18 C -2.809522 2.028464 -0.142363 0
M  V30 19 C 1.258403 1.276464 -0.965632 0
M  V30 20 C 1.005841 0.007887 -1.486004 0
M  V30 21 O 0.607315 -0.371630 -2.736955 0
M  V30 22 C 0.349536 0.439857 -3.842038 0
M  V30 23 N 2.028342 -4.533138 -0.049086 0
M  V30 24 C 1.840758 -5.529347 0.869414 0
M  V30 25 C 0.724261 -5.641533 1.672063 0
M  V30 26 C 0.510161 -6.710877 2.659462 0
M  V30 27 F -0.627802 -7.456137 2.402932 0
M  V30 28 F 1.587537 -7.574237 2.618618 0
M  V30 29 F 0.410291 -6.268372 3.955018 0
M  V30 30 H -1.887972 -2.709315 1.715571 0
M  V30 31 H -3.056945 -3.962627 1.244359 0
M  V30 32 H -3.001658 -3.392928 2.917360 0
M  V30 33 H -1.545372 -5.451011 3.019869 0
M  V30 34 H 0.595299 -2.619532 -1.997841 0
M  V30 35 H 1.706133 -1.771143 1.351400 0
M  V30 36 H 2.142360 0.554320 2.176665 0
M  V30 37 H 1.761269 5.264878 1.338844 0
M  V30 38 H -0.042683 5.212505 1.744305 0
M  V30 39 H 1.175246 4.852373 2.972154 0
M  V30 40 H 0.112106 1.664892 2.545749 0
M  V30 41 H -0.336347 3.172857 3.327559 0
M  V30 42 H -2.224265 2.124507 2.309356 0
M  V30 43 H -1.984895 3.712913 1.585269 0
M  V30 44 H -2.832476 1.495110 -1.124978 0
M  V30 45 H -3.310019 2.995903 -0.159636 0
M  V30 46 H -3.437753 1.376329 0.540424 0
M  V30 47 H 1.100002 2.030317 -1.708145 0
M  V30 48 H 0.305661 1.525312 -3.633352 0
M  V30 49 H -0.615924 0.128101 -4.288317 0
M  V30 50 H 1.112501 0.197311 -4.620467 0
M  V30 51 H 2.617123 -6.249908 0.945664 0
M  V30 END ATOM
M  V30 BEGIN BOND
M  V30 1 1 1 2
M  V30 2 1 2 3
M  V30 3 2 3 4
M  V30 4 1 4 5
M  V30 5 1 5 6
M  V30 6 1 6 7
M  V30 7 2 7 8
M  V30 8 1 8 9
M  V30 9 2 9 10
M  V30 10 1 10 11
M  V30 11 2 11 12
M  V30 12 1 11 13
M  V30 13 1 13 14
M  V30 14 1 13 15
M  V30 15 1 15 16
M  V30 16 1 16 17
M  V30 17 1 17 18
M  V30 18 1 10 19
M  V30 19 2 19 20
M  V30 20 1 20 21
M  V30 21 1 21 22
M  V30 22 2 5 23
M  V30 23 1 23 24
M  V30 24 2 24 25
M  V30 25 1 25 26
M  V30 26 1 26 27
M  V30 27 1 26 28
M  V30 28 1 26 29
M  V30 29 1 25 3
M  V30 30 1 20 7
M  V30 31 1 1 30
M  V30 32 1 1 31
M  V30 33 1 1 32
M  V30 34 1 2 33
M  V30 35 1 6 34
M  V30 36 1 8 35
M  V30 37 1 9 36
M  V30 38 1 14 37
M  V30 39 1 14 38
M  V30 40 1 14 39
M  V30 41 1 15 40
M  V30 42 1 15 41
M  V30 43 1 16 42
M  V30 44 1 16 43
M  V30 45 1 18 44
M  V30 46 1 18 45
M  V30 47 1 18 46
M  V30 48 1 19 47
M  V30 49 1 22 48
M  V30 50 1 22 49
M  V30 51 1 22 50
M  V30 52 1 24 51
M  V30 END BOND
M  V30 END CTAB
M  END
>  <Dataset>  (388) 
ChEMBL_Kinases

>  <Ligand_Instance>  (388) 
nan

>  <PDB_ID>  (388) 
nan

>  <Standardized_SMILES>  (388) 
CNc1nc(Nc2ccc(C(=O)N(C)CCOC)cc2OC)ncc1C(F)(F)F

>  <Name>  (388) 
nan

>  <Pocket>  (388) 
nan

>  <ATP_Site>  (388) 
nan

>  <Peripheral>  (388) 
nan

>  <Num_H_Atoms_ProtBoundConf>  (388) 
nan

>  <Num_Resolved_Atoms>  (388) 
nan

>  <Num_Not_Resolved_Atoms>  (388) 
nan

$$$$
CHEMBL3643981
     RDKit          3D

  0  0  0  0  0  0  0  0  0  0999 V3000
M  V30 BEGIN CTAB
M  V30 COUNTS 52 54 0 0 0
M  V30 BEGIN ATOM
M  V30 1 C 3.910999 -1.751590 2.953986 0
M  V30 2 C 2.838731 -2.498421 3.682962 0
M  V30 3 O 1.656681 -2.513838 2.954167 0
M  V30 4 C 0.878086 -1.481496 2.538250 0
M  V30 5 C 1.012753 -0.122278 2.711667 0
M  V30 6 C 0.155012 0.841737 2.243092 0
M  V30 7 C 0.476231 2.256199 2.521816 0
M  V30 8 O 0.201550 3.060104 3.436461 0
M  V30 9 N 1.283786 2.691784 1.435574 0
M  V30 10 C 1.779477 2.035340 0.241954 0
M  V30 11 C 2.971651 2.746799 -0.335791 0
M  V30 12 O 2.658088 3.971115 -0.885295 0
M  V30 13 C 1.695352 4.582053 -0.089300 0
M  V30 14 C 1.823918 4.030919 1.307390 0
M  V30 15 C -0.956594 0.425901 1.526534 0
M  V30 16 F -1.774156 1.407998 1.086285 0
M  V30 17 C -1.140199 -0.927821 1.323024 0
M  V30 18 C -0.254016 -1.874705 1.809777 0
M  V30 19 N -0.566036 -3.235652 1.499501 0
M  V30 20 C -1.716279 -3.618158 0.781947 0
M  V30 21 N -2.754479 -4.375919 1.154846 0
M  V30 22 C -3.799147 -4.643943 0.352684 0
M  V30 23 C -3.848739 -4.135998 -0.923658 0
M  V30 24 C -4.953734 -4.380062 -1.866222 0
M  V30 25 F -5.901481 -5.195034 -1.238485 0
M  V30 26 F -5.611785 -3.197598 -2.203805 0
M  V30 27 F -4.593696 -4.990911 -3.030327 0
M  V30 28 C -2.779413 -3.351604 -1.315497 0
M  V30 29 N -2.774343 -2.784997 -2.632796 0
M  V30 30 C -1.668094 -1.960980 -3.061181 0
M  V30 31 N -1.769773 -3.117505 -0.482150 0
M  V30 32 H 4.890340 -2.299117 3.002251 0
M  V30 33 H 3.607782 -1.748531 1.865208 0
M  V30 34 H 4.064688 -0.715177 3.249804 0
M  V30 35 H 2.723173 -2.145623 4.727193 0
M  V30 36 H 3.177514 -3.572185 3.758488 0
M  V30 37 H 1.870201 0.175492 3.267079 0
M  V30 38 H 0.960258 2.122557 -0.505754 0
M  V30 39 H 1.956779 0.969754 0.425866 0
M  V30 40 H 3.407566 2.142387 -1.186186 0
M  V30 41 H 3.825246 2.841354 0.371260 0
M  V30 42 H 0.677482 4.377749 -0.515991 0
M  V30 43 H 1.840657 5.680184 -0.053362 0
M  V30 44 H 1.192786 4.695966 1.955297 0
M  V30 45 H 2.861289 4.091721 1.646601 0
M  V30 46 H -2.040853 -1.111622 0.753963 0
M  V30 47 H 0.112050 -3.960678 1.837076 0
M  V30 48 H -4.598446 -5.258930 0.712563 0
M  V30 49 H -3.558993 -2.956819 -3.295755 0
M  V30 50 H -1.138448 -1.520175 -2.177621 0
M  V30 51 H -0.916925 -2.494057 -3.654883 0
M  V30 52 H -2.030157 -1.102233 -3.696820 0
M  V30 END ATOM
M  V30 BEGIN BOND
M  V30 1 1 1 2
M  V30 2 1 2 3
M  V30 3 1 3 4
M  V30 4 2 4 5
M  V30 5 1 5 6
M  V30 6 1 6 7
M  V30 7 2 7 8
M  V30 8 1 7 9
M  V30 9 1 9 10
M  V30 10 1 10 11
M  V30 11 1 11 12
M  V30 12 1 12 13
M  V30 13 1 13 14
M  V30 14 2 6 15
M  V30 15 1 15 16
M  V30 16 1 15 17
M  V30 17 2 17 18
M  V30 18 1 18 19
M  V30 19 1 19 20
M  V30 20 2 20 21
M  V30 21 1 21 22
M  V30 22 2 22 23
M  V30 23 1 23 24
M  V30 24 1 24 25
M  V30 25 1 24 26
M  V30 26 1 24 27
M  V30 27 1 23 28
M  V30 28 1 28 29
M  V30 29 1 29 30
M  V30 30 2 28 31
M  V30 31 1 18 4
M  V30 32 1 31 20
M  V30 33 1 14 9
M  V30 34 1 1 32
M  V30 35 1 1 33
M  V30 36 1 1 34
M  V30 37 1 2 35
M  V30 38 1 2 36
M  V30 39 1 5 37
M  V30 40 1 10 38
M  V30 41 1 10 39
M  V30 42 1 11 40
M  V30 43 1 11 41
M  V30 44 1 13 42
M  V30 45 1 13 43
M  V30 46 1 14 44
M  V30 47 1 14 45
M  V30 48 1 17 46
M  V30 49 1 19 47
M  V30 50 1 22 48
M  V30 51 1 29 49
M  V30 52 1 30 50
M  V30 53 1 30 51
M  V30 54 1 30 52
M  V30 END BOND
M  V30 END CTAB
M  END
>  <Dataset>  (389) 
ChEMBL_Kinases

>  <Ligand_Instance>  (389) 
nan

>  <PDB_ID>  (389) 
nan

>  <Standardized_SMILES>  (389) 
CCOc1cc(C(=O)N2CCOCC2)c(F)cc1Nc1ncc(C(F)(F)F)c(NC)n1

>  <Name>  (389) 
nan

>  <Pocket>  (389) 
nan

>  <ATP_Site>  (389) 
nan

>  <Peripheral>  (389) 
nan

>  <Num_H_Atoms_ProtBoundConf>  (389) 
nan

>  <Num_Resolved_Atoms>  (389) 
nan

>  <Num_Not_Resolved_Atoms>  (389) 
nan

$$$$
CHEMBL3644708
     RDKit          3D

  0  0  0  0  0  0  0  0  0  0999 V3000
M  V30 BEGIN CTAB
M  V30 COUNTS 71 75 0 0 0
M  V30 BEGIN ATOM
M  V30 1 C 3.956357 -3.298996 3.893948 0
M  V30 2 C 4.196700 -1.895692 3.411076 0
M  V30 3 N 5.303662 -1.263930 3.894903 0
M  V30 4 C 5.309123 -0.058812 3.343359 0
M  V30 5 C 6.215197 0.956404 3.510521 0
M  V30 6 N 6.009813 2.103438 2.839286 0
M  V30 7 C 4.917110 2.209177 2.026207 0
M  V30 8 C 4.793827 3.401904 1.394792 0
M  V30 9 C 3.697679 3.538673 0.568745 0
M  V30 10 C 2.759665 2.523863 0.379614 0
M  V30 11 C 1.674732 2.826165 -0.514655 0
M  V30 12 C 0.754059 3.065269 -1.253530 0
M  V30 13 C -0.364066 3.382105 -2.155857 0
M  V30 14 N -1.003680 2.187973 -2.673407 0
M  V30 15 C -1.588980 1.260231 -1.787857 0
M  V30 16 O -1.419120 1.704003 -0.606582 0
M  V30 17 C -2.266528 0.023024 -2.108084 0
M  V30 18 C -2.602836 -0.708221 -3.208811 0
M  V30 19 C -2.230223 -0.219169 -4.564605 0
M  V30 20 N -3.260533 -1.833495 -2.919881 0
M  V30 21 C -3.728848 -2.785287 -3.916698 0
M  V30 22 N -3.355094 -1.835993 -1.602905 0
M  V30 23 C -4.020246 -2.921077 -0.885025 0
M  V30 24 C -2.975772 -4.013912 -0.720282 0
M  V30 25 C -4.596061 -2.504683 0.396366 0
M  V30 26 C -5.914087 -2.035499 0.373703 0
M  V30 27 C -6.616507 -1.606059 1.464781 0
M  V30 28 C -5.999755 -1.627077 2.696062 0
M  V30 29 F -6.683623 -1.205830 3.779941 0
M  V30 30 C -4.700607 -2.081122 2.770182 0
M  V30 31 F -4.065211 -2.114715 3.963890 0
M  V30 32 C -4.005994 -2.510743 1.660691 0
M  V30 33 C -2.780856 -0.754841 -1.064422 0
M  V30 34 O -2.749175 -0.542334 0.190102 0
M  V30 35 C 2.970714 1.345475 1.065515 0
M  V30 36 C 4.046820 1.180796 1.890083 0
M  V30 37 C 4.192068 -0.012591 2.540048 0
M  V30 38 N 3.453535 -1.126385 2.535824 0
M  V30 39 C 2.255760 -1.572646 1.896463 0
M  V30 40 C 0.953812 -0.993882 2.397202 0
M  V30 41 C 2.329078 -1.866856 0.432768 0
M  V30 42 H 4.625704 -4.012865 3.353086 0
M  V30 43 H 2.904532 -3.595042 3.870152 0
M  V30 44 H 4.258405 -3.383381 4.979192 0
M  V30 45 H 7.059954 0.852307 4.149421 0
M  V30 46 H 5.482586 4.200960 1.508995 0
M  V30 47 H 3.581777 4.488610 0.053282 0
M  V30 48 H 0.053072 4.009225 -2.943816 0
M  V30 49 H -1.161984 3.956546 -1.600592 0
M  V30 50 H -1.042539 1.995106 -3.693923 0
M  V30 51 H -2.723189 0.741863 -4.773995 0
M  V30 52 H -1.125551 -0.134329 -4.704623 0
M  V30 53 H -2.624010 -0.954107 -5.330142 0
M  V30 54 H -2.868609 -3.436064 -4.143103 0
M  V30 55 H -4.072755 -2.303573 -4.843083 0
M  V30 56 H -4.564265 -3.395500 -3.531225 0
M  V30 57 H -4.812071 -3.355370 -1.507794 0
M  V30 58 H -2.071847 -3.648905 -0.208742 0
M  V30 59 H -3.451045 -4.877172 -0.213815 0
M  V30 60 H -2.685762 -4.327224 -1.741151 0
M  V30 61 H -6.456020 -1.994712 -0.570965 0
M  V30 62 H -7.632721 -1.254267 1.385510 0
M  V30 63 H -2.983566 -2.877695 1.658269 0
M  V30 64 H 2.179351 0.697040 0.814061 0
M  V30 65 H 2.146862 -2.652898 2.296449 0
M  V30 66 H 1.089744 0.037144 2.842347 0
M  V30 67 H 0.184169 -0.978694 1.599885 0
M  V30 68 H 0.493129 -1.551767 3.237457 0
M  V30 69 H 3.194665 -1.321615 -0.036626 0
M  V30 70 H 1.436414 -1.445242 -0.111324 0
M  V30 71 H 2.360936 -2.926463 0.142942 0
M  V30 END ATOM
M  V30 BEGIN BOND
M  V30 1 1 1 2
M  V30 2 2 2 3
M  V30 3 1 3 4
M  V30 4 2 4 5
M  V30 5 1 5 6
M  V30 6 2 6 7
M  V30 7 1 7 8
M  V30 8 2 8 9
M  V30 9 1 9 10
M  V30 10 1 10 11
M  V30 11 3 11 12
M  V30 12 1 12 13
M  V30 13 1 13 14
M  V30 14 1 14 15
M  V30 15 2 15 16
M  V30 16 1 15 17
M  V30 17 2 17 18
M  V30 18 1 18 19
M  V30 19 1 18 20
M  V30 20 1 20 21
M  V30 21 1 20 22
M  V30 22 1 22 23
M  V30 23 1 23 24
M  V30 24 1 23 25
M  V30 25 2 25 26
M  V30 26 1 26 27
M  V30 27 2 27 28
M  V30 28 1 28 29
M  V30 29 1 28 30
M  V30 30 1 30 31
M  V30 31 2 30 32
M  V30 32 1 22 33
M  V30 33 2 33 34
M  V30 34 2 10 35
M  V30 35 1 35 36
M  V30 36 2 36 37
M  V30 37 1 37 38
M  V30 38 1 38 39
M  V30 39 1 39 40
M  V30 40 1 39 41
M  V30 41 1 38 2
M  V30 42 1 37 4
M  V30 43 1 36 7
M  V30 44 1 33 17
M  V30 45 1 32 25
M  V30 46 1 1 42
M  V30 47 1 1 43
M  V30 48 1 1 44
M  V30 49 1 5 45
M  V30 50 1 8 46
M  V30 51 1 9 47
M  V30 52 1 13 48
M  V30 53 1 13 49
M  V30 54 1 14 50
M  V30 55 1 19 51
M  V30 56 1 19 52
M  V30 57 1 19 53
M  V30 58 1 21 54
M  V30 59 1 21 55
M  V30 60 1 21 56
M  V30 61 1 23 57
M  V30 62 1 24 58
M  V30 63 1 24 59
M  V30 64 1 24 60
M  V30 65 1 26 61
M  V30 66 1 27 62
M  V30 67 1 32 63
M  V30 68 1 35 64
M  V30 69 1 39 65
M  V30 70 1 40 66
M  V30 71 1 40 67
M  V30 72 1 40 68
M  V30 73 1 41 69
M  V30 74 1 41 70
M  V30 75 1 41 71
M  V30 END BOND
M  V30 END CTAB
M  END
>  <Dataset>  (390) 
ChEMBL_Kinases

>  <Ligand_Instance>  (390) 
nan

>  <PDB_ID>  (390) 
nan

>  <Standardized_SMILES>  (390) 
Cc1nc2cnc3ccc(C#CCNC(=O)c4c(C)n(C)n(C(C)c5ccc(F)c(F)c5)c4=O)cc3c2n1C(C)C

>  <Name>  (390) 
nan

>  <Pocket>  (390) 
nan

>  <ATP_Site>  (390) 
nan

>  <Peripheral>  (390) 
nan

>  <Num_H_Atoms_ProtBoundConf>  (390) 
nan

>  <Num_Resolved_Atoms>  (390) 
nan

>  <Num_Not_Resolved_Atoms>  (390) 
nan

$$$$
CHEMBL3643964
     RDKit          3D

  0  0  0  0  0  0  0  0  0  0999 V3000
M  V30 BEGIN CTAB
M  V30 COUNTS 55 57 0 0 0
M  V30 BEGIN ATOM
M  V30 1 C -2.540148 -1.684687 5.150107 0
M  V30 2 N -2.206730 -3.043252 5.597300 0
M  V30 3 C -1.287104 -3.909223 4.946686 0
M  V30 4 N -0.734457 -3.359838 3.849287 0
M  V30 5 C 0.153387 -3.959538 3.056060 0
M  V30 6 N 0.735939 -3.402207 1.888201 0
M  V30 7 C 0.544974 -2.124133 1.305064 0
M  V30 8 C -0.251530 -1.171731 1.896286 0
M  V30 9 C -0.411411 0.046557 1.263469 0
M  V30 10 C 0.148467 0.405069 0.092216 0
M  V30 11 C -0.087677 1.684702 -0.542961 0
M  V30 12 O -1.085914 2.251539 0.001782 0
M  V30 13 N 0.554014 2.374372 -1.600678 0
M  V30 14 C 1.689132 2.213866 -2.519971 0
M  V30 15 C 1.048067 2.046166 -3.883159 0
M  V30 16 C 1.744261 2.895173 -4.920185 0
M  V30 17 O -0.315037 2.183763 -3.895489 0
M  V30 18 C -0.828732 3.293860 -3.276234 0
M  V30 19 C -2.254893 2.908234 -2.841286 0
M  V30 20 C -0.094084 3.641185 -1.991912 0
M  V30 21 C 0.944426 -0.567532 -0.479787 0
M  V30 22 C 1.146734 -1.796835 0.096080 0
M  V30 23 O 1.963817 -2.777438 -0.497327 0
M  V30 24 C 2.615827 -2.512411 -1.733919 0
M  V30 25 N 0.502248 -5.190631 3.394093 0
M  V30 26 C 0.007546 -5.831971 4.475312 0
M  V30 27 C -0.906401 -5.196651 5.280248 0
M  V30 28 C -1.584343 -5.708871 6.500319 0
M  V30 29 F -1.158808 -7.003818 6.749680 0
M  V30 30 F -1.311257 -4.887941 7.578003 0
M  V30 31 F -2.955120 -5.761226 6.303907 0
M  V30 32 H -2.949330 -1.758668 4.119475 0
M  V30 33 H -3.281742 -1.265280 5.835653 0
M  V30 34 H -1.626000 -1.066963 5.066415 0
M  V30 35 H -2.663587 -3.433708 6.447087 0
M  V30 36 H 1.412098 -4.026797 1.360113 0
M  V30 37 H -0.758007 -1.315980 2.830142 0
M  V30 38 H -1.052509 0.767756 1.780229 0
M  V30 39 H 2.385489 1.431261 -2.252860 0
M  V30 40 H 2.223763 3.201110 -2.520938 0
M  V30 41 H 1.271085 0.972519 -4.166875 0
M  V30 42 H 2.041565 2.297928 -5.823223 0
M  V30 43 H 2.693120 3.251187 -4.467357 0
M  V30 44 H 1.143808 3.780945 -5.206553 0
M  V30 45 H -0.922432 4.186908 -3.896660 0
M  V30 46 H -2.177227 1.842028 -2.477287 0
M  V30 47 H -2.949493 2.885549 -3.683084 0
M  V30 48 H -2.588983 3.489874 -1.969215 0
M  V30 49 H -0.774382 3.956949 -1.199570 0
M  V30 50 H 0.655930 4.414705 -2.115829 0
M  V30 51 H 1.462310 -0.470701 -1.413957 0
M  V30 52 H 3.250656 -3.371515 -2.001312 0
M  V30 53 H 1.830996 -2.315410 -2.491751 0
M  V30 54 H 3.265796 -1.616647 -1.665592 0
M  V30 55 H 0.266965 -6.832539 4.779009 0
M  V30 END ATOM
M  V30 BEGIN BOND
M  V30 1 1 1 2
M  V30 2 1 2 3
M  V30 3 2 3 4
M  V30 4 1 4 5
M  V30 5 1 5 6
M  V30 6 1 6 7
M  V30 7 2 7 8
M  V30 8 1 8 9
M  V30 9 2 9 10
M  V30 10 1 10 11
M  V30 11 2 11 12
M  V30 12 1 11 13
M  V30 13 1 13 14
M  V30 14 1 14 15
M  V30 15 1 15 16
M  V30 16 1 15 17
M  V30 17 1 17 18
M  V30 18 1 18 19
M  V30 19 1 18 20
M  V30 20 1 10 21
M  V30 21 2 21 22
M  V30 22 1 22 23
M  V30 23 1 23 24
M  V30 24 2 5 25
M  V30 25 1 25 26
M  V30 26 2 26 27
M  V30 27 1 27 28
M  V30 28 1 28 29
M  V30 29 1 28 30
M  V30 30 1 28 31
M  V30 31 1 27 3
M  V30 32 1 22 7
M  V30 33 1 20 13
M  V30 34 1 1 32
M  V30 35 1 1 33
M  V30 36 1 1 34
M  V30 37 1 2 35
M  V30 38 1 6 36
M  V30 39 1 8 37
M  V30 40 1 9 38
M  V30 41 1 14 39
M  V30 42 1 14 40
M  V30 43 1 15 41
M  V30 44 1 16 42
M  V30 45 1 16 43
M  V30 46 1 16 44
M  V30 47 1 18 45
M  V30 48 1 19 46
M  V30 49 1 19 47
M  V30 50 1 19 48
M  V30 51 1 20 49
M  V30 52 1 20 50
M  V30 53 1 21 51
M  V30 54 1 24 52
M  V30 55 1 24 53
M  V30 56 1 24 54
M  V30 57 1 26 55
M  V30 END BOND
M  V30 END CTAB
M  END
>  <Dataset>  (391) 
ChEMBL_Kinases

>  <Ligand_Instance>  (391) 
nan

>  <PDB_ID>  (391) 
nan

>  <Standardized_SMILES>  (391) 
CNc1nc(Nc2ccc(C(=O)N3CC(C)OC(C)C3)cc2OC)ncc1C(F)(F)F

>  <Name>  (391) 
nan

>  <Pocket>  (391) 
nan

>  <ATP_Site>  (391) 
nan

>  <Peripheral>  (391) 
nan

>  <Num_H_Atoms_ProtBoundConf>  (391) 
nan

>  <Num_Resolved_Atoms>  (391) 
nan

>  <Num_Not_Resolved_Atoms>  (391) 
nan

$$$$
CHEMBL3643965
     RDKit          3D

  0  0  0  0  0  0  0  0  0  0999 V3000
M  V30 BEGIN CTAB
M  V30 COUNTS 52 54 0 0 0
M  V30 BEGIN ATOM
M  V30 1 C 0.614339 -3.458898 5.160573 0
M  V30 2 N -0.114490 -4.467390 4.412505 0
M  V30 3 C -0.200453 -4.727516 3.030790 0
M  V30 4 N 0.489485 -3.949497 2.196464 0
M  V30 5 C 0.510857 -4.064626 0.865384 0
M  V30 6 N 1.212065 -3.330736 -0.119524 0
M  V30 7 C 0.931454 -2.027599 -0.560335 0
M  V30 8 C -0.104074 -1.315931 0.050558 0
M  V30 9 C -0.328243 -0.023539 -0.398317 0
M  V30 10 C 0.426864 0.545113 -1.400171 0
M  V30 11 C 0.027817 1.915183 -1.713111 0
M  V30 12 O -0.309095 1.873564 -2.941329 0
M  V30 13 N 0.039834 3.004117 -0.791123 0
M  V30 14 C 0.409994 3.174018 0.617959 0
M  V30 15 C -0.571632 4.140447 1.255166 0
M  V30 16 C -1.894268 3.979702 0.569479 0
M  V30 17 C -3.012025 4.516286 1.346250 0
M  V30 18 N -3.878392 4.923910 1.943817 0
M  V30 19 C -1.813723 4.613422 -0.797791 0
M  V30 20 C -0.434071 4.254489 -1.362927 0
M  V30 21 C 1.464155 -0.145926 -2.024632 0
M  V30 22 C 1.649550 -1.418795 -1.549680 0
M  V30 23 O 2.659138 -2.169444 -2.120768 0
M  V30 24 C 3.494125 -1.689267 -3.153302 0
M  V30 25 N -0.233930 -5.058360 0.318009 0
M  V30 26 C -0.933788 -5.852581 1.130004 0
M  V30 27 C -0.988266 -5.773980 2.524377 0
M  V30 28 C -1.746155 -6.650549 3.428350 0
M  V30 29 F -0.890888 -7.303422 4.298401 0
M  V30 30 F -2.410409 -7.591793 2.658413 0
M  V30 31 F -2.700693 -5.976844 4.154401 0
M  V30 32 H 0.256195 -2.422728 4.943347 0
M  V30 33 H 0.560465 -3.649109 6.253347 0
M  V30 34 H 1.680754 -3.498027 4.889764 0
M  V30 35 H -0.684063 -5.128045 5.020556 0
M  V30 36 H 2.014071 -3.823604 -0.553457 0
M  V30 37 H -0.654515 -1.806514 0.819486 0
M  V30 38 H -1.140371 0.474032 0.117917 0
M  V30 39 H 1.424190 3.630028 0.584098 0
M  V30 40 H 0.494536 2.222759 1.158755 0
M  V30 41 H -0.634348 3.971280 2.362945 0
M  V30 42 H -0.208122 5.192090 1.077766 0
M  V30 43 H -2.013945 2.875347 0.385477 0
M  V30 44 H -2.573129 4.108462 -1.463606 0
M  V30 45 H -1.974004 5.703918 -0.744122 0
M  V30 46 H -0.448239 4.265269 -2.462191 0
M  V30 47 H 0.257674 5.056532 -1.017415 0
M  V30 48 H 2.007705 0.355855 -2.795690 0
M  V30 49 H 2.931575 -1.099792 -3.905182 0
M  V30 50 H 4.304089 -1.047678 -2.751498 0
M  V30 51 H 3.948328 -2.547787 -3.698110 0
M  V30 52 H -1.549588 -6.672390 0.733612 0
M  V30 END ATOM
M  V30 BEGIN BOND
M  V30 1 1 1 2
M  V30 2 1 2 3
M  V30 3 2 3 4
M  V30 4 1 4 5
M  V30 5 1 5 6
M  V30 6 1 6 7
M  V30 7 2 7 8
M  V30 8 1 8 9
M  V30 9 2 9 10
M  V30 10 1 10 11
M  V30 11 2 11 12
M  V30 12 1 11 13
M  V30 13 1 13 14
M  V30 14 1 14 15
M  V30 15 1 15 16
M  V30 16 1 16 17
M  V30 17 3 17 18
M  V30 18 1 16 19
M  V30 19 1 19 20
M  V30 20 1 10 21
M  V30 21 2 21 22
M  V30 22 1 22 23
M  V30 23 1 23 24
M  V30 24 2 5 25
M  V30 25 1 25 26
M  V30 26 2 26 27
M  V30 27 1 27 28
M  V30 28 1 28 29
M  V30 29 1 28 30
M  V30 30 1 28 31
M  V30 31 1 27 3
M  V30 32 1 22 7
M  V30 33 1 20 13
M  V30 34 1 1 32
M  V30 35 1 1 33
M  V30 36 1 1 34
M  V30 37 1 2 35
M  V30 38 1 6 36
M  V30 39 1 8 37
M  V30 40 1 9 38
M  V30 41 1 14 39
M  V30 42 1 14 40
M  V30 43 1 15 41
M  V30 44 1 15 42
M  V30 45 1 16 43
M  V30 46 1 19 44
M  V30 47 1 19 45
M  V30 48 1 20 46
M  V30 49 1 20 47
M  V30 50 1 21 48
M  V30 51 1 24 49
M  V30 52 1 24 50
M  V30 53 1 24 51
M  V30 54 1 26 52
M  V30 END BOND
M  V30 END CTAB
M  END
>  <Dataset>  (392) 
ChEMBL_Kinases

>  <Ligand_Instance>  (392) 
nan

>  <PDB_ID>  (392) 
nan

>  <Standardized_SMILES>  (392) 
CNc1nc(Nc2ccc(C(=O)N3CCC(C#N)CC3)cc2OC)ncc1C(F)(F)F

>  <Name>  (392) 
nan

>  <Pocket>  (392) 
nan

>  <ATP_Site>  (392) 
nan

>  <Peripheral>  (392) 
nan

>  <Num_H_Atoms_ProtBoundConf>  (392) 
nan

>  <Num_Resolved_Atoms>  (392) 
nan

>  <Num_Not_Resolved_Atoms>  (392) 
nan

$$$$
CHEMBL3643966
     RDKit          3D

  0  0  0  0  0  0  0  0  0  0999 V3000
M  V30 BEGIN CTAB
M  V30 COUNTS 56 58 0 0 0
M  V30 BEGIN ATOM
M  V30 1 C 0.760049 -0.224826 5.372920 0
M  V30 2 N 0.519157 -1.500661 6.032326 0
M  V30 3 C 0.389795 -2.702280 5.284307 0
M  V30 4 N 0.476955 -2.739798 3.960042 0
M  V30 5 C 0.365235 -3.830485 3.189034 0
M  V30 6 N 0.457100 -3.856336 1.772501 0
M  V30 7 C 0.689592 -2.797097 0.859431 0
M  V30 8 C 0.894785 -1.501759 1.267731 0
M  V30 9 C 1.124529 -0.444224 0.421263 0
M  V30 10 C 1.162715 -0.635142 -0.938866 0
M  V30 11 C 1.373355 0.307605 -2.024438 0
M  V30 12 O 2.185999 0.033463 -2.921974 0
M  V30 13 N 0.640267 1.523728 -2.033135 0
M  V30 14 C -0.339634 2.044005 -1.097194 0
M  V30 15 C -1.141569 3.168103 -1.686107 0
M  V30 16 N -1.490043 3.024979 -3.063801 0
M  V30 17 C -2.846542 2.629151 -3.260151 0
M  V30 18 C -3.253469 2.486789 -4.685340 0
M  V30 19 F -2.546090 1.563556 -5.403354 0
M  V30 20 F -4.586017 2.042542 -4.717128 0
M  V30 21 F -3.278609 3.729838 -5.317580 0
M  V30 22 C -0.510475 2.407174 -3.891583 0
M  V30 23 C 0.816269 2.457990 -3.117946 0
M  V30 24 C 0.957686 -1.943556 -1.383309 0
M  V30 25 C 0.728349 -2.994294 -0.523213 0
M  V30 26 O 0.526672 -4.282606 -0.979709 0
M  V30 27 C 0.565699 -4.513604 -2.387256 0
M  V30 28 N 0.147503 -4.965894 3.837650 0
M  V30 29 C 0.043310 -5.045449 5.153311 0
M  V30 30 C 0.163037 -3.904770 5.914244 0
M  V30 31 C 0.052777 -3.935116 7.387598 0
M  V30 32 F -0.176444 -5.249377 7.763022 0
M  V30 33 F -1.069501 -3.236238 7.824503 0
M  V30 34 F 1.191124 -3.550010 8.048703 0
M  V30 35 H 0.478810 0.627281 6.023030 0
M  V30 36 H 0.310528 -0.166344 4.368800 0
M  V30 37 H 1.855469 -0.163906 5.210324 0
M  V30 38 H 0.439209 -1.542479 7.073171 0
M  V30 39 H 0.339067 -4.786324 1.298442 0
M  V30 40 H 0.895319 -1.195327 2.282994 0
M  V30 41 H 1.290328 0.578340 0.710787 0
M  V30 42 H 0.229483 2.485654 -0.248275 0
M  V30 43 H -0.949455 1.218467 -0.680757 0
M  V30 44 H -0.605768 4.141154 -1.545032 0
M  V30 45 H -2.056596 3.256114 -1.051349 0
M  V30 46 H -3.145862 1.744089 -2.652381 0
M  V30 47 H -3.478542 3.470689 -2.843299 0
M  V30 48 H -0.701326 1.327947 -4.088297 0
M  V30 49 H -0.352774 3.019578 -4.798931 0
M  V30 50 H 1.662583 2.193580 -3.780539 0
M  V30 51 H 0.931194 3.478398 -2.712957 0
M  V30 52 H 0.960564 -2.222372 -2.431461 0
M  V30 53 H 0.463691 -5.613272 -2.563462 0
M  V30 54 H -0.309988 -4.048635 -2.862566 0
M  V30 55 H 1.511212 -4.155318 -2.847833 0
M  V30 56 H -0.137208 -6.018577 5.605935 0
M  V30 END ATOM
M  V30 BEGIN BOND
M  V30 1 1 1 2
M  V30 2 1 2 3
M  V30 3 2 3 4
M  V30 4 1 4 5
M  V30 5 1 5 6
M  V30 6 1 6 7
M  V30 7 2 7 8
M  V30 8 1 8 9
M  V30 9 2 9 10
M  V30 10 1 10 11
M  V30 11 2 11 12
M  V30 12 1 11 13
M  V30 13 1 13 14
M  V30 14 1 14 15
M  V30 15 1 15 16
M  V30 16 1 16 17
M  V30 17 1 17 18
M  V30 18 1 18 19
M  V30 19 1 18 20
M  V30 20 1 18 21
M  V30 21 1 16 22
M  V30 22 1 22 23
M  V30 23 1 10 24
M  V30 24 2 24 25
M  V30 25 1 25 26
M  V30 26 1 26 27
M  V30 27 2 5 28
M  V30 28 1 28 29
M  V30 29 2 29 30
M  V30 30 1 30 31
M  V30 31 1 31 32
M  V30 32 1 31 33
M  V30 33 1 31 34
M  V30 34 1 30 3
M  V30 35 1 25 7
M  V30 36 1 23 13
M  V30 37 1 1 35
M  V30 38 1 1 36
M  V30 39 1 1 37
M  V30 40 1 2 38
M  V30 41 1 6 39
M  V30 42 1 8 40
M  V30 43 1 9 41
M  V30 44 1 14 42
M  V30 45 1 14 43
M  V30 46 1 15 44
M  V30 47 1 15 45
M  V30 48 1 17 46
M  V30 49 1 17 47
M  V30 50 1 22 48
M  V30 51 1 22 49
M  V30 52 1 23 50
M  V30 53 1 23 51
M  V30 54 1 24 52
M  V30 55 1 27 53
M  V30 56 1 27 54
M  V30 57 1 27 55
M  V30 58 1 29 56
M  V30 END BOND
M  V30 END CTAB
M  END
>  <Dataset>  (393) 
ChEMBL_Kinases

>  <Ligand_Instance>  (393) 
nan

>  <PDB_ID>  (393) 
nan

>  <Standardized_SMILES>  (393) 
CNc1nc(Nc2ccc(C(=O)N3CCN(CC(F)(F)F)CC3)cc2OC)ncc1C(F)(F)F

>  <Name>  (393) 
nan

>  <Pocket>  (393) 
nan

>  <ATP_Site>  (393) 
nan

>  <Peripheral>  (393) 
nan

>  <Num_H_Atoms_ProtBoundConf>  (393) 
nan

>  <Num_Resolved_Atoms>  (393) 
nan

>  <Num_Not_Resolved_Atoms>  (393) 
nan

$$$$
CHEMBL3643967
     RDKit          3D

  0  0  0  0  0  0  0  0  0  0999 V3000
M  V30 BEGIN CTAB
M  V30 COUNTS 48 49 0 0 0
M  V30 BEGIN ATOM
M  V30 1 C -1.912150 -4.821910 2.048165 0
M  V30 2 N -1.211881 -5.504362 0.966267 0
M  V30 3 C -1.014649 -4.842042 -0.302150 0
M  V30 4 N -1.499925 -3.585062 -0.430555 0
M  V30 5 C -1.361613 -2.881007 -1.567972 0
M  V30 6 N -1.893240 -1.560028 -1.654729 0
M  V30 7 C -1.240855 -0.476135 -1.000193 0
M  V30 8 C -0.119214 -0.782953 -0.203013 0
M  V30 9 C 0.651995 0.123036 0.540457 0
M  V30 10 C 0.231820 1.455894 0.454581 0
M  V30 11 C 0.978431 2.450186 1.216943 0
M  V30 12 O 0.631503 3.634621 1.067963 0
M  V30 13 N 2.046677 2.150472 2.097023 0
M  V30 14 C 2.810165 3.101958 2.876137 0
M  V30 15 C 1.854565 3.824003 3.798682 0
M  V30 16 O 2.513785 4.776089 4.606991 0
M  V30 17 C 3.466195 4.174744 5.423390 0
M  V30 18 C -0.854812 1.788440 -0.312004 0
M  V30 19 C -1.577990 0.861019 -1.022439 0
M  V30 20 O -2.675790 1.167147 -1.801635 0
M  V30 21 C -3.092206 2.512675 -1.887649 0
M  V30 22 N -0.718960 -3.487814 -2.569324 0
M  V30 23 C -0.210178 -4.730114 -2.520843 0
M  V30 24 C -0.346555 -5.444808 -1.374991 0
M  V30 25 C 0.179772 -6.829379 -1.205957 0
M  V30 26 F -0.896437 -7.664973 -0.914240 0
M  V30 27 F 0.667415 -7.272942 -2.427538 0
M  V30 28 F 1.145513 -6.891344 -0.227996 0
M  V30 29 H -1.606018 -5.186471 3.037188 0
M  V30 30 H -1.642462 -3.736131 1.959223 0
M  V30 31 H -3.007112 -4.901044 1.897406 0
M  V30 32 H -0.820965 -6.455918 1.019283 0
M  V30 33 H -2.765722 -1.316345 -2.186726 0
M  V30 34 H 0.190723 -1.837387 -0.154055 0
M  V30 35 H 1.474071 -0.280449 1.094069 0
M  V30 36 H 2.288849 1.142321 2.177268 0
M  V30 37 H 3.514404 2.511930 3.520468 0
M  V30 38 H 3.363151 3.808620 2.224930 0
M  V30 39 H 1.284825 3.144657 4.437486 0
M  V30 40 H 1.117429 4.399047 3.185656 0
M  V30 41 H 2.990421 3.412265 6.106727 0
M  V30 42 H 4.329817 3.753421 4.880644 0
M  V30 43 H 3.896754 4.976379 6.080763 0
M  V30 44 H -1.129343 2.831880 -0.338276 0
M  V30 45 H -4.135637 2.493601 -2.287120 0
M  V30 46 H -3.079117 2.964504 -0.875605 0
M  V30 47 H -2.375848 3.018298 -2.571738 0
M  V30 48 H 0.304420 -5.155801 -3.386235 0
M  V30 END ATOM
M  V30 BEGIN BOND
M  V30 1 1 1 2
M  V30 2 1 2 3
M  V30 3 2 3 4
M  V30 4 1 4 5
M  V30 5 1 5 6
M  V30 6 1 6 7
M  V30 7 2 7 8
M  V30 8 1 8 9
M  V30 9 2 9 10
M  V30 10 1 10 11
M  V30 11 2 11 12
M  V30 12 1 11 13
M  V30 13 1 13 14
M  V30 14 1 14 15
M  V30 15 1 15 16
M  V30 16 1 16 17
M  V30 17 1 10 18
M  V30 18 2 18 19
M  V30 19 1 19 20
M  V30 20 1 20 21
M  V30 21 2 5 22
M  V30 22 1 22 23
M  V30 23 2 23 24
M  V30 24 1 24 25
M  V30 25 1 25 26
M  V30 26 1 25 27
M  V30 27 1 25 28
M  V30 28 1 24 3
M  V30 29 1 19 7
M  V30 30 1 1 29
M  V30 31 1 1 30
M  V30 32 1 1 31
M  V30 33 1 2 32
M  V30 34 1 6 33
M  V30 35 1 8 34
M  V30 36 1 9 35
M  V30 37 1 13 36
M  V30 38 1 14 37
M  V30 39 1 14 38
M  V30 40 1 15 39
M  V30 41 1 15 40
M  V30 42 1 17 41
M  V30 43 1 17 42
M  V30 44 1 17 43
M  V30 45 1 18 44
M  V30 46 1 21 45
M  V30 47 1 21 46
M  V30 48 1 21 47
M  V30 49 1 23 48
M  V30 END BOND
M  V30 END CTAB
M  END
>  <Dataset>  (394) 
ChEMBL_Kinases

>  <Ligand_Instance>  (394) 
nan

>  <PDB_ID>  (394) 
nan

>  <Standardized_SMILES>  (394) 
CNc1nc(Nc2ccc(C(=O)NCCOC)cc2OC)ncc1C(F)(F)F

>  <Name>  (394) 
nan

>  <Pocket>  (394) 
nan

>  <ATP_Site>  (394) 
nan

>  <Peripheral>  (394) 
nan

>  <Num_H_Atoms_ProtBoundConf>  (394) 
nan

>  <Num_Resolved_Atoms>  (394) 
nan

>  <Num_Not_Resolved_Atoms>  (394) 
nan

$$$$
CHEMBL3643968
     RDKit          3D

  0  0  0  0  0  0  0  0  0  0999 V3000
M  V30 BEGIN CTAB
M  V30 COUNTS 56 58 0 0 0
M  V30 BEGIN ATOM
M  V30 1 C 0.131998 -4.007738 6.293733 0
M  V30 2 N 0.921117 -5.036734 5.686222 0
M  V30 3 C 1.798708 -4.767636 4.589981 0
M  V30 4 N 1.864566 -3.501472 4.134090 0
M  V30 5 C 2.685392 -3.232037 3.102397 0
M  V30 6 N 2.683370 -1.854266 2.683769 0
M  V30 7 C 1.742805 -1.456275 1.663721 0
M  V30 8 C 0.874459 -2.415808 1.114925 0
M  V30 9 C -0.050694 -2.099050 0.132728 0
M  V30 10 C -0.136883 -0.807429 -0.333210 0
M  V30 11 C -1.120228 -0.527470 -1.364149 0
M  V30 12 O -1.818905 -1.477887 -1.796426 0
M  V30 13 N -1.276627 0.798537 -1.862512 0
M  V30 14 C -2.212074 1.219376 -2.882435 0
M  V30 15 C -3.270385 2.151957 -2.340994 0
M  V30 16 C -2.872430 3.578230 -2.601475 0
M  V30 17 N -2.855855 3.876983 -4.029350 0
M  V30 18 C -4.119031 4.487529 -4.434430 0
M  V30 19 C -2.611717 2.655951 -4.796018 0
M  V30 20 C -1.555515 1.835210 -4.086093 0
M  V30 21 C 0.710452 0.124412 0.203615 0
M  V30 22 C 1.639361 -0.153785 1.178358 0
M  V30 23 O 2.525899 0.723281 1.770817 0
M  V30 24 C 2.624979 2.093725 1.460449 0
M  V30 25 N 3.447168 -4.199825 2.510657 0
M  V30 26 C 3.418159 -5.470541 2.924939 0
M  V30 27 C 2.575083 -5.731347 3.979621 0
M  V30 28 C 2.464578 -7.127381 4.523983 0
M  V30 29 F 1.171373 -7.607717 4.425028 0
M  V30 30 F 2.781432 -7.142701 5.870412 0
M  V30 31 F 3.343667 -7.970325 3.865105 0
M  V30 32 H -0.808311 -4.400468 6.756754 0
M  V30 33 H -0.143556 -3.187895 5.595359 0
M  V30 34 H 0.690487 -3.535194 7.128770 0
M  V30 35 H 0.813948 -5.988810 6.093739 0
M  V30 36 H 3.304286 -1.120333 3.054453 0
M  V30 37 H 0.952677 -3.426510 1.489397 0
M  V30 38 H -0.663464 -2.950489 -0.205579 0
M  V30 39 H -0.719992 1.617257 -1.535875 0
M  V30 40 H -2.752397 0.310438 -3.221077 0
M  V30 41 H -3.420527 2.038688 -1.251038 0
M  V30 42 H -4.263389 1.990788 -2.807297 0
M  V30 43 H -3.633338 4.227988 -2.138575 0
M  V30 44 H -1.903130 3.846788 -2.161575 0
M  V30 45 H -4.181757 5.446173 -3.852837 0
M  V30 46 H -4.131005 4.755083 -5.491830 0
M  V30 47 H -4.990326 3.864271 -4.139128 0
M  V30 48 H -2.347364 2.872065 -5.838867 0
M  V30 49 H -3.556906 2.064287 -4.744874 0
M  V30 50 H -1.257955 1.019581 -4.809372 0
M  V30 51 H -0.676253 2.453993 -3.804976 0
M  V30 52 H 0.667476 1.146445 -0.140522 0
M  V30 53 H 2.064573 2.418254 0.582646 0
M  V30 54 H 2.349869 2.740871 2.326356 0
M  V30 55 H 3.707632 2.265618 1.192774 0
M  V30 56 H 4.018007 -6.232521 2.458561 0
M  V30 END ATOM
M  V30 BEGIN BOND
M  V30 1 1 1 2
M  V30 2 1 2 3
M  V30 3 2 3 4
M  V30 4 1 4 5
M  V30 5 1 5 6
M  V30 6 1 6 7
M  V30 7 2 7 8
M  V30 8 1 8 9
M  V30 9 2 9 10
M  V30 10 1 10 11
M  V30 11 2 11 12
M  V30 12 1 11 13
M  V30 13 1 13 14
M  V30 14 1 14 15
M  V30 15 1 15 16
M  V30 16 1 16 17
M  V30 17 1 17 18
M  V30 18 1 17 19
M  V30 19 1 19 20
M  V30 20 1 10 21
M  V30 21 2 21 22
M  V30 22 1 22 23
M  V30 23 1 23 24
M  V30 24 2 5 25
M  V30 25 1 25 26
M  V30 26 2 26 27
M  V30 27 1 27 28
M  V30 28 1 28 29
M  V30 29 1 28 30
M  V30 30 1 28 31
M  V30 31 1 27 3
M  V30 32 1 22 7
M  V30 33 1 20 14
M  V30 34 1 1 32
M  V30 35 1 1 33
M  V30 36 1 1 34
M  V30 37 1 2 35
M  V30 38 1 6 36
M  V30 39 1 8 37
M  V30 40 1 9 38
M  V30 41 1 13 39
M  V30 42 1 14 40
M  V30 43 1 15 41
M  V30 44 1 15 42
M  V30 45 1 16 43
M  V30 46 1 16 44
M  V30 47 1 18 45
M  V30 48 1 18 46
M  V30 49 1 18 47
M  V30 50 1 19 48
M  V30 51 1 19 49
M  V30 52 1 20 50
M  V30 53 1 20 51
M  V30 54 1 21 52
M  V30 55 1 24 53
M  V30 56 1 24 54
M  V30 57 1 24 55
M  V30 58 1 26 56
M  V30 END BOND
M  V30 END CTAB
M  END
>  <Dataset>  (395) 
ChEMBL_Kinases

>  <Ligand_Instance>  (395) 
nan

>  <PDB_ID>  (395) 
nan

>  <Standardized_SMILES>  (395) 
CNc1nc(Nc2ccc(C(=O)NC3CCN(C)CC3)cc2OC)ncc1C(F)(F)F

>  <Name>  (395) 
nan

>  <Pocket>  (395) 
nan

>  <ATP_Site>  (395) 
nan

>  <Peripheral>  (395) 
nan

>  <Num_H_Atoms_ProtBoundConf>  (395) 
nan

>  <Num_Resolved_Atoms>  (395) 
nan

>  <Num_Not_Resolved_Atoms>  (395) 
nan

$$$$
CHEMBL3643969
     RDKit          3D

  0  0  0  0  0  0  0  0  0  0999 V3000
M  V30 BEGIN CTAB
M  V30 COUNTS 54 56 0 0 0
M  V30 BEGIN ATOM
M  V30 1 C 5.536318 -1.758037 -0.042227 0
M  V30 2 N 5.732850 -3.185517 -0.293467 0
M  V30 3 C 4.614632 -4.061780 -0.380020 0
M  V30 4 N 3.368712 -3.592896 -0.232987 0
M  V30 5 C 2.242727 -4.312485 -0.292715 0
M  V30 6 N 0.921231 -3.824131 -0.138670 0
M  V30 7 C 0.504599 -2.492617 0.105026 0
M  V30 8 C 1.326787 -1.398604 0.238040 0
M  V30 9 C 0.910329 -0.110910 0.473705 0
M  V30 10 C -0.426910 0.141800 0.591693 0
M  V30 11 C -0.864872 1.507794 0.841063 0
M  V30 12 O -0.000884 2.425309 0.937524 0
M  V30 13 N -2.204728 1.922741 0.990855 0
M  V30 14 C -2.587028 3.302335 1.238853 0
M  V30 15 C -3.464729 3.817601 0.169673 0
M  V30 16 C -4.915759 3.473572 0.294988 0
M  V30 17 C -5.380235 3.171913 1.682083 0
M  V30 18 F -5.349798 1.828918 2.004230 0
M  V30 19 F -6.722652 3.537678 1.771814 0
M  V30 20 C -4.552279 3.971554 2.642412 0
M  V30 21 C -3.165831 3.365578 2.624536 0
M  V30 22 C -1.288946 -0.897528 0.469964 0
M  V30 23 C -0.847215 -2.177884 0.234050 0
M  V30 24 O -1.786697 -3.191854 0.121000 0
M  V30 25 C -3.173620 -2.951952 0.239824 0
M  V30 26 N 2.416601 -5.623860 -0.523114 0
M  V30 27 C 3.613970 -6.201721 -0.685849 0
M  V30 28 C 4.741401 -5.413251 -0.614593 0
M  V30 29 C 6.113079 -5.962253 -0.781599 0
M  V30 30 F 6.795850 -5.398118 -1.841075 0
M  V30 31 F 6.828491 -5.850506 0.409478 0
M  V30 32 F 6.008792 -7.320689 -1.051353 0
M  V30 33 H 4.824766 -1.578825 0.787674 0
M  V30 34 H 6.528900 -1.310537 0.176505 0
M  V30 35 H 5.111321 -1.224093 -0.916071 0
M  V30 36 H 6.681908 -3.600646 -0.415211 0
M  V30 37 H 0.135154 -4.525978 -0.211497 0
M  V30 38 H 2.391179 -1.525586 0.156260 0
M  V30 39 H 1.612945 0.706694 0.568105 0
M  V30 40 H -2.952406 1.202840 0.919576 0
M  V30 41 H -1.660885 3.928138 1.279464 0
M  V30 42 H -3.110107 3.377861 -0.790802 0
M  V30 43 H -3.327856 4.916113 0.027200 0
M  V30 44 H -5.511908 4.325484 -0.093283 0
M  V30 45 H -5.204453 2.594843 -0.338868 0
M  V30 46 H -4.942097 3.778848 3.680305 0
M  V30 47 H -4.582544 5.031605 2.392489 0
M  V30 48 H -3.272337 2.356937 3.083945 0
M  V30 49 H -2.564460 3.957486 3.344394 0
M  V30 50 H -2.352367 -0.711015 0.561050 0
M  V30 51 H -3.728872 -3.910014 0.292077 0
M  V30 52 H -3.518501 -2.403963 -0.636285 0
M  V30 53 H -3.311902 -2.386949 1.207830 0
M  V30 54 H 3.701290 -7.262898 -0.869302 0
M  V30 END ATOM
M  V30 BEGIN BOND
M  V30 1 1 1 2
M  V30 2 1 2 3
M  V30 3 2 3 4
M  V30 4 1 4 5
M  V30 5 1 5 6
M  V30 6 1 6 7
M  V30 7 2 7 8
M  V30 8 1 8 9
M  V30 9 2 9 10
M  V30 10 1 10 11
M  V30 11 2 11 12
M  V30 12 1 11 13
M  V30 13 1 13 14
M  V30 14 1 14 15
M  V30 15 1 15 16
M  V30 16 1 16 17
M  V30 17 1 17 18
M  V30 18 1 17 19
M  V30 19 1 17 20
M  V30 20 1 20 21
M  V30 21 1 10 22
M  V30 22 2 22 23
M  V30 23 1 23 24
M  V30 24 1 24 25
M  V30 25 2 5 26
M  V30 26 1 26 27
M  V30 27 2 27 28
M  V30 28 1 28 29
M  V30 29 1 29 30
M  V30 30 1 29 31
M  V30 31 1 29 32
M  V30 32 1 28 3
M  V30 33 1 23 7
M  V30 34 1 21 14
M  V30 35 1 1 33
M  V30 36 1 1 34
M  V30 37 1 1 35
M  V30 38 1 2 36
M  V30 39 1 6 37
M  V30 40 1 8 38
M  V30 41 1 9 39
M  V30 42 1 13 40
M  V30 43 1 14 41
M  V30 44 1 15 42
M  V30 45 1 15 43
M  V30 46 1 16 44
M  V30 47 1 16 45
M  V30 48 1 20 46
M  V30 49 1 20 47
M  V30 50 1 21 48
M  V30 51 1 21 49
M  V30 52 1 22 50
M  V30 53 1 25 51
M  V30 54 1 25 52
M  V30 55 1 25 53
M  V30 56 1 27 54
M  V30 END BOND
M  V30 END CTAB
M  END
>  <Dataset>  (396) 
ChEMBL_Kinases

>  <Ligand_Instance>  (396) 
nan

>  <PDB_ID>  (396) 
nan

>  <Standardized_SMILES>  (396) 
CNc1nc(Nc2ccc(C(=O)NC3CCC(F)(F)CC3)cc2OC)ncc1C(F)(F)F

>  <Name>  (396) 
nan

>  <Pocket>  (396) 
nan

>  <ATP_Site>  (396) 
nan

>  <Peripheral>  (396) 
nan

>  <Num_H_Atoms_ProtBoundConf>  (396) 
nan

>  <Num_Resolved_Atoms>  (396) 
nan

>  <Num_Not_Resolved_Atoms>  (396) 
nan

$$$$
CHEMBL3643970
     RDKit          3D

  0  0  0  0  0  0  0  0  0  0999 V3000
M  V30 BEGIN CTAB
M  V30 COUNTS 51 54 0 0 0
M  V30 BEGIN ATOM
M  V30 1 C 3.945503 -3.957989 4.998002 0
M  V30 2 N 3.509879 -4.033539 3.701363 0
M  V30 3 C 3.060954 -4.111205 2.365456 0
M  V30 4 N 2.308472 -3.401405 1.535816 0
M  V30 5 C 2.051527 -3.733026 0.272836 0
M  V30 6 N 1.232496 -2.857932 -0.469694 0
M  V30 7 C 0.592645 -1.640982 -0.154189 0
M  V30 8 C 0.639414 -0.999212 1.060423 0
M  V30 9 C 0.024774 0.191238 1.388441 0
M  V30 10 C -0.698136 0.757955 0.362899 0
M  V30 11 C -1.396802 2.019154 0.563711 0
M  V30 12 O -1.531899 2.861359 -0.336286 0
M  V30 13 N -2.068621 2.677000 1.627771 0
M  V30 14 C -2.507515 3.927414 1.038801 0
M  V30 15 C -3.141557 4.736468 2.161948 0
M  V30 16 O -2.272379 4.876227 3.234580 0
M  V30 17 C -1.913500 3.674783 3.803864 0
M  V30 18 C -2.421134 2.477801 3.037358 0
M  V30 19 C -0.799479 0.191131 -0.872902 0
M  V30 20 C -0.166721 -0.997199 -1.147347 0
M  V30 21 O -0.258826 -1.575857 -2.378937 0
M  V30 22 C -0.898963 -1.210871 -3.524063 0
M  V30 23 C -0.182701 -1.342093 -4.833228 0
M  V30 24 O -1.425248 -1.562686 -5.426024 0
M  V30 25 C -1.783151 -2.206383 -4.220974 0
M  V30 26 N 2.594696 -4.853096 -0.165294 0
M  V30 27 C 3.366086 -5.661019 0.547567 0
M  V30 28 C 3.618134 -5.288676 1.867076 0
M  V30 29 Cl 4.661011 -6.477224 2.674934 0
M  V30 30 H 4.564201 -3.052204 5.280671 0
M  V30 31 H 3.173682 -4.030011 5.825986 0
M  V30 32 H 4.634988 -4.838357 5.259221 0
M  V30 33 H 2.973533 -3.117759 3.858782 0
M  V30 34 H 1.105349 -3.229364 -1.441203 0
M  V30 35 H 1.193807 -1.422186 1.868653 0
M  V30 36 H 0.091076 0.650451 2.349376 0
M  V30 37 H -1.640295 4.518188 0.681914 0
M  V30 38 H -3.298821 3.762939 0.293989 0
M  V30 39 H -3.332591 5.746657 1.759489 0
M  V30 40 H -4.092413 4.293667 2.458418 0
M  V30 41 H -0.801027 3.563427 3.858789 0
M  V30 42 H -2.256428 3.592952 4.869143 0
M  V30 43 H -1.986582 1.572366 3.456404 0
M  V30 44 H -3.543685 2.451646 3.140876 0
M  V30 45 H -1.376277 0.666851 -1.651125 0
M  V30 46 H -1.429386 -0.244679 -3.455379 0
M  V30 47 H 0.344593 -0.425957 -5.121859 0
M  V30 48 H 0.419658 -2.264788 -4.961774 0
M  V30 49 H -1.477011 -3.249661 -4.240190 0
M  V30 50 H -2.876154 -2.013250 -4.085091 0
M  V30 51 H 3.718525 -6.537771 0.005661 0
M  V30 END ATOM
M  V30 BEGIN BOND
M  V30 1 1 1 2
M  V30 2 1 2 3
M  V30 3 2 3 4
M  V30 4 1 4 5
M  V30 5 1 5 6
M  V30 6 1 6 7
M  V30 7 2 7 8
M  V30 8 1 8 9
M  V30 9 2 9 10
M  V30 10 1 10 11
M  V30 11 2 11 12
M  V30 12 1 11 13
M  V30 13 1 13 14
M  V30 14 1 14 15
M  V30 15 1 15 16
M  V30 16 1 16 17
M  V30 17 1 17 18
M  V30 18 1 10 19
M  V30 19 2 19 20
M  V30 20 1 20 21
M  V30 21 1 21 22
M  V30 22 1 22 23
M  V30 23 1 23 24
M  V30 24 1 24 25
M  V30 25 2 5 26
M  V30 26 1 26 27
M  V30 27 2 27 28
M  V30 28 1 28 29
M  V30 29 1 28 3
M  V30 30 1 20 7
M  V30 31 1 25 22
M  V30 32 1 18 13
M  V30 33 1 1 30
M  V30 34 1 1 31
M  V30 35 1 1 32
M  V30 36 1 2 33
M  V30 37 1 6 34
M  V30 38 1 8 35
M  V30 39 1 9 36
M  V30 40 1 14 37
M  V30 41 1 14 38
M  V30 42 1 15 39
M  V30 43 1 15 40
M  V30 44 1 17 41
M  V30 45 1 17 42
M  V30 46 1 18 43
M  V30 47 1 18 44
M  V30 48 1 19 45
M  V30 49 1 22 46
M  V30 50 1 23 47
M  V30 51 1 23 48
M  V30 52 1 25 49
M  V30 53 1 25 50
M  V30 54 1 27 51
M  V30 END BOND
M  V30 END CTAB
M  END
>  <Dataset>  (397) 
ChEMBL_Kinases

>  <Ligand_Instance>  (397) 
nan

>  <PDB_ID>  (397) 
nan

>  <Standardized_SMILES>  (397) 
CNc1nc(Nc2ccc(C(=O)N3CCOCC3)cc2OC2COC2)ncc1Cl

>  <Name>  (397) 
nan

>  <Pocket>  (397) 
nan

>  <ATP_Site>  (397) 
nan

>  <Peripheral>  (397) 
nan

>  <Num_H_Atoms_ProtBoundConf>  (397) 
nan

>  <Num_Resolved_Atoms>  (397) 
nan

>  <Num_Not_Resolved_Atoms>  (397) 
nan

$$$$
CHEMBL3643980
     RDKit          3D

  0  0  0  0  0  0  0  0  0  0999 V3000
M  V30 BEGIN CTAB
M  V30 COUNTS 44 46 0 0 0
M  V30 BEGIN ATOM
M  V30 1 C 1.385099 0.257498 5.416000 0
M  V30 2 O 0.496418 -0.247181 4.483822 0
M  V30 3 C 0.500055 -0.043875 3.111275 0
M  V30 4 C 1.469445 0.740569 2.529562 0
M  V30 5 C 1.515743 0.971754 1.176589 0
M  V30 6 C 2.555044 1.808527 0.582348 0
M  V30 7 O 2.622155 2.974127 1.064413 0
M  V30 8 N 3.365960 1.223923 -0.460571 0
M  V30 9 C 3.500268 -0.049401 -1.183970 0
M  V30 10 C 3.574458 0.327133 -2.641667 0
M  V30 11 C 4.038617 1.779888 -2.587592 0
M  V30 12 C 4.417332 1.932630 -1.125965 0
M  V30 13 C 0.544629 0.389281 0.367257 0
M  V30 14 C -0.406713 -0.388150 0.990469 0
M  V30 15 C -0.498037 -0.651111 2.339007 0
M  V30 16 N -1.500718 -1.458771 2.935582 0
M  V30 17 C -2.568102 -2.144450 2.328668 0
M  V30 18 N -3.413175 -2.850180 3.091178 0
M  V30 19 C -4.456213 -3.537616 2.626253 0
M  V30 20 C -4.693420 -3.531764 1.278428 0
M  V30 21 Cl -6.036541 -4.404970 0.594197 0
M  V30 22 C -3.853244 -2.821688 0.454503 0
M  V30 23 O -4.099942 -2.820798 -0.909584 0
M  V30 24 C -3.272878 -2.108766 -1.823009 0
M  V30 25 N -2.837154 -2.167897 1.029192 0
M  V30 26 H 1.633020 -0.587129 6.125246 0
M  V30 27 H 2.346111 0.619690 5.061183 0
M  V30 28 H 0.901132 1.074324 6.003267 0
M  V30 29 H 2.238520 1.209561 3.119446 0
M  V30 30 H 2.630877 -0.654725 -0.911456 0
M  V30 31 H 4.402691 -0.555329 -0.805196 0
M  V30 32 H 4.409978 -0.255835 -3.084891 0
M  V30 33 H 2.617337 0.203865 -3.177158 0
M  V30 34 H 3.203093 2.468683 -2.790087 0
M  V30 35 H 4.907101 1.938281 -3.255998 0
M  V30 36 H 5.373564 1.365648 -0.992835 0
M  V30 37 H 4.505697 2.986426 -0.821348 0
M  V30 38 H 0.573994 0.566116 -0.697428 0
M  V30 39 H -1.117437 -0.799966 0.299746 0
M  V30 40 H -1.411451 -1.540215 3.983264 0
M  V30 41 H -5.082803 -4.077962 3.324931 0
M  V30 42 H -3.059961 -1.082541 -1.484010 0
M  V30 43 H -2.301531 -2.636155 -1.867435 0
M  V30 44 H -3.721133 -2.092269 -2.818039 0
M  V30 END ATOM
M  V30 BEGIN BOND
M  V30 1 1 1 2
M  V30 2 1 2 3
M  V30 3 2 3 4
M  V30 4 1 4 5
M  V30 5 1 5 6
M  V30 6 2 6 7
M  V30 7 1 6 8
M  V30 8 1 8 9
M  V30 9 1 9 10
M  V30 10 1 10 11
M  V30 11 1 11 12
M  V30 12 2 5 13
M  V30 13 1 13 14
M  V30 14 2 14 15
M  V30 15 1 15 16
M  V30 16 1 16 17
M  V30 17 2 17 18
M  V30 18 1 18 19
M  V30 19 2 19 20
M  V30 20 1 20 21
M  V30 21 1 20 22
M  V30 22 1 22 23
M  V30 23 1 23 24
M  V30 24 2 22 25
M  V30 25 1 15 3
M  V30 26 1 25 17
M  V30 27 1 12 8
M  V30 28 1 1 26
M  V30 29 1 1 27
M  V30 30 1 1 28
M  V30 31 1 4 29
M  V30 32 1 9 30
M  V30 33 1 9 31
M  V30 34 1 10 32
M  V30 35 1 10 33
M  V30 36 1 11 34
M  V30 37 1 11 35
M  V30 38 1 12 36
M  V30 39 1 12 37
M  V30 40 1 13 38
M  V30 41 1 14 39
M  V30 42 1 16 40
M  V30 43 1 19 41
M  V30 44 1 24 42
M  V30 45 1 24 43
M  V30 46 1 24 44
M  V30 END BOND
M  V30 END CTAB
M  END
>  <Dataset>  (398) 
ChEMBL_Kinases

>  <Ligand_Instance>  (398) 
nan

>  <PDB_ID>  (398) 
nan

>  <Standardized_SMILES>  (398) 
COc1cc(C(=O)N2CCCC2)ccc1Nc1ncc(Cl)c(OC)n1

>  <Name>  (398) 
nan

>  <Pocket>  (398) 
nan

>  <ATP_Site>  (398) 
nan

>  <Peripheral>  (398) 
nan

>  <Num_H_Atoms_ProtBoundConf>  (398) 
nan

>  <Num_Resolved_Atoms>  (398) 
nan

>  <Num_Not_Resolved_Atoms>  (398) 
nan

$$$$
CHEMBL3643972
     RDKit          3D

  0  0  0  0  0  0  0  0  0  0999 V3000
M  V30 BEGIN CTAB
M  V30 COUNTS 59 62 0 0 0
M  V30 BEGIN ATOM
M  V30 1 C 4.708309 -3.423345 4.103114 0
M  V30 2 N 3.361536 -3.566753 4.618201 0
M  V30 3 C 2.047646 -3.413491 4.103940 0
M  V30 4 N 2.028427 -3.036031 2.804589 0
M  V30 5 C 0.818427 -2.853381 2.194975 0
M  V30 6 N 0.491967 -2.472847 0.880900 0
M  V30 7 C 0.340994 -1.149223 0.420740 0
M  V30 8 C 0.529637 -0.107316 1.304500 0
M  V30 9 C 0.386100 1.208441 0.856075 0
M  V30 10 C 0.059219 1.501623 -0.451831 0
M  V30 11 C -0.094194 2.870291 -0.934758 0
M  V30 12 O 0.683173 3.332280 -1.820707 0
M  V30 13 N -1.150513 3.656836 -0.368472 0
M  V30 14 C -2.151700 3.338485 0.646878 0
M  V30 15 C -2.433624 4.589078 1.454719 0
M  V30 16 O -3.018727 5.584135 0.673384 0
M  V30 17 C -2.750221 5.406908 -0.683570 0
M  V30 18 C -1.302738 5.019423 -0.846048 0
M  V30 19 C -0.124389 0.442588 -1.316361 0
M  V30 20 C 0.010004 -0.888374 -0.906825 0
M  V30 21 O -0.181689 -1.958969 -1.800639 0
M  V30 22 C -0.512856 -1.634520 -3.129838 0
M  V30 23 C -0.698315 -2.862029 -3.992160 0
M  V30 24 C 0.488695 -3.765767 -4.114723 0
M  V30 25 C -0.450988 -4.949665 -3.988108 0
M  V30 26 C -1.449587 -4.011204 -3.333228 0
M  V30 27 N -0.294289 -3.064511 2.938086 0
M  V30 28 C -0.252239 -3.442698 4.237987 0
M  V30 29 C 0.950062 -3.634792 4.881865 0
M  V30 30 C 1.060793 -4.047123 6.299334 0
M  V30 31 F -0.241530 -4.185425 6.794240 0
M  V30 32 F 1.680631 -5.265539 6.465208 0
M  V30 33 F 1.659330 -3.083325 7.085984 0
M  V30 34 H 4.637041 -3.102716 3.047848 0
M  V30 35 H 5.310166 -2.695411 4.686588 0
M  V30 36 H 5.243427 -4.388717 4.127464 0
M  V30 37 H 3.492498 -3.854981 5.614757 0
M  V30 38 H 0.361063 -3.287152 0.228947 0
M  V30 39 H 0.792647 -0.270547 2.361373 0
M  V30 40 H 0.537560 2.022975 1.566534 0
M  V30 41 H -3.093714 3.005975 0.172158 0
M  V30 42 H -1.801733 2.563435 1.328348 0
M  V30 43 H -3.124906 4.333029 2.271127 0
M  V30 44 H -1.466387 4.972664 1.811575 0
M  V30 45 H -2.952956 6.408824 -1.150114 0
M  V30 46 H -3.448957 4.650683 -1.062881 0
M  V30 47 H -1.044894 5.132616 -1.921159 0
M  V30 48 H -0.696575 5.721656 -0.241488 0
M  V30 49 H -0.381551 0.630889 -2.350159 0
M  V30 50 H 0.341124 -1.074297 -3.613328 0
M  V30 51 H -1.380252 -0.966585 -3.238599 0
M  V30 52 H -1.137970 -2.666634 -4.983812 0
M  V30 53 H 1.183219 -3.735751 -3.229278 0
M  V30 54 H 1.041243 -3.725258 -5.080088 0
M  V30 55 H -0.878313 -5.291432 -4.960082 0
M  V30 56 H -0.077728 -5.755733 -3.319460 0
M  V30 57 H -2.494264 -4.130369 -3.710537 0
M  V30 58 H -1.315844 -4.039842 -2.239335 0
M  V30 59 H -1.172425 -3.606019 4.815699 0
M  V30 END ATOM
M  V30 BEGIN BOND
M  V30 1 1 1 2
M  V30 2 1 2 3
M  V30 3 2 3 4
M  V30 4 1 4 5
M  V30 5 1 5 6
M  V30 6 1 6 7
M  V30 7 2 7 8
M  V30 8 1 8 9
M  V30 9 2 9 10
M  V30 10 1 10 11
M  V30 11 2 11 12
M  V30 12 1 11 13
M  V30 13 1 13 14
M  V30 14 1 14 15
M  V30 15 1 15 16
M  V30 16 1 16 17
M  V30 17 1 17 18
M  V30 18 1 10 19
M  V30 19 2 19 20
M  V30 20 1 20 21
M  V30 21 1 21 22
M  V30 22 1 22 23
M  V30 23 1 23 24
M  V30 24 1 24 25
M  V30 25 1 25 26
M  V30 26 2 5 27
M  V30 27 1 27 28
M  V30 28 2 28 29
M  V30 29 1 29 30
M  V30 30 1 30 31
M  V30 31 1 30 32
M  V30 32 1 30 33
M  V30 33 1 29 3
M  V30 34 1 20 7
M  V30 35 1 26 23
M  V30 36 1 18 13
M  V30 37 1 1 34
M  V30 38 1 1 35
M  V30 39 1 1 36
M  V30 40 1 2 37
M  V30 41 1 6 38
M  V30 42 1 8 39
M  V30 43 1 9 40
M  V30 44 1 14 41
M  V30 45 1 14 42
M  V30 46 1 15 43
M  V30 47 1 15 44
M  V30 48 1 17 45
M  V30 49 1 17 46
M  V30 50 1 18 47
M  V30 51 1 18 48
M  V30 52 1 19 49
M  V30 53 1 22 50
M  V30 54 1 22 51
M  V30 55 1 23 52
M  V30 56 1 24 53
M  V30 57 1 24 54
M  V30 58 1 25 55
M  V30 59 1 25 56
M  V30 60 1 26 57
M  V30 61 1 26 58
M  V30 62 1 28 59
M  V30 END BOND
M  V30 END CTAB
M  END
>  <Dataset>  (399) 
ChEMBL_Kinases

>  <Ligand_Instance>  (399) 
nan

>  <PDB_ID>  (399) 
nan

>  <Standardized_SMILES>  (399) 
CNc1nc(Nc2ccc(C(=O)N3CCOCC3)cc2OCC2CCC2)ncc1C(F)(F)F

>  <Name>  (399) 
nan

>  <Pocket>  (399) 
nan

>  <ATP_Site>  (399) 
nan

>  <Peripheral>  (399) 
nan

>  <Num_H_Atoms_ProtBoundConf>  (399) 
nan

>  <Num_Resolved_Atoms>  (399) 
nan

>  <Num_Not_Resolved_Atoms>  (399) 
nan

$$$$
CHEMBL3643973
     RDKit          3D

  0  0  0  0  0  0  0  0  0  0999 V3000
M  V30 BEGIN CTAB
M  V30 COUNTS 46 48 0 0 0
M  V30 BEGIN ATOM
M  V30 1 C 0.678112 -4.140668 2.114559 0
M  V30 2 N 0.886887 -4.978722 0.923703 0
M  V30 3 C 0.108319 -4.641848 -0.230574 0
M  V30 4 N -0.761305 -3.637124 -0.248085 0
M  V30 5 C -1.502074 -3.304249 -1.334698 0
M  V30 6 N -2.342670 -2.191065 -1.028427 0
M  V30 7 C -1.791971 -0.905559 -0.671750 0
M  V30 8 C -0.416465 -0.747413 -0.605792 0
M  V30 9 C 0.197557 0.451505 -0.254968 0
M  V30 10 O 1.562797 0.578904 -0.198627 0
M  V30 11 C 2.512479 -0.408704 -0.466337 0
M  V30 12 C -0.632330 1.542748 0.043358 0
M  V30 13 C 0.055879 2.772408 0.415634 0
M  V30 14 O 0.415468 3.647980 -0.413215 0
M  V30 15 N 0.327184 2.971927 1.812940 0
M  V30 16 C 1.007809 4.133521 2.356628 0
M  V30 17 C 1.794670 3.644629 3.569956 0
M  V30 18 O 2.217278 2.330184 3.404486 0
M  V30 19 C 1.152853 1.433940 3.446477 0
M  V30 20 C -0.076393 1.997880 2.804985 0
M  V30 21 C -2.012281 1.397978 -0.019349 0
M  V30 22 C -2.596833 0.199078 -0.369592 0
M  V30 23 Cl -4.329563 0.002106 -0.453105 0
M  V30 24 N -1.352625 -4.037385 -2.480281 0
M  V30 25 C -0.480089 -5.069698 -2.510345 0
M  V30 26 C 0.265048 -5.394459 -1.395323 0
M  V30 27 Br 1.480293 -6.862983 -1.498215 0
M  V30 28 H 1.616324 -4.167477 2.715280 0
M  V30 29 H -0.156525 -4.480375 2.737893 0
M  V30 30 H 0.455561 -3.103204 1.768388 0
M  V30 31 H 1.555345 -5.777113 0.884807 0
M  V30 32 H -3.377738 -2.288317 -1.056852 0
M  V30 33 H 0.240692 -1.559925 -0.827094 0
M  V30 34 H 2.197338 -1.154868 -1.241316 0
M  V30 35 H 2.785028 -0.916043 0.466538 0
M  V30 36 H 3.428761 0.102069 -0.892269 0
M  V30 37 H 0.261527 4.863714 2.744040 0
M  V30 38 H 1.664735 4.608880 1.607939 0
M  V30 39 H 1.173158 3.758934 4.488043 0
M  V30 40 H 2.693980 4.262386 3.658201 0
M  V30 41 H 0.965463 1.067534 4.488864 0
M  V30 42 H 1.456923 0.537732 2.874435 0
M  V30 43 H -0.657531 2.528415 3.614659 0
M  V30 44 H -0.728945 1.208291 2.382450 0
M  V30 45 H -2.616160 2.258010 0.215344 0
M  V30 46 H -0.437671 -5.580021 -3.455494 0
M  V30 END ATOM
M  V30 BEGIN BOND
M  V30 1 1 1 2
M  V30 2 1 2 3
M  V30 3 2 3 4
M  V30 4 1 4 5
M  V30 5 1 5 6
M  V30 6 1 6 7
M  V30 7 2 7 8
M  V30 8 1 8 9
M  V30 9 1 9 10
M  V30 10 1 10 11
M  V30 11 2 9 12
M  V30 12 1 12 13
M  V30 13 2 13 14
M  V30 14 1 13 15
M  V30 15 1 15 16
M  V30 16 1 16 17
M  V30 17 1 17 18
M  V30 18 1 18 19
M  V30 19 1 19 20
M  V30 20 1 12 21
M  V30 21 2 21 22
M  V30 22 1 22 23
M  V30 23 2 5 24
M  V30 24 1 24 25
M  V30 25 2 25 26
M  V30 26 1 26 27
M  V30 27 1 26 3
M  V30 28 1 22 7
M  V30 29 1 20 15
M  V30 30 1 1 28
M  V30 31 1 1 29
M  V30 32 1 1 30
M  V30 33 1 2 31
M  V30 34 1 6 32
M  V30 35 1 8 33
M  V30 36 1 11 34
M  V30 37 1 11 35
M  V30 38 1 11 36
M  V30 39 1 16 37
M  V30 40 1 16 38
M  V30 41 1 17 39
M  V30 42 1 17 40
M  V30 43 1 19 41
M  V30 44 1 19 42
M  V30 45 1 20 43
M  V30 46 1 20 44
M  V30 47 1 21 45
M  V30 48 1 25 46
M  V30 END BOND
M  V30 END CTAB
M  END
>  <Dataset>  (400) 
ChEMBL_Kinases

>  <Ligand_Instance>  (400) 
nan

>  <PDB_ID>  (400) 
nan

>  <Standardized_SMILES>  (400) 
CNc1nc(Nc2cc(OC)c(C(=O)N3CCOCC3)cc2Cl)ncc1Br

>  <Name>  (400) 
nan

>  <Pocket>  (400) 
nan

>  <ATP_Site>  (400) 
nan

>  <Peripheral>  (400) 
nan

>  <Num_H_Atoms_ProtBoundConf>  (400) 
nan

>  <Num_Resolved_Atoms>  (400) 
nan

>  <Num_Not_Resolved_Atoms>  (400) 
nan

$$$$
CHEMBL3643974
     RDKit          3D

  0  0  0  0  0  0  0  0  0  0999 V3000
M  V30 BEGIN CTAB
M  V30 COUNTS 52 55 0 0 0
M  V30 BEGIN ATOM
M  V30 1 C -3.201875 -2.931988 3.626375 0
M  V30 2 N -2.147686 -3.947775 3.748283 0
M  V30 3 C -1.261996 -4.127925 2.654068 0
M  V30 4 N -1.377068 -3.389602 1.523954 0
M  V30 5 C -0.517309 -3.591449 0.508892 0
M  V30 6 N -0.774906 -2.738819 -0.598269 0
M  V30 7 C -0.220283 -1.448799 -0.792499 0
M  V30 8 C 0.634987 -1.023795 0.203869 0
M  V30 9 C 1.284064 0.194348 0.219627 0
M  V30 10 C 1.019175 1.018200 -0.878856 0
M  V30 11 C 1.685879 2.320877 -0.904724 0
M  V30 12 O 2.502931 2.904207 -1.656213 0
M  V30 13 N 1.319712 3.157578 0.212019 0
M  V30 14 C 1.912580 4.494403 0.316110 0
M  V30 15 C 2.450185 4.702445 1.705227 0
M  V30 16 O 1.557899 4.328523 2.694747 0
M  V30 17 C 1.241192 2.954882 2.584172 0
M  V30 18 C 0.409591 2.876981 1.309604 0
M  V30 19 C 0.172123 0.644720 -1.904786 0
M  V30 20 C -0.449848 -0.587969 -1.865813 0
M  V30 21 C -1.380817 -1.109696 -2.901533 0
M  V30 22 C -0.919594 -1.885924 -4.055650 0
M  V30 23 C -1.235236 -0.432541 -4.245743 0
M  V30 24 N 0.474359 -4.504929 0.549485 0
M  V30 25 C 0.647528 -5.282665 1.656762 0
M  V30 26 C -0.241421 -5.071190 2.701311 0
M  V30 27 C -0.074220 -5.909283 3.926286 0
M  V30 28 F 0.986489 -6.789275 3.797483 0
M  V30 29 F 0.215475 -5.085042 4.995122 0
M  V30 30 F -1.198534 -6.683996 4.165616 0
M  V30 31 H -2.745794 -1.938426 3.365983 0
M  V30 32 H -3.896271 -3.205112 2.801171 0
M  V30 33 H -3.791254 -2.862605 4.552411 0
M  V30 34 H -2.020992 -4.535163 4.590321 0
M  V30 35 H -1.445547 -3.152521 -1.309436 0
M  V30 36 H 0.863991 -1.647451 1.080148 0
M  V30 37 H 1.947803 0.502117 1.011290 0
M  V30 38 H 1.061007 5.198424 0.177202 0
M  V30 39 H 2.720407 4.638947 -0.407041 0
M  V30 40 H 3.432639 4.217274 1.821239 0
M  V30 41 H 2.574529 5.815343 1.829411 0
M  V30 42 H 0.647862 2.675052 3.473355 0
M  V30 43 H 2.142851 2.345401 2.549119 0
M  V30 44 H -0.140884 1.941701 1.219064 0
M  V30 45 H -0.355007 3.686315 1.417206 0
M  V30 46 H -0.032460 1.275783 -2.749384 0
M  V30 47 H -2.431748 -1.149045 -2.540948 0
M  V30 48 H 0.118455 -2.239578 -4.102715 0
M  V30 49 H -1.671612 -2.572214 -4.520456 0
M  V30 50 H -2.170382 -0.151370 -4.801555 0
M  V30 51 H -0.393546 0.224043 -4.471113 0
M  V30 52 H 1.436915 -6.017959 1.703490 0
M  V30 END ATOM
M  V30 BEGIN BOND
M  V30 1 1 1 2
M  V30 2 1 2 3
M  V30 3 2 3 4
M  V30 4 1 4 5
M  V30 5 1 5 6
M  V30 6 1 6 7
M  V30 7 2 7 8
M  V30 8 1 8 9
M  V30 9 2 9 10
M  V30 10 1 10 11
M  V30 11 2 11 12
M  V30 12 1 11 13
M  V30 13 1 13 14
M  V30 14 1 14 15
M  V30 15 1 15 16
M  V30 16 1 16 17
M  V30 17 1 17 18
M  V30 18 1 10 19
M  V30 19 2 19 20
M  V30 20 1 20 21
M  V30 21 1 21 22
M  V30 22 1 22 23
M  V30 23 2 5 24
M  V30 24 1 24 25
M  V30 25 2 25 26
M  V30 26 1 26 27
M  V30 27 1 27 28
M  V30 28 1 27 29
M  V30 29 1 27 30
M  V30 30 1 26 3
M  V30 31 1 20 7
M  V30 32 1 23 21
M  V30 33 1 18 13
M  V30 34 1 1 31
M  V30 35 1 1 32
M  V30 36 1 1 33
M  V30 37 1 2 34
M  V30 38 1 6 35
M  V30 39 1 8 36
M  V30 40 1 9 37
M  V30 41 1 14 38
M  V30 42 1 14 39
M  V30 43 1 15 40
M  V30 44 1 15 41
M  V30 45 1 17 42
M  V30 46 1 17 43
M  V30 47 1 18 44
M  V30 48 1 18 45
M  V30 49 1 19 46
M  V30 50 1 21 47
M  V30 51 1 22 48
M  V30 52 1 22 49
M  V30 53 1 23 50
M  V30 54 1 23 51
M  V30 55 1 25 52
M  V30 END BOND
M  V30 END CTAB
M  END
>  <Dataset>  (401) 
ChEMBL_Kinases

>  <Ligand_Instance>  (401) 
nan

>  <PDB_ID>  (401) 
nan

>  <Standardized_SMILES>  (401) 
CNc1nc(Nc2ccc(C(=O)N3CCOCC3)cc2C2CC2)ncc1C(F)(F)F

>  <Name>  (401) 
nan

>  <Pocket>  (401) 
nan

>  <ATP_Site>  (401) 
nan

>  <Peripheral>  (401) 
nan

>  <Num_H_Atoms_ProtBoundConf>  (401) 
nan

>  <Num_Resolved_Atoms>  (401) 
nan

>  <Num_Not_Resolved_Atoms>  (401) 
nan

$$$$
CHEMBL3643975
     RDKit          3D

  0  0  0  0  0  0  0  0  0  0999 V3000
M  V30 BEGIN CTAB
M  V30 COUNTS 45 47 0 0 0
M  V30 BEGIN ATOM
M  V30 1 C -2.338733 -3.537065 2.612219 0
M  V30 2 N -2.050930 -4.507333 1.570764 0
M  V30 3 C -1.899241 -4.057611 0.213669 0
M  V30 4 N -2.009294 -2.758448 -0.060373 0
M  V30 5 C -1.880300 -2.205169 -1.276944 0
M  V30 6 N -2.049017 -0.794802 -1.288898 0
M  V30 7 C -0.976924 0.100211 -0.937324 0
M  V30 8 C 0.236407 -0.495630 -0.556101 0
M  V30 9 C 1.258600 0.362407 -0.203685 0
M  V30 10 C 1.123725 1.733478 -0.215519 0
M  V30 11 C 2.152536 2.700612 0.146680 0
M  V30 12 O 2.693990 3.661130 -0.452688 0
M  V30 13 N 2.706709 2.588196 1.451352 0
M  V30 14 C 3.728299 3.532483 1.854670 0
M  V30 15 C 3.150992 4.310861 3.003649 0
M  V30 16 O 2.404779 3.565683 3.886141 0
M  V30 17 C 2.643913 2.198781 3.828905 0
M  V30 18 C 2.370070 1.603836 2.488473 0
M  V30 19 C -0.080010 2.335359 -0.593711 0
M  V30 20 C -1.097836 1.468785 -0.944707 0
M  V30 21 Br -2.788208 2.187983 -1.478046 0
M  V30 22 N -1.618381 -3.054069 -2.287975 0
M  V30 23 C -1.492719 -4.378096 -2.093851 0
M  V30 24 C -1.626031 -4.948901 -0.834957 0
M  V30 25 C -1.499541 -6.396571 -0.539645 0
M  V30 26 F -1.247858 -7.068555 -1.718610 0
M  V30 27 F -0.365160 -6.581098 0.249718 0
M  V30 28 F -2.559421 -6.903904 0.170074 0
M  V30 29 H -1.358010 -3.044862 2.854616 0
M  V30 30 H -3.048583 -2.755152 2.265072 0
M  V30 31 H -2.726455 -4.002633 3.534365 0
M  V30 32 H -1.970314 -5.499261 1.875029 0
M  V30 33 H -2.969584 -0.333094 -1.555840 0
M  V30 34 H 0.355963 -1.566164 -0.541204 0
M  V30 35 H 2.232967 -0.025151 0.104552 0
M  V30 36 H 4.597607 2.974692 2.270321 0
M  V30 37 H 4.007064 4.225893 1.048717 0
M  V30 38 H 2.436096 5.056138 2.545014 0
M  V30 39 H 3.917915 4.930223 3.536690 0
M  V30 40 H 3.671429 1.910278 4.144910 0
M  V30 41 H 1.937821 1.717293 4.545313 0
M  V30 42 H 1.330757 1.257884 2.351846 0
M  V30 43 H 3.073097 0.763453 2.307287 0
M  V30 44 H -0.266587 3.382483 -0.631569 0
M  V30 45 H -1.282766 -5.027579 -2.928251 0
M  V30 END ATOM
M  V30 BEGIN BOND
M  V30 1 1 1 2
M  V30 2 1 2 3
M  V30 3 2 3 4
M  V30 4 1 4 5
M  V30 5 1 5 6
M  V30 6 1 6 7
M  V30 7 2 7 8
M  V30 8 1 8 9
M  V30 9 2 9 10
M  V30 10 1 10 11
M  V30 11 2 11 12
M  V30 12 1 11 13
M  V30 13 1 13 14
M  V30 14 1 14 15
M  V30 15 1 15 16
M  V30 16 1 16 17
M  V30 17 1 17 18
M  V30 18 1 10 19
M  V30 19 2 19 20
M  V30 20 1 20 21
M  V30 21 2 5 22
M  V30 22 1 22 23
M  V30 23 2 23 24
M  V30 24 1 24 25
M  V30 25 1 25 26
M  V30 26 1 25 27
M  V30 27 1 25 28
M  V30 28 1 24 3
M  V30 29 1 20 7
M  V30 30 1 18 13
M  V30 31 1 1 29
M  V30 32 1 1 30
M  V30 33 1 1 31
M  V30 34 1 2 32
M  V30 35 1 6 33
M  V30 36 1 8 34
M  V30 37 1 9 35
M  V30 38 1 14 36
M  V30 39 1 14 37
M  V30 40 1 15 38
M  V30 41 1 15 39
M  V30 42 1 17 40
M  V30 43 1 17 41
M  V30 44 1 18 42
M  V30 45 1 18 43
M  V30 46 1 19 44
M  V30 47 1 23 45
M  V30 END BOND
M  V30 END CTAB
M  END
>  <Dataset>  (402) 
ChEMBL_Kinases

>  <Ligand_Instance>  (402) 
nan

>  <PDB_ID>  (402) 
nan

>  <Standardized_SMILES>  (402) 
CNc1nc(Nc2ccc(C(=O)N3CCOCC3)cc2Br)ncc1C(F)(F)F

>  <Name>  (402) 
nan

>  <Pocket>  (402) 
nan

>  <ATP_Site>  (402) 
nan

>  <Peripheral>  (402) 
nan

>  <Num_H_Atoms_ProtBoundConf>  (402) 
nan

>  <Num_Resolved_Atoms>  (402) 
nan

>  <Num_Not_Resolved_Atoms>  (402) 
nan

$$$$
CHEMBL3643976
     RDKit          3D

  0  0  0  0  0  0  0  0  0  0999 V3000
M  V30 BEGIN CTAB
M  V30 COUNTS 45 47 0 0 0
M  V30 BEGIN ATOM
M  V30 1 C -1.629789 -2.800973 3.321507 0
M  V30 2 N -2.312008 -3.662535 2.381675 0
M  V30 3 C -2.449441 -3.585349 0.988800 0
M  V30 4 N -1.884942 -2.570353 0.321344 0
M  V30 5 C -1.942400 -2.382660 -1.000346 0
M  V30 6 N -1.353679 -1.318506 -1.730148 0
M  V30 7 C -0.585443 -0.249305 -1.236731 0
M  V30 8 C -0.249927 -0.046286 0.083770 0
M  V30 9 C 0.505417 1.002032 0.562765 0
M  V30 10 C 0.981207 1.945166 -0.326304 0
M  V30 11 C 1.777715 3.052837 0.167360 0
M  V30 12 O 1.525853 4.283136 0.134053 0
M  V30 13 N 3.020952 2.728921 0.778916 0
M  V30 14 C 3.939244 3.709169 1.326314 0
M  V30 15 C 4.029587 3.377618 2.819294 0
M  V30 16 O 4.691302 2.157914 2.915195 0
M  V30 17 C 3.897856 1.134841 2.416866 0
M  V30 18 C 3.576710 1.396187 0.958546 0
M  V30 19 C 0.671842 1.785452 -1.660502 0
M  V30 20 C -0.086788 0.719802 -2.088586 0
M  V30 21 Cl -0.424911 0.607854 -3.814445 0
M  V30 22 N -2.636833 -3.320766 -1.661989 0
M  V30 23 C -3.238616 -4.372817 -1.094352 0
M  V30 24 C -3.152063 -4.523594 0.267240 0
M  V30 25 C -3.797231 -5.669297 0.958654 0
M  V30 26 F -4.435952 -6.467299 0.043917 0
M  V30 27 F -2.792937 -6.391201 1.617374 0
M  V30 28 F -4.690885 -5.165944 1.884127 0
M  V30 29 H -0.941877 -3.411224 3.953205 0
M  V30 30 H -0.995079 -2.082908 2.761446 0
M  V30 31 H -2.335906 -2.288367 3.988196 0
M  V30 32 H -2.758203 -4.462299 2.902367 0
M  V30 33 H -1.506474 -1.320944 -2.780869 0
M  V30 34 H -0.575218 -0.724588 0.830067 0
M  V30 35 H 0.748611 1.128277 1.607458 0
M  V30 36 H 3.601811 4.751776 1.165071 0
M  V30 37 H 4.934865 3.553396 0.901555 0
M  V30 38 H 2.976862 3.264391 3.210151 0
M  V30 39 H 4.511177 4.174951 3.383445 0
M  V30 40 H 4.440286 0.179763 2.464869 0
M  V30 41 H 3.017457 1.065324 3.058068 0
M  V30 42 H 2.940823 0.624509 0.533065 0
M  V30 43 H 4.574246 1.403246 0.429520 0
M  V30 44 H 1.029664 2.505104 -2.365521 0
M  V30 45 H -3.788052 -5.107455 -1.656261 0
M  V30 END ATOM
M  V30 BEGIN BOND
M  V30 1 1 1 2
M  V30 2 1 2 3
M  V30 3 2 3 4
M  V30 4 1 4 5
M  V30 5 1 5 6
M  V30 6 1 6 7
M  V30 7 2 7 8
M  V30 8 1 8 9
M  V30 9 2 9 10
M  V30 10 1 10 11
M  V30 11 2 11 12
M  V30 12 1 11 13
M  V30 13 1 13 14
M  V30 14 1 14 15
M  V30 15 1 15 16
M  V30 16 1 16 17
M  V30 17 1 17 18
M  V30 18 1 10 19
M  V30 19 2 19 20
M  V30 20 1 20 21
M  V30 21 2 5 22
M  V30 22 1 22 23
M  V30 23 2 23 24
M  V30 24 1 24 25
M  V30 25 1 25 26
M  V30 26 1 25 27
M  V30 27 1 25 28
M  V30 28 1 24 3
M  V30 29 1 20 7
M  V30 30 1 18 13
M  V30 31 1 1 29
M  V30 32 1 1 30
M  V30 33 1 1 31
M  V30 34 1 2 32
M  V30 35 1 6 33
M  V30 36 1 8 34
M  V30 37 1 9 35
M  V30 38 1 14 36
M  V30 39 1 14 37
M  V30 40 1 15 38
M  V30 41 1 15 39
M  V30 42 1 17 40
M  V30 43 1 17 41
M  V30 44 1 18 42
M  V30 45 1 18 43
M  V30 46 1 19 44
M  V30 47 1 23 45
M  V30 END BOND
M  V30 END CTAB
M  END
>  <Dataset>  (403) 
ChEMBL_Kinases

>  <Ligand_Instance>  (403) 
nan

>  <PDB_ID>  (403) 
nan

>  <Standardized_SMILES>  (403) 
CNc1nc(Nc2ccc(C(=O)N3CCOCC3)cc2Cl)ncc1C(F)(F)F

>  <Name>  (403) 
nan

>  <Pocket>  (403) 
nan

>  <ATP_Site>  (403) 
nan

>  <Peripheral>  (403) 
nan

>  <Num_H_Atoms_ProtBoundConf>  (403) 
nan

>  <Num_Resolved_Atoms>  (403) 
nan

>  <Num_Not_Resolved_Atoms>  (403) 
nan

$$$$
CHEMBL3643977
     RDKit          3D

  0  0  0  0  0  0  0  0  0  0999 V3000
M  V30 BEGIN CTAB
M  V30 COUNTS 46 48 0 0 0
M  V30 BEGIN ATOM
M  V30 1 C 0.272325 -3.988486 3.039478 0
M  V30 2 N 0.072591 -5.166614 2.189436 0
M  V30 3 C -0.553522 -5.005239 0.920120 0
M  V30 4 N -0.956690 -3.790700 0.509458 0
M  V30 5 C -1.559297 -3.549483 -0.673433 0
M  V30 6 N -1.891194 -2.183399 -0.887458 0
M  V30 7 C -0.999326 -1.060532 -0.729528 0
M  V30 8 C 0.294515 -1.343551 -0.389108 0
M  V30 9 C 1.206149 -0.320519 -0.230560 0
M  V30 10 Cl 2.888244 -0.573011 0.202800 0
M  V30 11 C 0.822583 1.000461 -0.413521 0
M  V30 12 C 1.742937 2.119343 -0.258069 0
M  V30 13 O 2.502033 2.731659 -1.029536 0
M  V30 14 N 1.772940 2.619292 1.090417 0
M  V30 15 C 2.585339 3.734533 1.595776 0
M  V30 16 C 3.630829 3.221916 2.566866 0
M  V30 17 O 3.254466 1.990291 3.102708 0
M  V30 18 C 1.899068 1.963869 3.426613 0
M  V30 19 C 0.994225 2.101487 2.225276 0
M  V30 20 C -0.484514 1.268305 -0.756009 0
M  V30 21 C -1.411725 0.261387 -0.919651 0
M  V30 22 O -2.746753 0.374974 -1.258438 0
M  V30 23 C -3.435144 1.569239 -1.508164 0
M  V30 24 N -1.782099 -4.573918 -1.514416 0
M  V30 25 C -1.408978 -5.814100 -1.177462 0
M  V30 26 C -0.790756 -6.061010 0.036958 0
M  V30 27 Cl -0.271990 -7.647027 0.556079 0
M  V30 28 H 0.957008 -4.188655 3.864288 0
M  V30 29 H 0.690570 -3.201191 2.372592 0
M  V30 30 H -0.747639 -3.695532 3.373201 0
M  V30 31 H 0.389952 -6.086046 2.531834 0
M  V30 32 H -2.885174 -2.103846 -1.178055 0
M  V30 33 H 0.740223 -2.307595 -0.214778 0
M  V30 34 H 3.095464 4.291471 0.807778 0
M  V30 35 H 1.936473 4.458574 2.154048 0
M  V30 36 H 4.560566 3.028847 1.998762 0
M  V30 37 H 3.812538 3.999894 3.313486 0
M  V30 38 H 1.726329 0.974323 3.898323 0
M  V30 39 H 1.650103 2.709776 4.214042 0
M  V30 40 H 0.177560 2.810821 2.459639 0
M  V30 41 H 0.565833 1.111293 1.986218 0
M  V30 42 H -0.874516 2.268632 -0.919477 0
M  V30 43 H -3.259271 2.330960 -0.700847 0
M  V30 44 H -4.532129 1.344349 -1.486197 0
M  V30 45 H -3.205525 1.998453 -2.503891 0
M  V30 46 H -1.556322 -6.670168 -1.799695 0
M  V30 END ATOM
M  V30 BEGIN BOND
M  V30 1 1 1 2
M  V30 2 1 2 3
M  V30 3 2 3 4
M  V30 4 1 4 5
M  V30 5 1 5 6
M  V30 6 1 6 7
M  V30 7 2 7 8
M  V30 8 1 8 9
M  V30 9 1 9 10
M  V30 10 2 9 11
M  V30 11 1 11 12
M  V30 12 2 12 13
M  V30 13 1 12 14
M  V30 14 1 14 15
M  V30 15 1 15 16
M  V30 16 1 16 17
M  V30 17 1 17 18
M  V30 18 1 18 19
M  V30 19 1 11 20
M  V30 20 2 20 21
M  V30 21 1 21 22
M  V30 22 1 22 23
M  V30 23 2 5 24
M  V30 24 1 24 25
M  V30 25 2 25 26
M  V30 26 1 26 27
M  V30 27 1 26 3
M  V30 28 1 21 7
M  V30 29 1 19 14
M  V30 30 1 1 28
M  V30 31 1 1 29
M  V30 32 1 1 30
M  V30 33 1 2 31
M  V30 34 1 6 32
M  V30 35 1 8 33
M  V30 36 1 15 34
M  V30 37 1 15 35
M  V30 38 1 16 36
M  V30 39 1 16 37
M  V30 40 1 18 38
M  V30 41 1 18 39
M  V30 42 1 19 40
M  V30 43 1 19 41
M  V30 44 1 20 42
M  V30 45 1 23 43
M  V30 46 1 23 44
M  V30 47 1 23 45
M  V30 48 1 25 46
M  V30 END BOND
M  V30 END CTAB
M  END
>  <Dataset>  (404) 
ChEMBL_Kinases

>  <Ligand_Instance>  (404) 
nan

>  <PDB_ID>  (404) 
nan

>  <Standardized_SMILES>  (404) 
CNc1nc(Nc2cc(Cl)c(C(=O)N3CCOCC3)cc2OC)ncc1Cl

>  <Name>  (404) 
nan

>  <Pocket>  (404) 
nan

>  <ATP_Site>  (404) 
nan

>  <Peripheral>  (404) 
nan

>  <Num_H_Atoms_ProtBoundConf>  (404) 
nan

>  <Num_Resolved_Atoms>  (404) 
nan

>  <Num_Not_Resolved_Atoms>  (404) 
nan

$$$$
CHEMBL3643978
     RDKit          3D

  0  0  0  0  0  0  0  0  0  0999 V3000
M  V30 BEGIN CTAB
M  V30 COUNTS 45 47 0 0 0
M  V30 BEGIN ATOM
M  V30 1 C 0.309972 -0.862576 4.386712 0
M  V30 2 O -0.137621 -1.430002 3.171349 0
M  V30 3 C 0.424194 -1.095640 1.941316 0
M  V30 4 C 1.449327 -0.178090 1.939078 0
M  V30 5 C 2.057485 0.206645 0.773858 0
M  V30 6 C 3.120538 1.166479 0.832390 0
M  V30 7 O 4.374544 0.976655 0.965674 0
M  V30 8 N 2.914137 2.585199 0.743038 0
M  V30 9 C 4.080537 3.450259 0.816408 0
M  V30 10 C 3.529655 4.866396 1.021875 0
M  V30 11 O 2.609957 4.861253 2.077747 0
M  V30 12 C 1.468275 4.132680 1.809909 0
M  V30 13 C 1.613862 3.234710 0.582817 0
M  V30 14 C 1.617334 -0.349705 -0.409429 0
M  V30 15 Cl 2.375448 0.124217 -1.903290 0
M  V30 16 C 0.588042 -1.262675 -0.346642 0
M  V30 17 C -0.059779 -1.686570 0.791982 0
M  V30 18 N -1.117068 -2.627898 0.830564 0
M  V30 19 C -1.720214 -3.316360 -0.251378 0
M  V30 20 N -1.403728 -3.210895 -1.546854 0
M  V30 21 C -1.984677 -3.869729 -2.557889 0
M  V30 22 C -2.989636 -4.727145 -2.250626 0
M  V30 23 Br -3.842421 -5.684225 -3.661634 0
M  V30 24 C -3.358190 -4.877663 -0.943832 0
M  V30 25 O -4.378204 -5.747853 -0.631489 0
M  V30 26 C -4.780849 -5.922907 0.718853 0
M  V30 27 N -2.712709 -4.171186 -0.006528 0
M  V30 28 H 1.332168 -1.182533 4.633623 0
M  V30 29 H -0.377987 -1.127937 5.193816 0
M  V30 30 H 0.325042 0.260611 4.308594 0
M  V30 31 H 1.782445 0.249369 2.881436 0
M  V30 32 H 4.667792 3.485700 -0.103544 0
M  V30 33 H 4.730558 3.203243 1.665576 0
M  V30 34 H 3.039856 5.245227 0.114207 0
M  V30 35 H 4.323631 5.582530 1.314640 0
M  V30 36 H 1.359949 3.403800 2.663066 0
M  V30 37 H 0.571396 4.757090 1.681980 0
M  V30 38 H 0.787674 2.509353 0.661652 0
M  V30 39 H 1.644187 3.798813 -0.357130 0
M  V30 40 H 0.301165 -1.651573 -1.309630 0
M  V30 41 H -1.490446 -2.829906 1.794740 0
M  V30 42 H -1.622631 -3.684103 -3.566495 0
M  V30 43 H -3.906303 -6.230976 1.331238 0
M  V30 44 H -5.498623 -6.768492 0.800062 0
M  V30 45 H -5.189246 -4.976596 1.118337 0
M  V30 END ATOM
M  V30 BEGIN BOND
M  V30 1 1 1 2
M  V30 2 1 2 3
M  V30 3 2 3 4
M  V30 4 1 4 5
M  V30 5 1 5 6
M  V30 6 2 6 7
M  V30 7 1 6 8
M  V30 8 1 8 9
M  V30 9 1 9 10
M  V30 10 1 10 11
M  V30 11 1 11 12
M  V30 12 1 12 13
M  V30 13 2 5 14
M  V30 14 1 14 15
M  V30 15 1 14 16
M  V30 16 2 16 17
M  V30 17 1 17 18
M  V30 18 1 18 19
M  V30 19 2 19 20
M  V30 20 1 20 21
M  V30 21 2 21 22
M  V30 22 1 22 23
M  V30 23 1 22 24
M  V30 24 1 24 25
M  V30 25 1 25 26
M  V30 26 2 24 27
M  V30 27 1 17 3
M  V30 28 1 27 19
M  V30 29 1 13 8
M  V30 30 1 1 28
M  V30 31 1 1 29
M  V30 32 1 1 30
M  V30 33 1 4 31
M  V30 34 1 9 32
M  V30 35 1 9 33
M  V30 36 1 10 34
M  V30 37 1 10 35
M  V30 38 1 12 36
M  V30 39 1 12 37
M  V30 40 1 13 38
M  V30 41 1 13 39
M  V30 42 1 16 40
M  V30 43 1 18 41
M  V30 44 1 21 42
M  V30 45 1 26 43
M  V30 46 1 26 44
M  V30 47 1 26 45
M  V30 END BOND
M  V30 END CTAB
M  END
>  <Dataset>  (405) 
ChEMBL_Kinases

>  <Ligand_Instance>  (405) 
nan

>  <PDB_ID>  (405) 
nan

>  <Standardized_SMILES>  (405) 
COc1cc(C(=O)N2CCOCC2)c(Cl)cc1Nc1ncc(Br)c(OC)n1

>  <Name>  (405) 
nan

>  <Pocket>  (405) 
nan

>  <ATP_Site>  (405) 
nan

>  <Peripheral>  (405) 
nan

>  <Num_H_Atoms_ProtBoundConf>  (405) 
nan

>  <Num_Resolved_Atoms>  (405) 
nan

>  <Num_Not_Resolved_Atoms>  (405) 
nan

$$$$
CHEMBL3643979
     RDKit          3D

  0  0  0  0  0  0  0  0  0  0999 V3000
M  V30 BEGIN CTAB
M  V30 COUNTS 46 48 0 0 0
M  V30 BEGIN ATOM
M  V30 1 C 1.055473 -3.661984 1.922531 0
M  V30 2 N 1.144391 -4.719093 0.907593 0
M  V30 3 C 0.266634 -4.662283 -0.232923 0
M  V30 4 N -0.600364 -3.663003 -0.338219 0
M  V30 5 C -1.479130 -3.489133 -1.338148 0
M  V30 6 N -2.267926 -2.315996 -1.190449 0
M  V30 7 C -1.741076 -1.066038 -0.770689 0
M  V30 8 C -0.392798 -0.821304 -0.616066 0
M  V30 9 C 0.176515 0.378352 -0.238928 0
M  V30 10 O 1.527128 0.566988 -0.101818 0
M  V30 11 C 2.544710 -0.361471 -0.303966 0
M  V30 12 C -0.689508 1.456541 0.013321 0
M  V30 13 C -0.057657 2.713950 0.407708 0
M  V30 14 O 0.316190 3.674553 -0.318580 0
M  V30 15 N 0.191269 2.923885 1.803309 0
M  V30 16 C 0.822320 4.146413 2.304603 0
M  V30 17 C 1.527174 3.783866 3.591248 0
M  V30 18 O 2.059847 2.502304 3.566242 0
M  V30 19 C 1.095697 1.515121 3.496381 0
M  V30 20 C -0.167184 1.930436 2.796776 0
M  V30 21 C -2.053078 1.267190 -0.126434 0
M  V30 22 C -2.541724 0.026380 -0.510325 0
M  V30 23 Cl -4.284593 -0.123333 -0.664440 0
M  V30 24 N -1.479929 -4.408046 -2.318151 0
M  V30 25 C -0.638288 -5.462679 -2.307859 0
M  V30 26 C 0.253829 -5.609450 -1.261083 0
M  V30 27 Cl 1.384479 -6.938006 -1.152723 0
M  V30 28 H 2.046187 -3.357067 2.254043 0
M  V30 29 H 0.491261 -4.024811 2.828276 0
M  V30 30 H 0.411537 -2.821052 1.544816 0
M  V30 31 H 1.849603 -5.466804 1.071689 0
M  V30 32 H -3.285766 -2.369677 -1.399146 0
M  V30 33 H 0.330434 -1.583571 -0.793750 0
M  V30 34 H 2.325846 -1.130390 -1.070131 0
M  V30 35 H 2.851125 -0.891894 0.623159 0
M  V30 36 H 3.447793 0.196297 -0.679765 0
M  V30 37 H -0.001397 4.852600 2.524318 0
M  V30 38 H 1.518315 4.526548 1.537100 0
M  V30 39 H 0.915442 3.922715 4.495895 0
M  V30 40 H 2.396006 4.472026 3.675108 0
M  V30 41 H 0.899464 1.008487 4.486439 0
M  V30 42 H 1.541026 0.677005 2.881170 0
M  V30 43 H -0.852159 2.387485 3.567937 0
M  V30 44 H -0.620640 1.028843 2.344548 0
M  V30 45 H -2.687856 2.117937 0.075930 0
M  V30 46 H -0.660322 -6.175308 -3.098646 0
M  V30 END ATOM
M  V30 BEGIN BOND
M  V30 1 1 1 2
M  V30 2 1 2 3
M  V30 3 2 3 4
M  V30 4 1 4 5
M  V30 5 1 5 6
M  V30 6 1 6 7
M  V30 7 2 7 8
M  V30 8 1 8 9
M  V30 9 1 9 10
M  V30 10 1 10 11
M  V30 11 2 9 12
M  V30 12 1 12 13
M  V30 13 2 13 14
M  V30 14 1 13 15
M  V30 15 1 15 16
M  V30 16 1 16 17
M  V30 17 1 17 18
M  V30 18 1 18 19
M  V30 19 1 19 20
M  V30 20 1 12 21
M  V30 21 2 21 22
M  V30 22 1 22 23
M  V30 23 2 5 24
M  V30 24 1 24 25
M  V30 25 2 25 26
M  V30 26 1 26 27
M  V30 27 1 26 3
M  V30 28 1 22 7
M  V30 29 1 20 15
M  V30 30 1 1 28
M  V30 31 1 1 29
M  V30 32 1 1 30
M  V30 33 1 2 31
M  V30 34 1 6 32
M  V30 35 1 8 33
M  V30 36 1 11 34
M  V30 37 1 11 35
M  V30 38 1 11 36
M  V30 39 1 16 37
M  V30 40 1 16 38
M  V30 41 1 17 39
M  V30 42 1 17 40
M  V30 43 1 19 41
M  V30 44 1 19 42
M  V30 45 1 20 43
M  V30 46 1 20 44
M  V30 47 1 21 45
M  V30 48 1 25 46
M  V30 END BOND
M  V30 END CTAB
M  END
>  <Dataset>  (406) 
ChEMBL_Kinases

>  <Ligand_Instance>  (406) 
nan

>  <PDB_ID>  (406) 
nan

>  <Standardized_SMILES>  (406) 
CNc1nc(Nc2cc(OC)c(C(=O)N3CCOCC3)cc2Cl)ncc1Cl

>  <Name>  (406) 
nan

>  <Pocket>  (406) 
nan

>  <ATP_Site>  (406) 
nan

>  <Peripheral>  (406) 
nan

>  <Num_H_Atoms_ProtBoundConf>  (406) 
nan

>  <Num_Resolved_Atoms>  (406) 
nan

>  <Num_Not_Resolved_Atoms>  (406) 
nan

$$$$
CHEMBL3643971
     RDKit          3D

  0  0  0  0  0  0  0  0  0  0999 V3000
M  V30 BEGIN CTAB
M  V30 COUNTS 56 59 0 0 0
M  V30 BEGIN ATOM
M  V30 1 C 3.781745 -3.389253 1.218879 0
M  V30 2 N 3.013777 -4.545808 1.606720 0
M  V30 3 C 1.584662 -4.368336 1.647137 0
M  V30 4 N 1.041083 -3.154661 1.250725 0
M  V30 5 C -0.271395 -3.027779 1.238348 0
M  V30 6 N -0.374762 -1.770601 0.652744 0
M  V30 7 C 0.170873 -0.556973 0.278586 0
M  V30 8 C 0.788611 0.236618 1.232245 0
M  V30 9 C 0.948598 1.524338 0.660350 0
M  V30 10 C 0.571482 1.985691 -0.643649 0
M  V30 11 C 0.994560 3.358273 -0.620414 0
M  V30 12 O 1.915424 3.792368 -1.395345 0
M  V30 13 N 0.199508 3.954460 0.429093 0
M  V30 14 C 0.479149 5.099920 1.216820 0
M  V30 15 C 0.298706 4.727758 2.719144 0
M  V30 16 O -0.821622 3.954549 2.926457 0
M  V30 17 C -1.754266 4.094173 1.882241 0
M  V30 18 C -1.189260 3.548085 0.617253 0
M  V30 19 C -0.021892 1.116843 -1.500742 0
M  V30 20 C -0.199145 -0.110292 -1.023708 0
M  V30 21 O -0.686311 -1.202465 -1.480017 0
M  V30 22 C -1.183467 -2.313835 -1.947564 0
M  V30 23 C -2.722977 -2.178034 -2.015920 0
M  V30 24 C -3.425062 -3.420025 -2.510403 0
M  V30 25 C -3.399792 -2.226238 -3.358648 0
M  V30 26 N -1.168427 -3.947329 1.566491 0
M  V30 27 C -0.687043 -5.163319 1.957558 0
M  V30 28 C 0.674760 -5.336044 1.989732 0
M  V30 29 C 1.198453 -6.691275 2.400642 0
M  V30 30 F 2.036107 -6.418448 3.472247 0
M  V30 31 F 0.124360 -7.458422 2.879606 0
M  V30 32 F 1.813144 -7.271006 1.332729 0
M  V30 33 H 4.783742 -3.697352 0.879579 0
M  V30 34 H 3.898118 -2.676393 2.030109 0
M  V30 35 H 3.274700 -2.892149 0.382421 0
M  V30 36 H 3.356260 -5.479220 1.859257 0
M  V30 37 H -1.457334 -1.746113 0.511740 0
M  V30 38 H 1.074042 -0.043961 2.265721 0
M  V30 39 H 1.430935 2.163151 1.460692 0
M  V30 40 H 0.088666 6.011911 0.913616 0
M  V30 41 H 1.636193 5.264325 1.165439 0
M  V30 42 H 1.157519 4.058242 3.025143 0
M  V30 43 H 0.361871 5.627555 3.295690 0
M  V30 44 H -2.108515 5.155658 1.818096 0
M  V30 45 H -2.636147 3.513681 2.152224 0
M  V30 46 H -1.339506 2.508754 0.489925 0
M  V30 47 H -1.728626 4.089662 -0.251405 0
M  V30 48 H -0.258614 1.415315 -2.470344 0
M  V30 49 H -0.901601 -3.302121 -1.534950 0
M  V30 50 H -0.867360 -2.417109 -3.050223 0
M  V30 51 H -3.191859 -1.528743 -1.294751 0
M  V30 52 H -2.821301 -4.288982 -2.792112 0
M  V30 53 H -4.337348 -3.712230 -1.924072 0
M  V30 54 H -2.718033 -2.135709 -4.251565 0
M  V30 55 H -4.364944 -1.653856 -3.448168 0
M  V30 56 H -1.436931 -5.883115 2.211449 0
M  V30 END ATOM
M  V30 BEGIN BOND
M  V30 1 1 1 2
M  V30 2 1 2 3
M  V30 3 2 3 4
M  V30 4 1 4 5
M  V30 5 1 5 6
M  V30 6 1 6 7
M  V30 7 2 7 8
M  V30 8 1 8 9
M  V30 9 2 9 10
M  V30 10 1 10 11
M  V30 11 2 11 12
M  V30 12 1 11 13
M  V30 13 1 13 14
M  V30 14 1 14 15
M  V30 15 1 15 16
M  V30 16 1 16 17
M  V30 17 1 17 18
M  V30 18 1 10 19
M  V30 19 2 19 20
M  V30 20 1 20 21
M  V30 21 1 21 22
M  V30 22 1 22 23
M  V30 23 1 23 24
M  V30 24 1 24 25
M  V30 25 2 5 26
M  V30 26 1 26 27
M  V30 27 2 27 28
M  V30 28 1 28 29
M  V30 29 1 29 30
M  V30 30 1 29 31
M  V30 31 1 29 32
M  V30 32 1 28 3
M  V30 33 1 20 7
M  V30 34 1 25 23
M  V30 35 1 18 13
M  V30 36 1 1 33
M  V30 37 1 1 34
M  V30 38 1 1 35
M  V30 39 1 2 36
M  V30 40 1 6 37
M  V30 41 1 8 38
M  V30 42 1 9 39
M  V30 43 1 14 40
M  V30 44 1 14 41
M  V30 45 1 15 42
M  V30 46 1 15 43
M  V30 47 1 17 44
M  V30 48 1 17 45
M  V30 49 1 18 46
M  V30 50 1 18 47
M  V30 51 1 19 48
M  V30 52 1 22 49
M  V30 53 1 22 50
M  V30 54 1 23 51
M  V30 55 1 24 52
M  V30 56 1 24 53
M  V30 57 1 25 54
M  V30 58 1 25 55
M  V30 59 1 27 56
M  V30 END BOND
M  V30 END CTAB
M  END
>  <Dataset>  (407) 
ChEMBL_Kinases

>  <Ligand_Instance>  (407) 
nan

>  <PDB_ID>  (407) 
nan

>  <Standardized_SMILES>  (407) 
CNc1nc(Nc2ccc(C(=O)N3CCOCC3)cc2OCC2CC2)ncc1C(F)(F)F

>  <Name>  (407) 
nan

>  <Pocket>  (407) 
nan

>  <ATP_Site>  (407) 
nan

>  <Peripheral>  (407) 
nan

>  <Num_H_Atoms_ProtBoundConf>  (407) 
nan

>  <Num_Resolved_Atoms>  (407) 
nan

>  <Num_Not_Resolved_Atoms>  (407) 
nan

$$$$
CHEMBL3644707
     RDKit          3D

  0  0  0  0  0  0  0  0  0  0999 V3000
M  V30 BEGIN CTAB
M  V30 COUNTS 73 77 0 0 0
M  V30 BEGIN ATOM
M  V30 1 C 5.618898 -3.148357 -0.516986 0
M  V30 2 C 5.468435 -1.678417 -0.400683 0
M  V30 3 N 6.626291 -0.941106 -0.384975 0
M  V30 4 C 6.306971 0.360308 -0.309878 0
M  V30 5 C 7.127327 1.442308 -0.273646 0
M  V30 6 N 6.542853 2.650103 -0.206040 0
M  V30 7 C 5.198418 2.743731 -0.178548 0
M  V30 8 C 4.713926 4.029561 -0.129421 0
M  V30 9 C 3.342070 4.170061 -0.121833 0
M  V30 10 C 2.497878 3.080033 -0.161904 0
M  V30 11 C 1.085256 3.325717 -0.151276 0
M  V30 12 C -0.103410 3.511552 -0.146576 0
M  V30 13 C -1.567969 3.734756 -0.115588 0
M  V30 14 N -2.176728 2.426062 0.106557 0
M  V30 15 C -1.728648 1.886453 1.324565 0
M  V30 16 O -0.918062 2.713301 1.870529 0
M  V30 17 C -2.073460 0.614063 1.938650 0
M  V30 18 C -1.452535 0.366230 3.167064 0
M  V30 19 C -1.688512 -0.799576 3.858622 0
M  V30 20 C -2.543099 -1.724949 3.332304 0
M  V30 21 N -3.157612 -1.501568 2.136711 0
M  V30 22 C -4.020085 -2.511959 1.676498 0 CFG=1
M  V30 23 C -5.330605 -2.549786 2.477103 0
M  V30 24 C -4.382402 -2.584796 0.249303 0
M  V30 25 C -5.323883 -3.803336 0.143237 0
M  V30 26 C -5.505940 -4.071391 -1.333268 0
M  V30 27 C -5.213747 -2.859511 -2.188751 0
M  V30 28 C -3.744741 -2.431378 -2.077515 0
M  V30 29 C -3.258963 -2.879545 -0.696731 0
M  V30 30 C -2.908932 -0.372349 1.499282 0
M  V30 31 O -3.459631 -0.157417 0.414424 0
M  V30 32 C 3.087657 1.815725 -0.209910 0
M  V30 33 C 4.443333 1.618600 -0.217620 0
M  V30 34 C 4.925054 0.329296 -0.284178 0
M  V30 35 N 4.376252 -0.893610 -0.334823 0
M  V30 36 C 3.023273 -1.300381 -0.295353 0
M  V30 37 C 2.314706 -1.340082 -1.633289 0
M  V30 38 C 2.893385 -2.755223 0.244250 0
M  V30 39 H 5.289277 -3.740481 0.323890 0
M  V30 40 H 6.714411 -3.427900 -0.626858 0
M  V30 41 H 5.189339 -3.433860 -1.516786 0
M  V30 42 H 8.189762 1.336390 -0.297881 0
M  V30 43 H 5.348440 4.890825 -0.098123 0
M  V30 44 H 2.931606 5.168978 -0.083129 0
M  V30 45 H -1.801416 4.401980 0.715072 0
M  V30 46 H -1.881180 4.141866 -1.084986 0
M  V30 47 H -2.848451 1.858457 -0.453991 0
M  V30 48 H -0.770344 1.079528 3.610498 0
M  V30 49 H -1.190980 -0.957166 4.805218 0
M  V30 50 H -2.691705 -2.635513 3.929961 0
M  V30 51 H -3.548993 -3.510739 1.923276 0
M  V30 52 H -5.703658 -3.590810 2.582345 0
M  V30 53 H -6.106030 -1.929994 2.005398 0
M  V30 54 H -5.093581 -2.232473 3.533092 0
M  V30 55 H -5.063853 -1.756213 -0.106087 0
M  V30 56 H -6.290635 -3.571098 0.628128 0
M  V30 57 H -4.795711 -4.673100 0.582931 0
M  V30 58 H -6.542580 -4.353112 -1.530994 0
M  V30 59 H -4.865764 -4.900998 -1.687034 0
M  V30 60 H -5.439980 -3.164046 -3.233444 0
M  V30 61 H -5.905309 -2.034270 -1.954626 0
M  V30 62 H -3.687277 -1.345666 -2.206486 0
M  V30 63 H -3.215215 -2.950528 -2.900016 0
M  V30 64 H -2.281880 -2.491768 -0.426695 0
M  V30 65 H -3.115776 -3.993695 -0.817165 0
M  V30 66 H 2.339655 1.072860 -0.260450 0
M  V30 67 H 2.364876 -0.781477 0.440314 0
M  V30 68 H 2.377266 -2.369898 -2.091341 0
M  V30 69 H 1.233628 -1.152836 -1.552520 0
M  V30 70 H 2.816698 -0.695635 -2.397622 0
M  V30 71 H 3.107215 -3.469724 -0.542151 0
M  V30 72 H 3.361607 -2.877711 1.218758 0
M  V30 73 H 1.784255 -2.928925 0.462323 0
M  V30 END ATOM
M  V30 BEGIN BOND
M  V30 1 1 1 2
M  V30 2 2 2 3
M  V30 3 1 3 4
M  V30 4 2 4 5
M  V30 5 1 5 6
M  V30 6 2 6 7
M  V30 7 1 7 8
M  V30 8 2 8 9
M  V30 9 1 9 10
M  V30 10 1 10 11
M  V30 11 3 11 12
M  V30 12 1 12 13
M  V30 13 1 13 14
M  V30 14 1 14 15
M  V30 15 2 15 16
M  V30 16 1 15 17
M  V30 17 2 17 18
M  V30 18 1 18 19
M  V30 19 2 19 20
M  V30 20 1 20 21
M  V30 21 1 21 22
M  V30 22 1 22 23
M  V30 23 1 22 24
M  V30 24 1 24 25
M  V30 25 1 25 26
M  V30 26 1 26 27
M  V30 27 1 27 28
M  V30 28 1 28 29
M  V30 29 1 21 30
M  V30 30 2 30 31
M  V30 31 2 10 32
M  V30 32 1 32 33
M  V30 33 2 33 34
M  V30 34 1 34 35
M  V30 35 1 35 36
M  V30 36 1 36 37
M  V30 37 1 36 38
M  V30 38 1 35 2
M  V30 39 1 34 4
M  V30 40 1 33 7
M  V30 41 1 30 17
M  V30 42 1 29 24
M  V30 43 1 1 39
M  V30 44 1 1 40
M  V30 45 1 1 41
M  V30 46 1 5 42
M  V30 47 1 8 43
M  V30 48 1 9 44
M  V30 49 1 13 45
M  V30 50 1 13 46
M  V30 51 1 14 47
M  V30 52 1 18 48
M  V30 53 1 19 49
M  V30 54 1 20 50
M  V30 55 1 22 51 CFG=1
M  V30 56 1 23 52
M  V30 57 1 23 53
M  V30 58 1 23 54
M  V30 59 1 24 55
M  V30 60 1 25 56
M  V30 61 1 25 57
M  V30 62 1 26 58
M  V30 63 1 26 59
M  V30 64 1 27 60
M  V30 65 1 27 61
M  V30 66 1 28 62
M  V30 67 1 28 63
M  V30 68 1 29 64
M  V30 69 1 29 65
M  V30 70 1 32 66
M  V30 71 1 36 67
M  V30 72 1 37 68
M  V30 73 1 37 69
M  V30 74 1 37 70
M  V30 75 1 38 71
M  V30 76 1 38 72
M  V30 77 1 38 73
M  V30 END BOND
M  V30 END CTAB
M  END
>  <Dataset>  (408) 
ChEMBL_Kinases

>  <Ligand_Instance>  (408) 
nan

>  <PDB_ID>  (408) 
nan

>  <Standardized_SMILES>  (408) 
Cc1nc2cnc3ccc(C#CCNC(=O)c4cccn([C@@H](C)C5CCCCC5)c4=O)cc3c2n1C(C)C

>  <Name>  (408) 
nan

>  <Pocket>  (408) 
nan

>  <ATP_Site>  (408) 
nan

>  <Peripheral>  (408) 
nan

>  <Num_H_Atoms_ProtBoundConf>  (408) 
nan

>  <Num_Resolved_Atoms>  (408) 
nan

>  <Num_Not_Resolved_Atoms>  (408) 
nan

$$$$
CHEMBL3644706
     RDKit          3D

  0  0  0  0  0  0  0  0  0  0999 V3000
M  V30 BEGIN CTAB
M  V30 COUNTS 71 75 0 0 0
M  V30 BEGIN ATOM
M  V30 1 C 3.331407 -4.652803 3.317263 0
M  V30 2 C 1.866860 -4.852987 3.629145 0
M  V30 3 C 1.067618 -3.609617 3.632708 0
M  V30 4 C 0.509253 -2.928365 2.603018 0
M  V30 5 C 0.501511 -3.160365 1.179790 0
M  V30 6 O -0.335257 -2.590462 0.422212 0
M  V30 7 N 1.317100 -3.976022 0.360108 0
M  V30 8 C 0.950135 -3.941847 -1.040277 0
M  V30 9 C 0.936936 -2.606858 -1.618785 0
M  V30 10 C 0.913024 -1.506644 -2.114793 0
M  V30 11 C 0.861251 -0.171215 -2.733170 0
M  V30 12 C 1.933860 0.682491 -2.746429 0
M  V30 13 C 1.799675 1.944998 -3.334144 0
M  V30 14 C 0.578274 2.236751 -3.864293 0
M  V30 15 N 0.490671 3.473734 -4.378292 0
M  V30 16 C -0.657492 3.954877 -4.920849 0
M  V30 17 C -1.715926 3.092867 -4.911646 0
M  V30 18 N -2.977544 3.253210 -5.365927 0
M  V30 19 C -3.683587 2.103921 -5.135908 0
M  V30 20 C -5.095426 2.195965 -5.569308 0
M  V30 21 N -2.931234 1.164990 -4.537611 0
M  V30 22 C -3.322285 -0.155185 -4.207161 0
M  V30 23 C -3.819979 -0.365774 -2.794496 0
M  V30 24 C -4.500480 -0.625465 -5.109257 0
M  V30 25 C -1.758948 1.806197 -4.420605 0
M  V30 26 C -0.538973 1.456221 -3.901044 0
M  V30 27 C -0.339359 0.194578 -3.288409 0
M  V30 28 C -0.116313 -1.833732 3.165485 0
M  V30 29 O -0.758437 -0.943519 2.534755 0
M  V30 30 N 0.092447 -1.900857 4.504710 0
M  V30 31 C -0.439952 -0.863432 5.398263 0
M  V30 32 C 0.568547 0.219202 5.573812 0
M  V30 33 C 0.687667 1.309505 4.740566 0
M  V30 34 C 1.631597 2.300746 4.918864 0
M  V30 35 C 2.506362 2.203149 5.990560 0
M  V30 36 F 3.431231 3.170329 6.158355 0
M  V30 37 C 2.385555 1.120995 6.820798 0
M  V30 38 F 3.273329 1.071950 7.865812 0
M  V30 39 C 1.444505 0.123005 6.648300 0
M  V30 40 N 0.805370 -2.971705 4.803262 0
M  V30 41 C 1.223266 -3.377020 6.160333 0
M  V30 42 H 3.688255 -5.580099 2.813099 0
M  V30 43 H 3.532618 -3.753649 2.701070 0
M  V30 44 H 3.916258 -4.619616 4.273647 0
M  V30 45 H 1.790300 -5.401668 4.595566 0
M  V30 46 H 1.458719 -5.546694 2.829591 0
M  V30 47 H 2.079087 -4.515146 0.813953 0
M  V30 48 H -0.039392 -4.437540 -1.231194 0
M  V30 49 H 1.768201 -4.499976 -1.589772 0
M  V30 50 H 2.852828 0.351735 -2.307362 0
M  V30 51 H 2.645345 2.599016 -3.328862 0
M  V30 52 H -0.780254 4.938377 -5.340262 0
M  V30 53 H -5.740426 1.552671 -4.941047 0
M  V30 54 H -5.240550 2.084041 -6.651827 0
M  V30 55 H -5.521669 3.239784 -5.362093 0
M  V30 56 H -2.579038 -0.962010 -4.450692 0
M  V30 57 H -3.383776 -1.315204 -2.358620 0
M  V30 58 H -3.653225 0.519266 -2.133380 0
M  V30 59 H -4.923146 -0.548850 -2.738503 0
M  V30 60 H -5.420159 -0.663615 -4.521175 0
M  V30 61 H -4.524221 -0.107726 -6.071593 0
M  V30 62 H -4.335014 -1.716547 -5.402141 0
M  V30 63 H -1.106824 -0.515189 -3.207620 0
M  V30 64 H -1.324514 -0.401374 4.941858 0
M  V30 65 H -0.661216 -1.308382 6.377131 0
M  V30 66 H -0.003124 1.348551 3.925194 0
M  V30 67 H 1.709378 3.145607 4.264809 0
M  V30 68 H 1.453028 -0.665303 7.374752 0
M  V30 69 H 2.260601 -3.079140 6.375142 0
M  V30 70 H 0.567379 -2.853461 6.878231 0
M  V30 71 H 1.035564 -4.463100 6.305988 0
M  V30 END ATOM
M  V30 BEGIN BOND
M  V30 1 1 1 2
M  V30 2 1 2 3
M  V30 3 2 3 4
M  V30 4 1 4 5
M  V30 5 2 5 6
M  V30 6 1 5 7
M  V30 7 1 7 8
M  V30 8 1 8 9
M  V30 9 3 9 10
M  V30 10 1 10 11
M  V30 11 2 11 12
M  V30 12 1 12 13
M  V30 13 2 13 14
M  V30 14 1 14 15
M  V30 15 2 15 16
M  V30 16 1 16 17
M  V30 17 1 17 18
M  V30 18 2 18 19
M  V30 19 1 19 20
M  V30 20 1 19 21
M  V30 21 1 21 22
M  V30 22 1 22 23
M  V30 23 1 22 24
M  V30 24 1 21 25
M  V30 25 1 25 26
M  V30 26 2 26 27
M  V30 27 1 4 28
M  V30 28 2 28 29
M  V30 29 1 28 30
M  V30 30 1 30 31
M  V30 31 1 31 32
M  V30 32 2 32 33
M  V30 33 1 33 34
M  V30 34 2 34 35
M  V30 35 1 35 36
M  V30 36 1 35 37
M  V30 37 1 37 38
M  V30 38 2 37 39
M  V30 39 1 30 40
M  V30 40 1 40 41
M  V30 41 1 40 3
M  V30 42 1 27 11
M  V30 43 1 39 32
M  V30 44 1 26 14
M  V30 45 2 25 17
M  V30 46 1 1 42
M  V30 47 1 1 43
M  V30 48 1 1 44
M  V30 49 1 2 45
M  V30 50 1 2 46
M  V30 51 1 7 47
M  V30 52 1 8 48
M  V30 53 1 8 49
M  V30 54 1 12 50
M  V30 55 1 13 51
M  V30 56 1 16 52
M  V30 57 1 20 53
M  V30 58 1 20 54
M  V30 59 1 20 55
M  V30 60 1 22 56
M  V30 61 1 23 57
M  V30 62 1 23 58
M  V30 63 1 23 59
M  V30 64 1 24 60
M  V30 65 1 24 61
M  V30 66 1 24 62
M  V30 67 1 27 63
M  V30 68 1 31 64
M  V30 69 1 31 65
M  V30 70 1 33 66
M  V30 71 1 34 67
M  V30 72 1 39 68
M  V30 73 1 41 69
M  V30 74 1 41 70
M  V30 75 1 41 71
M  V30 END BOND
M  V30 END CTAB
M  END
>  <Dataset>  (409) 
ChEMBL_Kinases

>  <Ligand_Instance>  (409) 
nan

>  <PDB_ID>  (409) 
nan

>  <Standardized_SMILES>  (409) 
CCc1c(C(=O)NCC#Cc2ccc3ncc4nc(C)n(C(C)C)c4c3c2)c(=O)n(Cc2ccc(F)c(F)c2)n1C

>  <Name>  (409) 
nan

>  <Pocket>  (409) 
nan

>  <ATP_Site>  (409) 
nan

>  <Peripheral>  (409) 
nan

>  <Num_H_Atoms_ProtBoundConf>  (409) 
nan

>  <Num_Resolved_Atoms>  (409) 
nan

>  <Num_Not_Resolved_Atoms>  (409) 
nan

$$$$
CHEMBL3644705
     RDKit          3D

  0  0  0  0  0  0  0  0  0  0999 V3000
M  V30 BEGIN CTAB
M  V30 COUNTS 69 73 0 0 0
M  V30 BEGIN ATOM
M  V30 1 C 6.811399 -1.324770 2.281744 0
M  V30 2 C 5.496959 -1.163189 1.663076 0
M  V30 3 C 5.145472 -1.873472 0.539256 0
M  V30 4 C 3.888537 -1.673988 0.029823 0
M  V30 5 C 3.604814 -2.458680 -1.142898 0
M  V30 6 O 4.460937 -3.266761 -1.666467 0
M  V30 7 N 2.528032 -2.607720 -1.974635 0
M  V30 8 C 1.721557 -3.088091 -3.072525 0
M  V30 9 C 0.375190 -2.550768 -3.130756 0
M  V30 10 C -0.739439 -2.087992 -3.181563 0
M  V30 11 C -2.085066 -1.553182 -3.234286 0
M  V30 12 C -2.587422 -1.024676 -4.398033 0
M  V30 13 C -3.871830 -0.506891 -4.477842 0
M  V30 14 C -4.601278 -0.559418 -3.322966 0
M  V30 15 N -5.863931 -0.063342 -3.473053 0
M  V30 16 C -6.700237 -0.085346 -2.384630 0
M  V30 17 C -6.194438 -0.608611 -1.222031 0
M  V30 18 N -6.857519 -0.729516 -0.064921 0
M  V30 19 C -5.995990 -1.306916 0.828320 0
M  V30 20 C -6.468585 -1.598415 2.205353 0
M  V30 21 N -4.790459 -1.563039 0.283667 0
M  V30 22 C -3.614068 -2.116182 0.878155 0
M  V30 23 C -3.567398 -3.619910 0.706821 0
M  V30 24 C -3.618786 -1.917495 2.424736 0
M  V30 25 C -4.955516 -1.119875 -0.987972 0
M  V30 26 C -4.186634 -1.063238 -2.122732 0
M  V30 27 C -2.913813 -1.560594 -2.098976 0
M  V30 28 C 3.075483 -0.777954 0.682418 0
M  V30 29 O 1.942067 -0.588210 0.240223 0
M  V30 30 N 3.417948 -0.081478 1.781346 0
M  V30 31 C 2.482368 0.823737 2.390604 0 CFG=1
M  V30 32 C 2.114975 0.385846 3.802409 0
M  V30 33 C 2.916040 2.232753 2.371570 0
M  V30 34 C 2.520481 3.076367 1.330919 0
M  V30 35 C 2.863364 4.431740 1.216272 0
M  V30 36 C 3.656734 4.989295 2.204944 0
M  V30 37 F 4.005465 6.287085 2.130344 0
M  V30 38 C 4.081581 4.196409 3.262655 0
M  V30 39 F 4.844301 4.775287 4.210001 0
M  V30 40 C 3.694412 2.889757 3.290000 0
M  V30 41 N 4.652460 -0.303829 2.246626 0
M  V30 42 H 6.802503 -1.983983 3.181638 0
M  V30 43 H 7.520996 -1.767677 1.576285 0
M  V30 44 H 7.212969 -0.347060 2.624529 0
M  V30 45 H 5.877513 -2.549328 0.114011 0
M  V30 46 H 1.822245 -1.936351 -1.522782 0
M  V30 47 H 2.193351 -2.805291 -4.061696 0
M  V30 48 H 1.681763 -4.210513 -3.024410 0
M  V30 49 H -1.972992 -1.012353 -5.299987 0
M  V30 50 H -4.214794 -0.103573 -5.415992 0
M  V30 51 H -7.702408 0.300530 -2.486046 0
M  V30 52 H -6.013025 -1.018401 2.999097 0
M  V30 53 H -7.572156 -1.329225 2.272242 0
M  V30 54 H -6.490914 -2.692225 2.429222 0
M  V30 55 H -2.665800 -1.588444 0.641258 0
M  V30 56 H -3.958088 -3.902465 -0.298480 0
M  V30 57 H -2.496452 -3.915628 0.717408 0
M  V30 58 H -4.055634 -4.159521 1.525674 0
M  V30 59 H -2.572194 -2.190340 2.794362 0
M  V30 60 H -4.265450 -2.642906 2.895659 0
M  V30 61 H -3.723347 -0.874465 2.684550 0
M  V30 62 H -2.444150 -2.004261 -1.281312 0
M  V30 63 H 1.515425 0.772852 1.811986 0
M  V30 64 H 1.154109 0.857777 4.053551 0
M  V30 65 H 1.953642 -0.706966 3.730539 0
M  V30 66 H 2.856430 0.678191 4.551593 0
M  V30 67 H 1.899878 2.730950 0.512240 0
M  V30 68 H 2.534978 5.043899 0.395890 0
M  V30 69 H 4.042269 2.306274 4.138307 0
M  V30 END ATOM
M  V30 BEGIN BOND
M  V30 1 1 1 2
M  V30 2 1 2 3
M  V30 3 2 3 4
M  V30 4 1 4 5
M  V30 5 2 5 6
M  V30 6 1 5 7
M  V30 7 1 7 8
M  V30 8 1 8 9
M  V30 9 3 9 10
M  V30 10 1 10 11
M  V30 11 2 11 12
M  V30 12 1 12 13
M  V30 13 2 13 14
M  V30 14 1 14 15
M  V30 15 2 15 16
M  V30 16 1 16 17
M  V30 17 1 17 18
M  V30 18 2 18 19
M  V30 19 1 19 20
M  V30 20 1 19 21
M  V30 21 1 21 22
M  V30 22 1 22 23
M  V30 23 1 22 24
M  V30 24 1 21 25
M  V30 25 1 25 26
M  V30 26 2 26 27
M  V30 27 1 4 28
M  V30 28 2 28 29
M  V30 29 1 28 30
M  V30 30 1 30 31
M  V30 31 1 31 32
M  V30 32 1 31 33
M  V30 33 2 33 34
M  V30 34 1 34 35
M  V30 35 2 35 36
M  V30 36 1 36 37
M  V30 37 1 36 38
M  V30 38 1 38 39
M  V30 39 2 38 40
M  V30 40 1 30 41
M  V30 41 2 41 2
M  V30 42 1 27 11
M  V30 43 1 40 33
M  V30 44 1 26 14
M  V30 45 2 25 17
M  V30 46 1 1 42
M  V30 47 1 1 43
M  V30 48 1 1 44
M  V30 49 1 3 45
M  V30 50 1 7 46
M  V30 51 1 8 47
M  V30 52 1 8 48
M  V30 53 1 12 49
M  V30 54 1 13 50
M  V30 55 1 16 51
M  V30 56 1 20 52
M  V30 57 1 20 53
M  V30 58 1 20 54
M  V30 59 1 22 55
M  V30 60 1 23 56
M  V30 61 1 23 57
M  V30 62 1 23 58
M  V30 63 1 24 59
M  V30 64 1 24 60
M  V30 65 1 24 61
M  V30 66 1 27 62
M  V30 67 1 31 63 CFG=3
M  V30 68 1 32 64
M  V30 69 1 32 65
M  V30 70 1 32 66
M  V30 71 1 34 67
M  V30 72 1 35 68
M  V30 73 1 40 69
M  V30 END BOND
M  V30 END CTAB
M  END
>  <Dataset>  (410) 
ChEMBL_Kinases

>  <Ligand_Instance>  (410) 
nan

>  <PDB_ID>  (410) 
nan

>  <Standardized_SMILES>  (410) 
Cc1cc(C(=O)NCC#Cc2ccc3ncc4nc(C)n(C(C)C)c4c3c2)c(=O)n([C@@H](C)c2ccc(F)c(F)c2)n1

>  <Name>  (410) 
nan

>  <Pocket>  (410) 
nan

>  <ATP_Site>  (410) 
nan

>  <Peripheral>  (410) 
nan

>  <Num_H_Atoms_ProtBoundConf>  (410) 
nan

>  <Num_Resolved_Atoms>  (410) 
nan

>  <Num_Not_Resolved_Atoms>  (410) 
nan

$$$$
CHEMBL3644704
     RDKit          3D

  0  0  0  0  0  0  0  0  0  0999 V3000
M  V30 BEGIN CTAB
M  V30 COUNTS 63 67 0 0 0
M  V30 BEGIN ATOM
M  V30 1 C 0.785680 -1.373686 5.267675 0
M  V30 2 C 1.366541 -0.275975 4.489803 0
M  V30 3 N 2.194921 0.597678 5.164554 0
M  V30 4 C 2.629708 1.509147 4.279378 0
M  V30 5 C 3.475551 2.567592 4.493250 0
M  V30 6 N 3.787914 3.357691 3.462600 0
M  V30 7 C 3.281820 3.121471 2.229313 0
M  V30 8 C 3.638567 3.945591 1.180887 0
M  V30 9 C 3.144090 3.693586 -0.055640 0
M  V30 10 C 2.303251 2.633246 -0.255291 0
M  V30 11 C 1.833586 2.413783 -1.591396 0
M  V30 12 C 1.454189 2.215475 -2.715373 0
M  V30 13 C 0.993716 1.999028 -4.078446 0
M  V30 14 N 0.603877 0.623169 -4.336492 0
M  V30 15 C -0.437330 0.177297 -3.567471 0
M  V30 16 O -1.012595 0.926003 -2.699226 0
M  V30 17 C -1.390109 -0.744170 -3.094535 0
M  V30 18 C -0.751772 -1.773906 -4.004579 0
M  V30 19 N -1.034653 -3.118987 -4.249753 0
M  V30 20 C -2.089559 -3.658672 -3.554568 0
M  V30 21 N -2.721016 -2.823315 -2.720518 0
M  V30 22 C -3.864416 -3.139295 -1.907403 0
M  V30 23 C -3.550590 -3.644192 -0.549143 0
M  V30 24 C -3.269641 -5.016286 -0.557293 0
M  V30 25 C -2.980428 -5.648609 0.635492 0
M  V30 26 C -2.970466 -4.927119 1.818641 0
M  V30 27 F -2.696681 -5.462838 3.054475 0
M  V30 28 C -3.254499 -3.568927 1.782646 0
M  V30 29 F -3.259720 -2.803357 2.921024 0
M  V30 30 C -3.547205 -2.904208 0.611323 0
M  V30 31 C -2.263150 -1.593501 -2.663309 0
M  V30 32 O -2.744776 -0.638250 -1.911601 0
M  V30 33 C 1.982341 1.840306 0.844363 0
M  V30 34 C 2.454906 2.051810 2.121698 0
M  V30 35 C 2.036787 1.155700 3.056849 0
M  V30 36 N 1.271769 0.073588 3.197175 0
M  V30 37 C 0.498308 -0.536980 2.181121 0
M  V30 38 C -0.064376 -1.920831 2.585555 0
M  V30 39 C -0.807741 0.254917 1.920126 0
M  V30 40 H -0.255246 -1.219955 5.610708 0
M  V30 41 H 1.342098 -1.487241 6.257595 0
M  V30 42 H 0.965067 -2.400216 4.829371 0
M  V30 43 H 3.879066 2.754260 5.483121 0
M  V30 44 H 4.318093 4.775353 1.431063 0
M  V30 45 H 3.457757 4.372684 -0.832325 0
M  V30 46 H 1.789997 2.239447 -4.806937 0
M  V30 47 H 0.159295 2.701615 -4.326411 0
M  V30 48 H 0.844647 -0.187403 -4.931284 0
M  V30 49 H 0.094376 -1.916642 -4.769513 0
M  V30 50 H -2.569837 -4.619242 -3.492706 0
M  V30 51 H -4.455387 -3.897595 -2.496388 0
M  V30 52 H -4.535123 -2.256813 -1.748850 0
M  V30 53 H -3.244641 -5.679424 -1.394353 0
M  V30 54 H -2.746313 -6.700518 0.785289 0
M  V30 55 H -3.779639 -1.857927 0.483649 0
M  V30 56 H 1.332678 1.066990 0.527367 0
M  V30 57 H 1.010658 -0.826222 1.248906 0
M  V30 58 H -0.749747 -1.841262 3.412091 0
M  V30 59 H 0.662495 -2.715756 2.535909 0
M  V30 60 H -0.756657 -2.144085 1.693202 0
M  V30 61 H -1.546853 0.018744 2.738613 0
M  V30 62 H -1.281639 -0.046475 0.981074 0
M  V30 63 H -0.617409 1.351141 2.015192 0
M  V30 END ATOM
M  V30 BEGIN BOND
M  V30 1 1 1 2
M  V30 2 2 2 3
M  V30 3 1 3 4
M  V30 4 2 4 5
M  V30 5 1 5 6
M  V30 6 2 6 7
M  V30 7 1 7 8
M  V30 8 2 8 9
M  V30 9 1 9 10
M  V30 10 1 10 11
M  V30 11 3 11 12
M  V30 12 1 12 13
M  V30 13 1 13 14
M  V30 14 1 14 15
M  V30 15 2 15 16
M  V30 16 1 15 17
M  V30 17 2 17 18
M  V30 18 1 18 19
M  V30 19 2 19 20
M  V30 20 1 20 21
M  V30 21 1 21 22
M  V30 22 1 22 23
M  V30 23 2 23 24
M  V30 24 1 24 25
M  V30 25 2 25 26
M  V30 26 1 26 27
M  V30 27 1 26 28
M  V30 28 1 28 29
M  V30 29 2 28 30
M  V30 30 1 21 31
M  V30 31 2 31 32
M  V30 32 2 10 33
M  V30 33 1 33 34
M  V30 34 2 34 35
M  V30 35 1 35 36
M  V30 36 1 36 37
M  V30 37 1 37 38
M  V30 38 1 37 39
M  V30 39 1 36 2
M  V30 40 1 35 4
M  V30 41 1 34 7
M  V30 42 1 31 17
M  V30 43 1 30 23
M  V30 44 1 1 40
M  V30 45 1 1 41
M  V30 46 1 1 42
M  V30 47 1 5 43
M  V30 48 1 8 44
M  V30 49 1 9 45
M  V30 50 1 13 46
M  V30 51 1 13 47
M  V30 52 1 14 48
M  V30 53 1 18 49
M  V30 54 1 20 50
M  V30 55 1 22 51
M  V30 56 1 22 52
M  V30 57 1 24 53
M  V30 58 1 25 54
M  V30 59 1 30 55
M  V30 60 1 33 56
M  V30 61 1 37 57
M  V30 62 1 38 58
M  V30 63 1 38 59
M  V30 64 1 38 60
M  V30 65 1 39 61
M  V30 66 1 39 62
M  V30 67 1 39 63
M  V30 END BOND
M  V30 END CTAB
M  END
>  <Dataset>  (411) 
ChEMBL_Kinases

>  <Ligand_Instance>  (411) 
nan

>  <PDB_ID>  (411) 
nan

>  <Standardized_SMILES>  (411) 
Cc1nc2cnc3ccc(C#CCNC(=O)c4cncn(Cc5ccc(F)c(F)c5)c4=O)cc3c2n1C(C)C

>  <Name>  (411) 
nan

>  <Pocket>  (411) 
nan

>  <ATP_Site>  (411) 
nan

>  <Peripheral>  (411) 
nan

>  <Num_H_Atoms_ProtBoundConf>  (411) 
nan

>  <Num_Resolved_Atoms>  (411) 
nan

>  <Num_Not_Resolved_Atoms>  (411) 
nan

$$$$
CHEMBL3644703
     RDKit          3D

  0  0  0  0  0  0  0  0  0  0999 V3000
M  V30 BEGIN CTAB
M  V30 COUNTS 68 72 0 0 0
M  V30 BEGIN ATOM
M  V30 1 C 2.795178 -0.198712 5.542651 0
M  V30 2 C 3.411427 0.197676 4.228380 0
M  V30 3 N 4.776027 0.096134 4.166302 0
M  V30 4 C 5.113987 0.483185 2.932514 0
M  V30 5 C 6.334049 0.583432 2.320731 0
M  V30 6 N 6.429347 1.010188 1.038970 0
M  V30 7 C 5.276951 1.338780 0.376874 0
M  V30 8 C 5.455196 1.761207 -0.910445 0
M  V30 9 C 4.305744 2.094941 -1.594317 0
M  V30 10 C 3.042782 2.020144 -1.046193 0
M  V30 11 C 1.863558 2.386349 -1.796808 0
M  V30 12 C 0.847982 2.694614 -2.417886 0
M  V30 13 C -0.385314 3.079970 -3.146299 0
M  V30 14 N -1.537471 2.432940 -2.478804 0
M  V30 15 C -1.498339 1.061677 -2.513989 0
M  V30 16 O -0.635465 0.307175 -3.049031 0
M  V30 17 C -2.036483 -0.199333 -2.197435 0
M  V30 18 C -3.046773 0.458763 -1.287121 0
M  V30 19 C -4.078104 -0.125471 -0.489735 0
M  V30 20 C -4.190197 -1.536952 -0.543934 0
M  V30 21 N -3.304021 -2.193801 -1.350817 0
M  V30 22 C -3.228190 -3.608350 -1.561416 0 CFG=2
M  V30 23 C -4.354322 -4.104619 -2.460478 0
M  V30 24 O -4.184216 -5.472592 -2.587918 0
M  V30 25 C -3.295775 -4.359642 -0.270318 0
M  V30 26 C -2.094025 -4.675337 0.375238 0
M  V30 27 C -2.212270 -5.365566 1.557048 0
M  V30 28 C -3.386256 -5.773797 2.163178 0
M  V30 29 F -3.395797 -6.452877 3.340825 0
M  V30 30 C -4.560347 -5.441351 1.490936 0
M  V30 31 F -5.767152 -5.805506 2.025842 0
M  V30 32 C -4.501354 -4.746729 0.297939 0
M  V30 33 C -2.529537 -1.340804 -1.907041 0
M  V30 34 O -1.624734 -1.874186 -2.717612 0
M  V30 35 C 2.989933 1.573349 0.282722 0
M  V30 36 C 4.080014 1.222644 1.030458 0
M  V30 37 C 3.921313 0.802915 2.305954 0
M  V30 38 N 2.830243 0.647779 3.057207 0
M  V30 39 C 1.412840 0.844265 2.890643 0
M  V30 40 C 0.946831 2.276595 2.825068 0
M  V30 41 C 0.661673 -0.144823 2.065132 0
M  V30 42 H 2.819287 0.654538 6.271460 0
M  V30 43 H 3.316628 -1.106148 5.954496 0
M  V30 44 H 1.749135 -0.529119 5.402427 0
M  V30 45 H 7.249086 0.330119 2.821768 0
M  V30 46 H 6.421278 1.828855 -1.357100 0
M  V30 47 H 4.421093 2.432140 -2.616185 0
M  V30 48 H -0.589130 4.143634 -3.113218 0
M  V30 49 H -0.288672 2.697173 -4.157915 0
M  V30 50 H -2.400535 2.701334 -1.979414 0
M  V30 51 H -3.363583 1.502123 -0.905711 0
M  V30 52 H -4.881299 0.178431 0.211536 0
M  V30 53 H -4.888745 -2.200968 -0.031587 0
M  V30 54 H -2.279802 -3.908036 -2.046348 0
M  V30 55 H -4.247365 -3.645218 -3.459947 0
M  V30 56 H -5.351569 -3.824944 -2.071054 0
M  V30 57 H -3.972001 -5.681510 -3.529579 0
M  V30 58 H -1.147638 -4.386028 -0.055526 0
M  V30 59 H -1.261054 -5.595587 2.026740 0
M  V30 60 H -5.431023 -4.522806 -0.170202 0
M  V30 61 H 1.974722 1.566100 0.566138 0
M  V30 62 H 1.004072 0.584070 3.943943 0
M  V30 63 H 0.223898 2.363013 1.986785 0
M  V30 64 H 1.797243 2.974672 2.591954 0
M  V30 65 H 0.445092 2.670435 3.702231 0
M  V30 66 H 0.096387 0.309182 1.199271 0
M  V30 67 H -0.182913 -0.670303 2.609563 0
M  V30 68 H 1.301250 -1.000290 1.753229 0
M  V30 END ATOM
M  V30 BEGIN BOND
M  V30 1 1 1 2
M  V30 2 2 2 3
M  V30 3 1 3 4
M  V30 4 2 4 5
M  V30 5 1 5 6
M  V30 6 2 6 7
M  V30 7 1 7 8
M  V30 8 2 8 9
M  V30 9 1 9 10
M  V30 10 1 10 11
M  V30 11 3 11 12
M  V30 12 1 12 13
M  V30 13 1 13 14
M  V30 14 1 14 15
M  V30 15 2 15 16
M  V30 16 1 15 17
M  V30 17 2 17 18
M  V30 18 1 18 19
M  V30 19 2 19 20
M  V30 20 1 20 21
M  V30 21 1 21 22
M  V30 22 1 22 23
M  V30 23 1 23 24
M  V30 24 1 22 25
M  V30 25 2 25 26
M  V30 26 1 26 27
M  V30 27 2 27 28
M  V30 28 1 28 29
M  V30 29 1 28 30
M  V30 30 1 30 31
M  V30 31 2 30 32
M  V30 32 1 21 33
M  V30 33 2 33 34
M  V30 34 2 10 35
M  V30 35 1 35 36
M  V30 36 2 36 37
M  V30 37 1 37 38
M  V30 38 1 38 39
M  V30 39 1 39 40
M  V30 40 1 39 41
M  V30 41 1 38 2
M  V30 42 1 37 4
M  V30 43 1 36 7
M  V30 44 1 33 17
M  V30 45 1 32 25
M  V30 46 1 1 42
M  V30 47 1 1 43
M  V30 48 1 1 44
M  V30 49 1 5 45
M  V30 50 1 8 46
M  V30 51 1 9 47
M  V30 52 1 13 48
M  V30 53 1 13 49
M  V30 54 1 14 50
M  V30 55 1 18 51
M  V30 56 1 19 52
M  V30 57 1 20 53
M  V30 58 1 22 54 CFG=3
M  V30 59 1 23 55
M  V30 60 1 23 56
M  V30 61 1 24 57
M  V30 62 1 26 58
M  V30 63 1 27 59
M  V30 64 1 32 60
M  V30 65 1 35 61
M  V30 66 1 39 62
M  V30 67 1 40 63
M  V30 68 1 40 64
M  V30 69 1 40 65
M  V30 70 1 41 66
M  V30 71 1 41 67
M  V30 72 1 41 68
M  V30 END BOND
M  V30 END CTAB
M  END
>  <Dataset>  (412) 
ChEMBL_Kinases

>  <Ligand_Instance>  (412) 
nan

>  <PDB_ID>  (412) 
nan

>  <Standardized_SMILES>  (412) 
Cc1nc2cnc3ccc(C#CCNC(=O)c4cccn([C@H](CO)c5ccc(F)c(F)c5)c4=O)cc3c2n1C(C)C

>  <Name>  (412) 
nan

>  <Pocket>  (412) 
nan

>  <ATP_Site>  (412) 
nan

>  <Peripheral>  (412) 
nan

>  <Num_H_Atoms_ProtBoundConf>  (412) 
nan

>  <Num_Resolved_Atoms>  (412) 
nan

>  <Num_Not_Resolved_Atoms>  (412) 
nan

$$$$
CHEMBL3644702
     RDKit          3D

  0  0  0  0  0  0  0  0  0  0999 V3000
M  V30 BEGIN CTAB
M  V30 COUNTS 73 77 0 0 0
M  V30 BEGIN ATOM
M  V30 1 C 6.935696 -1.816861 -0.905072 0
M  V30 2 C 6.442116 -0.421470 -0.950101 0
M  V30 3 N 7.242535 0.556264 -1.486079 0
M  V30 4 C 6.583300 1.722749 -1.450570 0
M  V30 5 C 6.998810 2.937606 -1.878859 0
M  V30 6 N 6.147149 3.967110 -1.742755 0
M  V30 7 C 4.933418 3.755622 -1.196468 0
M  V30 8 C 4.132970 4.874258 -1.121979 0
M  V30 9 C 2.873443 4.706637 -0.589997 0
M  V30 10 C 2.440055 3.470786 -0.153895 0
M  V30 11 C 1.112575 3.388157 0.382231 0
M  V30 12 C 0.003325 3.302671 0.844767 0
M  V30 13 C -1.346291 3.195898 1.425444 0
M  V30 14 N -2.027451 1.974128 0.979701 0
M  V30 15 C -1.287851 0.829587 1.374544 0
M  V30 16 O -0.240142 1.202185 2.005683 0
M  V30 17 C -1.589183 -0.571586 1.146349 0
M  V30 18 C -0.658229 -1.480659 1.659422 0
M  V30 19 C -0.828897 -2.819337 1.506979 0
M  V30 20 C -1.934764 -3.298110 0.837053 0
M  V30 21 N -2.866937 -2.442157 0.321234 0
M  V30 22 C -4.013799 -2.925473 -0.371880 0 CFG=2
M  V30 23 C -4.291705 -2.145607 -1.627307 0
M  V30 24 C -5.264202 -2.952721 0.476282 0
M  V30 25 C -6.412503 -3.481859 -0.358273 0
M  V30 26 C -7.315073 -4.351866 0.477390 0
M  V30 27 C -7.516705 -3.835673 1.868009 0
M  V30 28 C -6.240638 -3.538734 2.612089 0
M  V30 29 C -5.108189 -3.870494 1.653453 0
M  V30 30 C -2.642753 -1.146427 0.503541 0
M  V30 31 O -3.485653 -0.360580 0.037614 0
M  V30 32 C 3.322116 2.399267 -0.270019 0
M  V30 33 C 4.586017 2.503581 -0.788167 0
M  V30 34 C 5.375995 1.379573 -0.875371 0
M  V30 35 N 5.238679 0.083246 -0.548246 0
M  V30 36 C 4.147836 -0.586469 0.080549 0
M  V30 37 C 3.073791 -1.079273 -0.850152 0
M  V30 38 C 4.654572 -1.876060 0.785424 0
M  V30 39 H 6.370166 -2.482306 -1.598244 0
M  V30 40 H 7.119026 -2.226362 0.093095 0
M  V30 41 H 7.972684 -1.824386 -1.373600 0
M  V30 42 H 7.962695 3.088002 -2.310259 0
M  V30 43 H 4.460782 5.845066 -1.459430 0
M  V30 44 H 2.227290 5.568545 -0.520798 0
M  V30 45 H -1.255198 3.232557 2.526158 0
M  V30 46 H -1.924328 4.055745 1.006595 0
M  V30 47 H -2.909357 1.810055 0.453814 0
M  V30 48 H 0.236828 -1.139479 2.199919 0
M  V30 49 H -0.099736 -3.504494 1.909986 0
M  V30 50 H -2.084930 -4.368070 0.706609 0
M  V30 51 H -3.823753 -4.009777 -0.629267 0
M  V30 52 H -3.320409 -1.730027 -1.979126 0
M  V30 53 H -5.010207 -1.317543 -1.454727 0
M  V30 54 H -4.757965 -2.796244 -2.410469 0
M  V30 55 H -5.576838 -1.915519 0.790459 0
M  V30 56 H -7.016755 -2.641712 -0.784079 0
M  V30 57 H -6.030910 -4.096852 -1.221107 0
M  V30 58 H -7.022810 -5.411869 0.423865 0
M  V30 59 H -8.330943 -4.309253 -0.010381 0
M  V30 60 H -8.068685 -4.633628 2.424805 0
M  V30 61 H -8.214183 -2.969481 1.859155 0
M  V30 62 H -6.184460 -2.443027 2.775552 0
M  V30 63 H -6.148530 -4.043772 3.577317 0
M  V30 64 H -5.261733 -4.923103 1.329264 0
M  V30 65 H -4.117227 -3.800058 2.134231 0
M  V30 66 H 2.866713 1.511136 0.076631 0
M  V30 67 H 3.746663 -0.052575 0.999935 0
M  V30 68 H 2.946302 -2.178932 -0.875029 0
M  V30 69 H 2.063805 -0.673388 -0.566272 0
M  V30 70 H 3.305053 -0.812682 -1.921471 0
M  V30 71 H 5.408732 -1.673804 1.530006 0
M  V30 72 H 3.744615 -2.222631 1.388924 0
M  V30 73 H 4.794902 -2.663669 0.058497 0
M  V30 END ATOM
M  V30 BEGIN BOND
M  V30 1 1 1 2
M  V30 2 2 2 3
M  V30 3 1 3 4
M  V30 4 2 4 5
M  V30 5 1 5 6
M  V30 6 2 6 7
M  V30 7 1 7 8
M  V30 8 2 8 9
M  V30 9 1 9 10
M  V30 10 1 10 11
M  V30 11 3 11 12
M  V30 12 1 12 13
M  V30 13 1 13 14
M  V30 14 1 14 15
M  V30 15 2 15 16
M  V30 16 1 15 17
M  V30 17 2 17 18
M  V30 18 1 18 19
M  V30 19 2 19 20
M  V30 20 1 20 21
M  V30 21 1 21 22
M  V30 22 1 22 23
M  V30 23 1 22 24
M  V30 24 1 24 25
M  V30 25 1 25 26
M  V30 26 1 26 27
M  V30 27 1 27 28
M  V30 28 1 28 29
M  V30 29 1 21 30
M  V30 30 2 30 31
M  V30 31 2 10 32
M  V30 32 1 32 33
M  V30 33 2 33 34
M  V30 34 1 34 35
M  V30 35 1 35 36
M  V30 36 1 36 37
M  V30 37 1 36 38
M  V30 38 1 35 2
M  V30 39 1 34 4
M  V30 40 1 33 7
M  V30 41 1 30 17
M  V30 42 1 29 24
M  V30 43 1 1 39
M  V30 44 1 1 40
M  V30 45 1 1 41
M  V30 46 1 5 42
M  V30 47 1 8 43
M  V30 48 1 9 44
M  V30 49 1 13 45
M  V30 50 1 13 46
M  V30 51 1 14 47
M  V30 52 1 18 48
M  V30 53 1 19 49
M  V30 54 1 20 50
M  V30 55 1 22 51 CFG=3
M  V30 56 1 23 52
M  V30 57 1 23 53
M  V30 58 1 23 54
M  V30 59 1 24 55
M  V30 60 1 25 56
M  V30 61 1 25 57
M  V30 62 1 26 58
M  V30 63 1 26 59
M  V30 64 1 27 60
M  V30 65 1 27 61
M  V30 66 1 28 62
M  V30 67 1 28 63
M  V30 68 1 29 64
M  V30 69 1 29 65
M  V30 70 1 32 66
M  V30 71 1 36 67
M  V30 72 1 37 68
M  V30 73 1 37 69
M  V30 74 1 37 70
M  V30 75 1 38 71
M  V30 76 1 38 72
M  V30 77 1 38 73
M  V30 END BOND
M  V30 END CTAB
M  END
>  <Dataset>  (413) 
ChEMBL_Kinases

>  <Ligand_Instance>  (413) 
nan

>  <PDB_ID>  (413) 
nan

>  <Standardized_SMILES>  (413) 
Cc1nc2cnc3ccc(C#CCNC(=O)c4cccn([C@H](C)C5CCCCC5)c4=O)cc3c2n1C(C)C

>  <Name>  (413) 
nan

>  <Pocket>  (413) 
nan

>  <ATP_Site>  (413) 
nan

>  <Peripheral>  (413) 
nan

>  <Num_H_Atoms_ProtBoundConf>  (413) 
nan

>  <Num_Resolved_Atoms>  (413) 
nan

>  <Num_Not_Resolved_Atoms>  (413) 
nan

$$$$
CHEMBL3644701
     RDKit          3D

  0  0  0  0  0  0  0  0  0  0999 V3000
M  V30 BEGIN CTAB
M  V30 COUNTS 67 71 0 0 0
M  V30 BEGIN ATOM
M  V30 1 C 2.758107 -2.436775 4.421643 0
M  V30 2 C 3.227033 -1.634016 3.280042 0
M  V30 3 N 4.564250 -1.660374 2.967360 0
M  V30 4 C 4.787207 -0.870325 1.930666 0
M  V30 5 C 5.962914 -0.599905 1.292350 0
M  V30 6 N 5.916243 0.251312 0.251649 0
M  V30 7 C 4.743113 0.795261 -0.116204 0
M  V30 8 C 4.793436 1.662713 -1.182170 0
M  V30 9 C 3.623595 2.260757 -1.596895 0
M  V30 10 C 2.421099 2.006545 -0.967726 0
M  V30 11 C 1.181186 2.627786 -1.386982 0
M  V30 12 C 0.132424 3.135768 -1.724035 0
M  V30 13 C -1.158511 3.743003 -2.115372 0
M  V30 14 N -2.133006 3.147594 -1.187555 0
M  V30 15 C -2.264773 1.794598 -1.240643 0
M  V30 16 O -1.598699 1.054376 -2.055534 0
M  V30 17 C -2.722110 0.516013 -0.935201 0
M  V30 18 C -3.536973 1.167088 0.155847 0
M  V30 19 C -4.430994 0.560871 1.107021 0
M  V30 20 C -4.593296 -0.836588 1.040015 0
M  V30 21 N -3.895645 -1.463038 0.093025 0
M  V30 22 C -3.877045 -2.861368 -0.179568 0 CFG=2
M  V30 23 C -3.812896 -3.563662 1.183000 0
M  V30 24 C -2.780049 -3.358224 -1.002928 0
M  V30 25 C -2.875747 -3.716059 -2.351795 0
M  V30 26 C -1.774119 -4.169930 -3.043931 0
M  V30 27 C -0.535977 -4.292890 -2.447758 0
M  V30 28 F 0.445815 -4.751588 -3.254317 0
M  V30 29 C -0.427002 -3.942451 -1.113943 0
M  V30 30 F 0.815406 -4.079291 -0.568410 0
M  V30 31 C -1.526477 -3.488705 -0.421624 0
M  V30 32 C -3.152250 -0.686339 -0.647894 0
M  V30 33 O -2.402398 -1.130518 -1.625064 0
M  V30 34 C 2.468889 1.107593 0.110216 0
M  V30 35 C 3.603364 0.487732 0.558756 0
M  V30 36 C 3.539557 -0.369430 1.632391 0
M  V30 37 N 2.553044 -0.806354 2.426169 0
M  V30 38 C 1.165719 -0.549033 2.431797 0
M  V30 39 C 0.343766 -1.608995 3.173413 0
M  V30 40 C 0.734886 0.730228 3.118923 0
M  V30 41 H 3.625201 -3.039451 4.845685 0
M  V30 42 H 2.480142 -1.834349 5.324913 0
M  V30 43 H 2.038560 -3.242077 4.178217 0
M  V30 44 H 6.888596 -1.043585 1.601670 0
M  V30 45 H 5.701440 1.902497 -1.715261 0
M  V30 46 H 3.649223 2.943878 -2.434031 0
M  V30 47 H -1.184471 4.815248 -1.884423 0
M  V30 48 H -1.444564 3.470893 -3.126448 0
M  V30 49 H -2.808085 3.415627 -0.451121 0
M  V30 50 H -3.770771 2.176757 0.628435 0
M  V30 51 H -5.095279 0.841797 1.950477 0
M  V30 52 H -5.172783 -1.545835 1.596554 0
M  V30 53 H -4.871074 -3.147669 -0.644118 0
M  V30 54 H -4.738803 -4.179558 1.350668 0
M  V30 55 H -3.659634 -2.845754 2.014149 0
M  V30 56 H -2.947245 -4.253581 1.200881 0
M  V30 57 H -3.865060 -3.601342 -2.768041 0
M  V30 58 H -1.966530 -4.413837 -4.069719 0
M  V30 59 H -1.275409 -3.252573 0.622497 0
M  V30 60 H 1.508198 0.991229 0.529214 0
M  V30 61 H 0.644170 -0.574510 1.440558 0
M  V30 62 H 0.352631 -2.584814 2.723671 0
M  V30 63 H -0.733607 -1.257921 3.004232 0
M  V30 64 H 0.450783 -1.498869 4.253205 0
M  V30 65 H -0.223207 1.084784 2.692079 0
M  V30 66 H 0.602582 0.510228 4.192369 0
M  V30 67 H 1.542668 1.489190 3.039728 0
M  V30 END ATOM
M  V30 BEGIN BOND
M  V30 1 1 1 2
M  V30 2 2 2 3
M  V30 3 1 3 4
M  V30 4 2 4 5
M  V30 5 1 5 6
M  V30 6 2 6 7
M  V30 7 1 7 8
M  V30 8 2 8 9
M  V30 9 1 9 10
M  V30 10 1 10 11
M  V30 11 3 11 12
M  V30 12 1 12 13
M  V30 13 1 13 14
M  V30 14 1 14 15
M  V30 15 2 15 16
M  V30 16 1 15 17
M  V30 17 2 17 18
M  V30 18 1 18 19
M  V30 19 2 19 20
M  V30 20 1 20 21
M  V30 21 1 21 22
M  V30 22 1 22 23
M  V30 23 1 22 24
M  V30 24 2 24 25
M  V30 25 1 25 26
M  V30 26 2 26 27
M  V30 27 1 27 28
M  V30 28 1 27 29
M  V30 29 1 29 30
M  V30 30 2 29 31
M  V30 31 1 21 32
M  V30 32 2 32 33
M  V30 33 2 10 34
M  V30 34 1 34 35
M  V30 35 2 35 36
M  V30 36 1 36 37
M  V30 37 1 37 38
M  V30 38 1 38 39
M  V30 39 1 38 40
M  V30 40 1 37 2
M  V30 41 1 36 4
M  V30 42 1 35 7
M  V30 43 1 32 17
M  V30 44 1 31 24
M  V30 45 1 1 41
M  V30 46 1 1 42
M  V30 47 1 1 43
M  V30 48 1 5 44
M  V30 49 1 8 45
M  V30 50 1 9 46
M  V30 51 1 13 47
M  V30 52 1 13 48
M  V30 53 1 14 49
M  V30 54 1 18 50
M  V30 55 1 19 51
M  V30 56 1 20 52
M  V30 57 1 22 53 CFG=3
M  V30 58 1 23 54
M  V30 59 1 23 55
M  V30 60 1 23 56
M  V30 61 1 25 57
M  V30 62 1 26 58
M  V30 63 1 31 59
M  V30 64 1 34 60
M  V30 65 1 38 61
M  V30 66 1 39 62
M  V30 67 1 39 63
M  V30 68 1 39 64
M  V30 69 1 40 65
M  V30 70 1 40 66
M  V30 71 1 40 67
M  V30 END BOND
M  V30 END CTAB
M  END
>  <Dataset>  (414) 
ChEMBL_Kinases

>  <Ligand_Instance>  (414) 
nan

>  <PDB_ID>  (414) 
nan

>  <Standardized_SMILES>  (414) 
Cc1nc2cnc3ccc(C#CCNC(=O)c4cccn([C@H](C)c5ccc(F)c(F)c5)c4=O)cc3c2n1C(C)C

>  <Name>  (414) 
nan

>  <Pocket>  (414) 
nan

>  <ATP_Site>  (414) 
nan

>  <Peripheral>  (414) 
nan

>  <Num_H_Atoms_ProtBoundConf>  (414) 
nan

>  <Num_Resolved_Atoms>  (414) 
nan

>  <Num_Not_Resolved_Atoms>  (414) 
nan

$$$$
CHEMBL3644700
     RDKit          3D

  0  0  0  0  0  0  0  0  0  0999 V3000
M  V30 BEGIN CTAB
M  V30 COUNTS 68 72 0 0 0
M  V30 BEGIN ATOM
M  V30 1 C 4.304923 -0.849906 4.389608 0
M  V30 2 C 4.271543 0.156384 3.285211 0
M  V30 3 N 5.430509 0.625324 2.774922 0
M  V30 4 C 5.112430 1.492830 1.828090 0
M  V30 5 C 5.867752 2.255947 0.996729 0
M  V30 6 N 5.300172 3.090003 0.088128 0
M  V30 7 C 3.925781 3.120071 0.053530 0
M  V30 8 C 3.433453 4.000595 -0.899881 0
M  V30 9 C 2.040734 4.064644 -0.958833 0
M  V30 10 C 1.198971 3.331031 -0.155145 0
M  V30 11 C -0.245684 3.444568 -0.257015 0
M  V30 12 C -1.446027 3.518164 -0.334494 0
M  V30 13 C -2.935810 3.584902 -0.420691 0
M  V30 14 N -3.449147 2.266851 0.015075 0
M  V30 15 C -2.981369 1.292377 -0.812354 0
M  V30 16 O -2.226954 1.543738 -1.820498 0
M  V30 17 C -2.904108 -0.088786 -1.164583 0
M  V30 18 C -3.537515 -0.500860 0.142637 0
M  V30 19 C -3.818990 -1.839535 0.565220 0
M  V30 20 C -3.427375 -2.823894 -0.414630 0
M  V30 21 N -2.828085 -2.429863 -1.655558 0
M  V30 22 C -2.685408 -3.703956 -2.304092 0 CFG=2
M  V30 23 C -3.931972 -4.180693 -3.023262 0
M  V30 24 O -3.553536 -5.431012 -3.581762 0
M  V30 25 C -2.183426 -4.775941 -1.454483 0
M  V30 26 C -0.837423 -4.661099 -1.082340 0
M  V30 27 C -0.134536 -5.584901 -0.304347 0
M  V30 28 C -0.883344 -6.689852 0.106176 0
M  V30 29 C -2.203791 -6.846784 -0.231441 0
M  V30 30 F -2.900054 -7.946003 0.187307 0
M  V30 31 C -2.876145 -5.911898 -1.006532 0
M  V30 32 C -2.845560 -1.296199 -1.459304 0
M  V30 33 O -2.281103 -0.907923 -2.631293 0
M  V30 34 C 1.838001 2.484000 0.759730 0
M  V30 35 C 3.179638 2.348499 0.896532 0
M  V30 36 C 3.746612 1.519240 1.800639 0
M  V30 37 N 3.127585 0.688648 2.704035 0
M  V30 38 C 1.777978 0.365459 3.063198 0
M  V30 39 C 0.966209 1.385181 3.765536 0
M  V30 40 C 1.049831 -0.603774 2.152422 0
M  V30 41 H 5.317601 -1.075004 4.713025 0
M  V30 42 H 3.848505 -1.827726 4.056849 0
M  V30 43 H 3.671509 -0.490359 5.224489 0
M  V30 44 H 6.960328 2.164930 1.085147 0
M  V30 45 H 4.072316 4.584182 -1.542718 0
M  V30 46 H 1.623025 4.744492 -1.689697 0
M  V30 47 H -3.267618 4.289097 0.358290 0
M  V30 48 H -3.291310 3.779577 -1.427080 0
M  V30 49 H -4.050799 1.847776 0.737296 0
M  V30 50 H -3.940149 0.004292 1.103087 0
M  V30 51 H -4.282546 -2.214510 1.514418 0
M  V30 52 H -3.685475 -3.853051 -0.020284 0
M  V30 53 H -1.915146 -3.580448 -3.152488 0
M  V30 54 H -4.741400 -4.358738 -2.309115 0
M  V30 55 H -4.180714 -3.518228 -3.879258 0
M  V30 56 H -2.556480 -5.525541 -3.630260 0
M  V30 57 H -0.222508 -3.807119 -1.384088 0
M  V30 58 H 0.902512 -5.471667 -0.028814 0
M  V30 59 H -0.337637 -7.419553 0.718316 0
M  V30 60 H -3.908427 -5.969902 -1.313058 0
M  V30 61 H 1.091476 1.980621 1.305898 0
M  V30 62 H 1.953145 -0.370972 3.961463 0
M  V30 63 H -0.072128 1.402433 3.299915 0
M  V30 64 H 1.320519 2.445759 3.625950 0
M  V30 65 H 0.807351 1.273575 4.837787 0
M  V30 66 H 0.032089 -0.854117 2.566245 0
M  V30 67 H 0.925078 -0.292468 1.110696 0
M  V30 68 H 1.654902 -1.573772 2.090571 0
M  V30 END ATOM
M  V30 BEGIN BOND
M  V30 1 1 1 2
M  V30 2 2 2 3
M  V30 3 1 3 4
M  V30 4 2 4 5
M  V30 5 1 5 6
M  V30 6 2 6 7
M  V30 7 1 7 8
M  V30 8 2 8 9
M  V30 9 1 9 10
M  V30 10 1 10 11
M  V30 11 3 11 12
M  V30 12 1 12 13
M  V30 13 1 13 14
M  V30 14 1 14 15
M  V30 15 2 15 16
M  V30 16 1 15 17
M  V30 17 2 17 18
M  V30 18 1 18 19
M  V30 19 2 19 20
M  V30 20 1 20 21
M  V30 21 1 21 22
M  V30 22 1 22 23
M  V30 23 1 23 24
M  V30 24 1 22 25
M  V30 25 2 25 26
M  V30 26 1 26 27
M  V30 27 2 27 28
M  V30 28 1 28 29
M  V30 29 1 29 30
M  V30 30 2 29 31
M  V30 31 1 21 32
M  V30 32 2 32 33
M  V30 33 2 10 34
M  V30 34 1 34 35
M  V30 35 2 35 36
M  V30 36 1 36 37
M  V30 37 1 37 38
M  V30 38 1 38 39
M  V30 39 1 38 40
M  V30 40 1 37 2
M  V30 41 1 36 4
M  V30 42 1 35 7
M  V30 43 1 32 17
M  V30 44 1 31 25
M  V30 45 1 1 41
M  V30 46 1 1 42
M  V30 47 1 1 43
M  V30 48 1 5 44
M  V30 49 1 8 45
M  V30 50 1 9 46
M  V30 51 1 13 47
M  V30 52 1 13 48
M  V30 53 1 14 49
M  V30 54 1 18 50
M  V30 55 1 19 51
M  V30 56 1 20 52
M  V30 57 1 22 53 CFG=3
M  V30 58 1 23 54
M  V30 59 1 23 55
M  V30 60 1 24 56
M  V30 61 1 26 57
M  V30 62 1 27 58
M  V30 63 1 28 59
M  V30 64 1 31 60
M  V30 65 1 34 61
M  V30 66 1 38 62
M  V30 67 1 39 63
M  V30 68 1 39 64
M  V30 69 1 39 65
M  V30 70 1 40 66
M  V30 71 1 40 67
M  V30 72 1 40 68
M  V30 END BOND
M  V30 END CTAB
M  END
>  <Dataset>  (415) 
ChEMBL_Kinases

>  <Ligand_Instance>  (415) 
nan

>  <PDB_ID>  (415) 
nan

>  <Standardized_SMILES>  (415) 
Cc1nc2cnc3ccc(C#CCNC(=O)c4cccn([C@H](CO)c5cccc(F)c5)c4=O)cc3c2n1C(C)C

>  <Name>  (415) 
nan

>  <Pocket>  (415) 
nan

>  <ATP_Site>  (415) 
nan

>  <Peripheral>  (415) 
nan

>  <Num_H_Atoms_ProtBoundConf>  (415) 
nan

>  <Num_Resolved_Atoms>  (415) 
nan

>  <Num_Not_Resolved_Atoms>  (415) 
nan

$$$$
CHEMBL3644699
     RDKit          3D

  0  0  0  0  0  0  0  0  0  0999 V3000
M  V30 BEGIN CTAB
M  V30 COUNTS 70 74 0 0 0
M  V30 BEGIN ATOM
M  V30 1 C 6.424176 -5.626679 -2.994278 0
M  V30 2 C 5.287921 -6.467507 -3.536356 0
M  V30 3 O 4.231929 -5.636907 -3.953928 0
M  V30 4 C 3.561602 -4.785434 -3.079466 0
M  V30 5 C 2.531889 -3.992246 -3.543774 0
M  V30 6 C 1.938206 -3.187885 -2.576247 0
M  V30 7 C 0.868294 -2.447930 -3.157656 0
M  V30 8 O 0.515618 -2.450184 -4.389477 0
M  V30 9 N -0.154762 -1.524472 -2.783076 0
M  V30 10 C -1.203095 -0.622677 -2.601951 0
M  V30 11 C -1.472169 -0.138447 -1.250304 0
M  V30 12 C -1.705195 0.242509 -0.136539 0
M  V30 13 C -2.009166 0.695001 1.190950 0
M  V30 14 C -1.189251 0.345720 2.221905 0
M  V30 15 C -1.379951 0.694840 3.538390 0
M  V30 16 C -2.523226 1.465668 3.741269 0
M  V30 17 N -2.743513 1.784813 5.054022 0
M  V30 18 C -3.849095 2.503812 5.381498 0
M  V30 19 C -4.673888 2.861659 4.341541 0
M  V30 20 N -5.813050 3.556891 4.419386 0
M  V30 21 C -6.327766 3.692027 3.153535 0
M  V30 22 C -7.615125 4.421099 3.124124 0
M  V30 23 N -5.530112 3.091341 2.249096 0
M  V30 24 C -5.719499 3.073229 0.831444 0
M  V30 25 C -6.566380 4.301167 0.418692 0
M  V30 26 C -6.501684 1.885351 0.325252 0
M  V30 27 C -4.523352 2.581096 2.983511 0
M  V30 28 C -3.394281 1.856371 2.750490 0
M  V30 29 C -3.147429 1.473448 1.453604 0
M  V30 30 C 2.399936 -3.241273 -1.293361 0
M  V30 31 O 1.811232 -2.491139 -0.495320 0
M  V30 32 N 3.416075 -4.028073 -0.856830 0
M  V30 33 C 3.763952 -3.942907 0.532924 0
M  V30 34 C 4.783708 -2.942829 0.862933 0
M  V30 35 C 4.575936 -1.643506 1.235935 0
M  V30 36 C 5.520896 -0.698877 1.547027 0
M  V30 37 C 6.810917 -1.167672 1.455698 0
M  V30 38 F 7.816146 -0.281851 1.754788 0
M  V30 39 C 7.202889 -2.465117 1.090118 0
M  V30 40 F 8.496844 -2.861190 1.021070 0
M  V30 41 C 6.119856 -3.304614 0.805902 0
M  V30 42 N 3.951030 -4.774523 -1.804210 0
M  V30 43 H 7.355544 -6.006674 -3.489448 0
M  V30 44 H 6.532937 -5.811470 -1.919125 0
M  V30 45 H 6.301215 -4.567884 -3.221902 0
M  V30 46 H 4.921352 -7.185741 -2.764564 0
M  V30 47 H 5.589867 -7.086495 -4.417731 0
M  V30 48 H 2.274149 -4.062516 -4.600066 0
M  V30 49 H 0.152056 -1.552935 -1.733723 0
M  V30 50 H -1.025073 0.334498 -3.198599 0
M  V30 51 H -2.176715 -0.982154 -3.070771 0
M  V30 52 H -0.314091 -0.254015 1.995674 0
M  V30 53 H -0.740809 0.430944 4.363852 0
M  V30 54 H -4.063121 2.774920 6.400567 0
M  V30 55 H -8.258561 4.226602 2.269166 0
M  V30 56 H -7.440725 5.520101 3.193568 0
M  V30 57 H -8.211040 4.219611 4.084647 0
M  V30 58 H -4.792172 3.260360 0.237947 0
M  V30 59 H -6.150553 4.731020 -0.564221 0
M  V30 60 H -7.579430 3.992936 0.123528 0
M  V30 61 H -6.467034 5.140287 1.108529 0
M  V30 62 H -6.386035 0.985768 0.933510 0
M  V30 63 H -7.598300 2.118670 0.242305 0
M  V30 64 H -6.162118 1.671685 -0.707887 0
M  V30 65 H -3.720487 1.657748 0.589030 0
M  V30 66 H 2.857507 -3.756967 1.175469 0
M  V30 67 H 4.157927 -4.927334 0.905601 0
M  V30 68 H 3.525281 -1.310806 1.297570 0
M  V30 69 H 5.305331 0.315000 1.834719 0
M  V30 70 H 6.407803 -4.311587 0.518530 0
M  V30 END ATOM
M  V30 BEGIN BOND
M  V30 1 1 1 2
M  V30 2 1 2 3
M  V30 3 1 3 4
M  V30 4 1 4 5
M  V30 5 2 5 6
M  V30 6 1 6 7
M  V30 7 2 7 8
M  V30 8 1 7 9
M  V30 9 1 9 10
M  V30 10 1 10 11
M  V30 11 3 11 12
M  V30 12 1 12 13
M  V30 13 2 13 14
M  V30 14 1 14 15
M  V30 15 2 15 16
M  V30 16 1 16 17
M  V30 17 2 17 18
M  V30 18 1 18 19
M  V30 19 1 19 20
M  V30 20 2 20 21
M  V30 21 1 21 22
M  V30 22 1 21 23
M  V30 23 1 23 24
M  V30 24 1 24 25
M  V30 25 1 24 26
M  V30 26 1 23 27
M  V30 27 1 27 28
M  V30 28 2 28 29
M  V30 29 1 6 30
M  V30 30 2 30 31
M  V30 31 1 30 32
M  V30 32 1 32 33
M  V30 33 1 33 34
M  V30 34 2 34 35
M  V30 35 1 35 36
M  V30 36 2 36 37
M  V30 37 1 37 38
M  V30 38 1 37 39
M  V30 39 1 39 40
M  V30 40 2 39 41
M  V30 41 1 32 42
M  V30 42 2 42 4
M  V30 43 1 29 13
M  V30 44 1 41 34
M  V30 45 1 28 16
M  V30 46 2 27 19
M  V30 47 1 1 43
M  V30 48 1 1 44
M  V30 49 1 1 45
M  V30 50 1 2 46
M  V30 51 1 2 47
M  V30 52 1 5 48
M  V30 53 1 9 49
M  V30 54 1 10 50
M  V30 55 1 10 51
M  V30 56 1 14 52
M  V30 57 1 15 53
M  V30 58 1 18 54
M  V30 59 1 22 55
M  V30 60 1 22 56
M  V30 61 1 22 57
M  V30 62 1 24 58
M  V30 63 1 25 59
M  V30 64 1 25 60
M  V30 65 1 25 61
M  V30 66 1 26 62
M  V30 67 1 26 63
M  V30 68 1 26 64
M  V30 69 1 29 65
M  V30 70 1 33 66
M  V30 71 1 33 67
M  V30 72 1 35 68
M  V30 73 1 36 69
M  V30 74 1 41 70
M  V30 END BOND
M  V30 END CTAB
M  END
>  <Dataset>  (416) 
ChEMBL_Kinases

>  <Ligand_Instance>  (416) 
nan

>  <PDB_ID>  (416) 
nan

>  <Standardized_SMILES>  (416) 
CCOc1cc(C(=O)NCC#Cc2ccc3ncc4nc(C)n(C(C)C)c4c3c2)c(=O)n(Cc2ccc(F)c(F)c2)n1

>  <Name>  (416) 
nan

>  <Pocket>  (416) 
nan

>  <ATP_Site>  (416) 
nan

>  <Peripheral>  (416) 
nan

>  <Num_H_Atoms_ProtBoundConf>  (416) 
nan

>  <Num_Resolved_Atoms>  (416) 
nan

>  <Num_Not_Resolved_Atoms>  (416) 
nan

$$$$
CHEMBL3644698
     RDKit          3D

  0  0  0  0  0  0  0  0  0  0999 V3000
M  V30 BEGIN CTAB
M  V30 COUNTS 63 67 0 0 0
M  V30 BEGIN ATOM
M  V30 1 C 2.303546 -2.271503 4.960162 0
M  V30 2 C 2.823954 -1.487178 3.827643 0
M  V30 3 N 4.171252 -1.483541 3.565960 0
M  V30 4 C 4.405564 -0.698622 2.515839 0
M  V30 5 C 5.615994 -0.430028 1.945289 0
M  V30 6 N 5.591426 0.399880 0.892783 0
M  V30 7 C 4.422854 0.926273 0.443711 0
M  V30 8 C 4.546564 1.767084 -0.639915 0
M  V30 9 C 3.370508 2.314658 -1.103115 0
M  V30 10 C 2.128607 2.044375 -0.522609 0
M  V30 11 C 0.996742 2.666282 -1.108975 0
M  V30 12 C 0.047472 3.172099 -1.614470 0
M  V30 13 C -1.134720 3.787370 -2.265821 0
M  V30 14 N -1.878080 2.719746 -2.964289 0
M  V30 15 C -2.322395 1.755618 -2.115299 0
M  V30 16 O -2.152961 1.729958 -0.842445 0
M  V30 17 C -2.977350 0.547606 -1.732827 0
M  V30 18 C -3.266091 0.324899 -3.192081 0
M  V30 19 C -3.957251 -0.748645 -3.841325 0
M  V30 20 Cl -4.431675 -1.264512 -5.467534 0
M  V30 21 N -4.443485 -1.748404 -3.015021 0
M  V30 22 N -4.222895 -1.615713 -1.707084 0
M  V30 23 C -4.602659 -2.488668 -0.629240 0
M  V30 24 C -3.537766 -3.494053 -0.431059 0
M  V30 25 C -3.625321 -4.673480 -1.175057 0
M  V30 26 C -2.725830 -5.729549 -1.124646 0
M  V30 27 C -1.660389 -5.621389 -0.281851 0
M  V30 28 F -0.792338 -6.656491 -0.243707 0
M  V30 29 C -1.533341 -4.474433 0.472119 0
M  V30 30 F -0.471627 -4.375324 1.302697 0
M  V30 31 C -2.445244 -3.435380 0.403546 0
M  V30 32 C -3.567762 -0.540630 -1.391203 0
M  V30 33 O -3.264818 -0.248615 -0.150621 0
M  V30 34 C 2.129130 1.178172 0.569933 0
M  V30 35 C 3.259023 0.597622 1.081989 0
M  V30 36 C 3.153285 -0.229084 2.152942 0
M  V30 37 N 2.167260 -0.689397 2.928593 0
M  V30 38 C 0.771794 -0.443863 2.854577 0
M  V30 39 C -0.067914 -1.509380 3.611794 0
M  V30 40 C 0.322926 0.854214 3.530583 0
M  V30 41 H 1.615882 -3.080025 4.716740 0
M  V30 42 H 1.989217 -1.635356 5.840098 0
M  V30 43 H 3.189000 -2.818801 5.416315 0
M  V30 44 H 6.535591 -0.835152 2.285242 0
M  V30 45 H 5.507810 1.976459 -1.088484 0
M  V30 46 H 3.447913 2.976922 -1.955377 0
M  V30 47 H -1.761549 4.265767 -1.499663 0
M  V30 48 H -0.861840 4.501978 -3.037038 0
M  V30 49 H -2.212846 2.398456 -3.882797 0
M  V30 50 H -3.126127 0.761011 -4.246737 0
M  V30 51 H -4.816027 -1.961123 0.318031 0
M  V30 52 H -5.535527 -3.015783 -0.990722 0
M  V30 53 H -4.458705 -4.797936 -1.855885 0
M  V30 54 H -2.881863 -6.601424 -1.742251 0
M  V30 55 H -2.351313 -2.537624 0.995124 0
M  V30 56 H 1.160784 1.058806 0.929728 0
M  V30 57 H 0.304967 -0.536049 1.850708 0
M  V30 58 H 0.004837 -1.368975 4.677597 0
M  V30 59 H -1.140567 -1.178230 3.378166 0
M  V30 60 H -0.002725 -2.490720 3.173531 0
M  V30 61 H -0.002203 0.697130 4.583678 0
M  V30 62 H 1.163174 1.580252 3.624133 0
M  V30 63 H -0.569338 1.279875 3.030192 0
M  V30 END ATOM
M  V30 BEGIN BOND
M  V30 1 1 1 2
M  V30 2 2 2 3
M  V30 3 1 3 4
M  V30 4 2 4 5
M  V30 5 1 5 6
M  V30 6 2 6 7
M  V30 7 1 7 8
M  V30 8 2 8 9
M  V30 9 1 9 10
M  V30 10 1 10 11
M  V30 11 3 11 12
M  V30 12 1 12 13
M  V30 13 1 13 14
M  V30 14 1 14 15
M  V30 15 2 15 16
M  V30 16 1 15 17
M  V30 17 2 17 18
M  V30 18 1 18 19
M  V30 19 1 19 20
M  V30 20 2 19 21
M  V30 21 1 21 22
M  V30 22 1 22 23
M  V30 23 1 23 24
M  V30 24 2 24 25
M  V30 25 1 25 26
M  V30 26 2 26 27
M  V30 27 1 27 28
M  V30 28 1 27 29
M  V30 29 1 29 30
M  V30 30 2 29 31
M  V30 31 1 22 32
M  V30 32 2 32 33
M  V30 33 2 10 34
M  V30 34 1 34 35
M  V30 35 2 35 36
M  V30 36 1 36 37
M  V30 37 1 37 38
M  V30 38 1 38 39
M  V30 39 1 38 40
M  V30 40 1 37 2
M  V30 41 1 36 4
M  V30 42 1 35 7
M  V30 43 1 32 17
M  V30 44 1 31 24
M  V30 45 1 1 41
M  V30 46 1 1 42
M  V30 47 1 1 43
M  V30 48 1 5 44
M  V30 49 1 8 45
M  V30 50 1 9 46
M  V30 51 1 13 47
M  V30 52 1 13 48
M  V30 53 1 14 49
M  V30 54 1 18 50
M  V30 55 1 23 51
M  V30 56 1 23 52
M  V30 57 1 25 53
M  V30 58 1 26 54
M  V30 59 1 31 55
M  V30 60 1 34 56
M  V30 61 1 38 57
M  V30 62 1 39 58
M  V30 63 1 39 59
M  V30 64 1 39 60
M  V30 65 1 40 61
M  V30 66 1 40 62
M  V30 67 1 40 63
M  V30 END BOND
M  V30 END CTAB
M  END
>  <Dataset>  (417) 
ChEMBL_Kinases

>  <Ligand_Instance>  (417) 
nan

>  <PDB_ID>  (417) 
nan

>  <Standardized_SMILES>  (417) 
Cc1nc2cnc3ccc(C#CCNC(=O)c4cc(Cl)nn(Cc5ccc(F)c(F)c5)c4=O)cc3c2n1C(C)C

>  <Name>  (417) 
nan

>  <Pocket>  (417) 
nan

>  <ATP_Site>  (417) 
nan

>  <Peripheral>  (417) 
nan

>  <Num_H_Atoms_ProtBoundConf>  (417) 
nan

>  <Num_Resolved_Atoms>  (417) 
nan

>  <Num_Not_Resolved_Atoms>  (417) 
nan

$$$$
CHEMBL3644697
     RDKit          3D

  0  0  0  0  0  0  0  0  0  0999 V3000
M  V30 BEGIN CTAB
M  V30 COUNTS 64 68 0 0 0
M  V30 BEGIN ATOM
M  V30 1 C 3.562945 -2.618174 3.762551 0
M  V30 2 C 3.631753 -1.254550 3.215538 0
M  V30 3 N 4.755852 -0.502943 3.451060 0
M  V30 4 C 4.624410 0.705072 2.883806 0
M  V30 5 C 5.514548 1.726383 2.893290 0
M  V30 6 N 5.114624 2.830602 2.239084 0
M  V30 7 C 3.919695 2.903871 1.626220 0
M  V30 8 C 3.635242 4.096215 0.993950 0
M  V30 9 C 2.408200 4.166416 0.369863 0
M  V30 10 C 1.496066 3.101968 0.368798 0
M  V30 11 C 0.278687 3.334652 -0.339641 0
M  V30 12 C -0.736835 3.540766 -0.952272 0
M  V30 13 C -1.954456 3.804858 -1.711761 0
M  V30 14 N -2.391407 2.614929 -2.375120 0
M  V30 15 C -2.775263 1.506913 -1.699189 0
M  V30 16 O -2.814670 1.386858 -0.422758 0
M  V30 17 C -3.222648 0.218388 -1.605091 0
M  V30 18 C -3.099543 0.061472 -3.101645 0
M  V30 19 C -3.384455 -1.074683 -3.936472 0
M  V30 20 C -3.852773 -2.234130 -3.284365 0
M  V30 21 N -3.994138 -2.173074 -1.924582 0
M  V30 22 C -4.491519 -3.200308 -1.066541 0
M  V30 23 C -3.383047 -4.026436 -0.554357 0
M  V30 24 C -2.885254 -4.973944 -1.414666 0
M  V30 25 C -1.866837 -5.814082 -1.003440 0
M  V30 26 C -1.407487 -5.625323 0.303219 0
M  V30 27 F -0.403814 -6.464325 0.682908 0
M  V30 28 C -1.875216 -4.690476 1.198870 0
M  V30 29 F -1.344599 -4.619471 2.445259 0
M  V30 30 C -2.889482 -3.893608 0.710348 0
M  V30 31 C -3.642680 -0.991454 -1.518236 0
M  V30 32 O -3.744799 -0.830654 -0.199974 0
M  V30 33 C 1.879310 1.957286 1.029576 0
M  V30 34 C 3.079793 1.815040 1.669612 0
M  V30 35 C 3.376584 0.633071 2.304669 0
M  V30 36 N 2.739934 -0.529788 2.477336 0
M  V30 37 C 1.468974 -0.962173 2.026973 0
M  V30 38 C 1.296771 -2.501971 2.078392 0
M  V30 39 C 0.323080 -0.484475 2.934906 0
M  V30 40 H 2.899944 -2.721251 4.657503 0
M  V30 41 H 4.580835 -2.850139 4.217277 0
M  V30 42 H 3.459413 -3.428789 3.020362 0
M  V30 43 H 6.467413 1.662152 3.385222 0
M  V30 44 H 4.344039 4.911764 1.001105 0
M  V30 45 H 2.187252 5.106533 -0.128169 0
M  V30 46 H -1.667416 4.556058 -2.490130 0
M  V30 47 H -2.752996 4.256921 -1.061103 0
M  V30 48 H -2.486185 2.412037 -3.377702 0
M  V30 49 H -2.786769 0.654540 -4.034509 0
M  V30 50 H -3.356327 -1.360610 -5.004000 0
M  V30 51 H -4.130685 -3.199860 -3.689265 0
M  V30 52 H -5.179046 -3.865930 -1.666729 0
M  V30 53 H -5.077246 -2.756587 -0.226433 0
M  V30 54 H -3.268531 -5.092059 -2.429234 0
M  V30 55 H -1.477510 -6.547734 -1.665706 0
M  V30 56 H -3.294675 -3.133846 1.386611 0
M  V30 57 H 1.111167 1.240166 0.967721 0
M  V30 58 H 1.188203 -0.768803 0.993716 0
M  V30 59 H 1.912387 -3.021944 1.360303 0
M  V30 60 H 1.196460 -2.851682 3.089981 0
M  V30 61 H 0.238579 -2.619762 1.647520 0
M  V30 62 H 0.663376 0.435236 3.496430 0
M  V30 63 H -0.610081 -0.316739 2.381708 0
M  V30 64 H 0.103320 -1.223770 3.745120 0
M  V30 END ATOM
M  V30 BEGIN BOND
M  V30 1 1 1 2
M  V30 2 2 2 3
M  V30 3 1 3 4
M  V30 4 2 4 5
M  V30 5 1 5 6
M  V30 6 2 6 7
M  V30 7 1 7 8
M  V30 8 2 8 9
M  V30 9 1 9 10
M  V30 10 1 10 11
M  V30 11 3 11 12
M  V30 12 1 12 13
M  V30 13 1 13 14
M  V30 14 1 14 15
M  V30 15 2 15 16
M  V30 16 1 15 17
M  V30 17 2 17 18
M  V30 18 1 18 19
M  V30 19 2 19 20
M  V30 20 1 20 21
M  V30 21 1 21 22
M  V30 22 1 22 23
M  V30 23 2 23 24
M  V30 24 1 24 25
M  V30 25 2 25 26
M  V30 26 1 26 27
M  V30 27 1 26 28
M  V30 28 1 28 29
M  V30 29 2 28 30
M  V30 30 1 21 31
M  V30 31 2 31 32
M  V30 32 2 10 33
M  V30 33 1 33 34
M  V30 34 2 34 35
M  V30 35 1 35 36
M  V30 36 1 36 37
M  V30 37 1 37 38
M  V30 38 1 37 39
M  V30 39 1 36 2
M  V30 40 1 35 4
M  V30 41 1 34 7
M  V30 42 1 31 17
M  V30 43 1 30 23
M  V30 44 1 1 40
M  V30 45 1 1 41
M  V30 46 1 1 42
M  V30 47 1 5 43
M  V30 48 1 8 44
M  V30 49 1 9 45
M  V30 50 1 13 46
M  V30 51 1 13 47
M  V30 52 1 14 48
M  V30 53 1 18 49
M  V30 54 1 19 50
M  V30 55 1 20 51
M  V30 56 1 22 52
M  V30 57 1 22 53
M  V30 58 1 24 54
M  V30 59 1 25 55
M  V30 60 1 30 56
M  V30 61 1 33 57
M  V30 62 1 37 58
M  V30 63 1 38 59
M  V30 64 1 38 60
M  V30 65 1 38 61
M  V30 66 1 39 62
M  V30 67 1 39 63
M  V30 68 1 39 64
M  V30 END BOND
M  V30 END CTAB
M  END
>  <Dataset>  (418) 
ChEMBL_Kinases

>  <Ligand_Instance>  (418) 
nan

>  <PDB_ID>  (418) 
nan

>  <Standardized_SMILES>  (418) 
Cc1nc2cnc3ccc(C#CCNC(=O)c4cccn(Cc5ccc(F)c(F)c5)c4=O)cc3c2n1C(C)C

>  <Name>  (418) 
nan

>  <Pocket>  (418) 
nan

>  <ATP_Site>  (418) 
nan

>  <Peripheral>  (418) 
nan

>  <Num_H_Atoms_ProtBoundConf>  (418) 
nan

>  <Num_Resolved_Atoms>  (418) 
nan

>  <Num_Not_Resolved_Atoms>  (418) 
nan

$$$$
CHEMBL3644696
     RDKit          3D

  0  0  0  0  0  0  0  0  0  0999 V3000
M  V30 BEGIN CTAB
M  V30 COUNTS 64 68 0 0 0
M  V30 BEGIN ATOM
M  V30 1 C 4.982976 -0.340543 5.827216 0
M  V30 2 C 5.138348 -0.298943 4.329226 0
M  V30 3 N 6.328259 -0.689762 3.777497 0
M  V30 4 C 6.199774 -0.559730 2.469141 0
M  V30 5 C 7.114472 -0.824813 1.487247 0
M  V30 6 N 6.766052 -0.618561 0.206393 0
M  V30 7 C 5.507514 -0.151499 -0.053006 0
M  V30 8 C 5.230576 0.030428 -1.383920 0
M  V30 9 C 3.968064 0.499237 -1.678239 0
M  V30 10 C 3.021860 0.775952 -0.703421 0
M  V30 11 C 1.756798 1.257363 -1.180175 0
M  V30 12 C 0.691062 1.665703 -1.560136 0
M  V30 13 C -0.626488 2.167964 -2.003699 0
M  V30 14 N -1.674816 1.240096 -1.606802 0
M  V30 15 C -3.035561 1.478290 -1.907315 0
M  V30 16 O -3.148481 2.580861 -2.544620 0
M  V30 17 C -4.168039 0.640477 -1.571458 0
M  V30 18 C -5.409449 1.121436 -1.993823 0
M  V30 19 C -6.570167 0.423710 -1.739555 0
M  V30 20 C -6.565604 -0.776100 -1.060147 0
M  V30 21 N -5.374893 -1.210778 -0.670129 0
M  V30 22 C -5.297233 -2.461745 0.047227 0
M  V30 23 C -5.122430 -3.628377 -0.870690 0
M  V30 24 C -6.330707 -4.187498 -1.299570 0
M  V30 25 C -6.392966 -5.266019 -2.146550 0
M  V30 26 C -5.190249 -5.810922 -2.585138 0
M  V30 27 C -3.987378 -5.269151 -2.169851 0
M  V30 28 C -3.949334 -4.190942 -1.322906 0
M  V30 29 C -4.231220 -0.558383 -0.900856 0
M  V30 30 O -3.135368 -0.995687 -0.521131 0
M  V30 31 C 3.390204 0.562529 0.609262 0
M  V30 32 C 4.630313 0.099090 0.948034 0
M  V30 33 C 4.917817 -0.088085 2.274335 0
M  V30 34 N 4.206246 0.095833 3.385546 0
M  V30 35 C 2.886258 0.555692 3.684737 0
M  V30 36 C 2.617606 2.029866 3.523029 0
M  V30 37 C 1.755996 -0.371417 3.389147 0
M  V30 38 H 3.945466 -0.664398 6.066290 0
M  V30 39 H 5.626226 -1.147464 6.221146 0
M  V30 40 H 5.180203 0.641821 6.289004 0
M  V30 41 H 8.100692 -1.193049 1.726369 0
M  V30 42 H 5.954287 -0.179657 -2.156314 0
M  V30 43 H 3.745307 0.644501 -2.727566 0
M  V30 44 H -0.817992 3.185032 -1.660876 0
M  V30 45 H -0.574318 2.189615 -3.116189 0
M  V30 46 H -1.414704 0.388220 -1.093984 0
M  V30 47 H -5.495460 2.071486 -2.541725 0
M  V30 48 H -7.501851 0.835184 -2.085124 0
M  V30 49 H -7.474194 -1.323922 -0.859723 0
M  V30 50 H -4.405394 -2.446104 0.714798 0
M  V30 51 H -6.168380 -2.630236 0.712727 0
M  V30 52 H -7.305219 -3.809369 -0.993775 0
M  V30 53 H -7.330598 -5.698829 -2.478144 0
M  V30 54 H -5.206801 -6.654226 -3.247608 0
M  V30 55 H -3.057131 -5.691458 -2.509933 0
M  V30 56 H -3.063201 -3.709646 -0.952344 0
M  V30 57 H 2.563034 0.818611 1.211188 0
M  V30 58 H 2.867803 0.495937 4.840652 0
M  V30 59 H 1.570492 2.238160 3.228250 0
M  V30 60 H 2.795414 2.643733 4.427010 0
M  V30 61 H 3.343622 2.474568 2.779160 0
M  V30 62 H 2.191220 -1.163972 2.710039 0
M  V30 63 H 0.887307 0.122617 2.904373 0
M  V30 64 H 1.354823 -0.948110 4.241113 0
M  V30 END ATOM
M  V30 BEGIN BOND
M  V30 1 1 1 2
M  V30 2 2 2 3
M  V30 3 1 3 4
M  V30 4 2 4 5
M  V30 5 1 5 6
M  V30 6 2 6 7
M  V30 7 1 7 8
M  V30 8 2 8 9
M  V30 9 1 9 10
M  V30 10 1 10 11
M  V30 11 3 11 12
M  V30 12 1 12 13
M  V30 13 1 13 14
M  V30 14 1 14 15
M  V30 15 2 15 16
M  V30 16 1 15 17
M  V30 17 2 17 18
M  V30 18 1 18 19
M  V30 19 2 19 20
M  V30 20 1 20 21
M  V30 21 1 21 22
M  V30 22 1 22 23
M  V30 23 2 23 24
M  V30 24 1 24 25
M  V30 25 2 25 26
M  V30 26 1 26 27
M  V30 27 2 27 28
M  V30 28 1 21 29
M  V30 29 2 29 30
M  V30 30 2 10 31
M  V30 31 1 31 32
M  V30 32 2 32 33
M  V30 33 1 33 34
M  V30 34 1 34 35
M  V30 35 1 35 36
M  V30 36 1 35 37
M  V30 37 1 34 2
M  V30 38 1 33 4
M  V30 39 1 32 7
M  V30 40 1 29 17
M  V30 41 1 28 23
M  V30 42 1 1 38
M  V30 43 1 1 39
M  V30 44 1 1 40
M  V30 45 1 5 41
M  V30 46 1 8 42
M  V30 47 1 9 43
M  V30 48 1 13 44
M  V30 49 1 13 45
M  V30 50 1 14 46
M  V30 51 1 18 47
M  V30 52 1 19 48
M  V30 53 1 20 49
M  V30 54 1 22 50
M  V30 55 1 22 51
M  V30 56 1 24 52
M  V30 57 1 25 53
M  V30 58 1 26 54
M  V30 59 1 27 55
M  V30 60 1 28 56
M  V30 61 1 31 57
M  V30 62 1 35 58
M  V30 63 1 36 59
M  V30 64 1 36 60
M  V30 65 1 36 61
M  V30 66 1 37 62
M  V30 67 1 37 63
M  V30 68 1 37 64
M  V30 END BOND
M  V30 END CTAB
M  END
>  <Dataset>  (419) 
ChEMBL_Kinases

>  <Ligand_Instance>  (419) 
nan

>  <PDB_ID>  (419) 
nan

>  <Standardized_SMILES>  (419) 
Cc1nc2cnc3ccc(C#CCNC(=O)c4cccn(Cc5ccccc5)c4=O)cc3c2n1C(C)C

>  <Name>  (419) 
nan

>  <Pocket>  (419) 
nan

>  <ATP_Site>  (419) 
nan

>  <Peripheral>  (419) 
nan

>  <Num_H_Atoms_ProtBoundConf>  (419) 
nan

>  <Num_Resolved_Atoms>  (419) 
nan

>  <Num_Not_Resolved_Atoms>  (419) 
nan

$$$$
CHEMBL3644695
     RDKit          3D

  0  0  0  0  0  0  0  0  0  0999 V3000
M  V30 BEGIN CTAB
M  V30 COUNTS 69 73 0 0 0
M  V30 BEGIN ATOM
M  V30 1 C 0.951820 -2.635002 5.901510 0
M  V30 2 C 1.813326 -2.198396 4.770102 0
M  V30 3 C 1.456024 -2.559888 3.488619 0
M  V30 4 C 2.271865 -2.142932 2.470691 0
M  V30 5 C 1.812080 -2.570701 1.168002 0
M  V30 6 O 0.735120 -3.278359 0.998807 0
M  V30 7 N 2.111193 -2.514841 -0.167006 0
M  V30 8 C 2.366935 -2.493328 -1.565448 0
M  V30 9 C 1.218343 -1.849186 -2.281352 0
M  V30 10 C 0.308171 -1.317871 -2.863617 0
M  V30 11 C -0.764088 -0.664164 -3.559300 0
M  V30 12 C -0.408727 0.075451 -4.687926 0
M  V30 13 C -1.346411 0.741206 -5.435336 0
M  V30 14 C -2.648621 0.631981 -5.001214 0
M  V30 15 N -3.570323 1.274251 -5.761927 0
M  V30 16 C -4.880632 1.232918 -5.464007 0
M  V30 17 C -5.232266 0.506766 -4.348633 0
M  V30 18 N -6.438382 0.294825 -3.841103 0
M  V30 19 C -6.313384 -0.492722 -2.729014 0
M  V30 20 C -7.577980 -0.845576 -2.061643 0
M  V30 21 N -5.006027 -0.809810 -2.488459 0
M  V30 22 C -4.490201 -1.576182 -1.403178 0
M  V30 23 C -4.317342 -3.031041 -1.819848 0
M  V30 24 C -5.453213 -1.562549 -0.184329 0
M  V30 25 C -4.385467 -0.184109 -3.501000 0
M  V30 26 C -3.087255 -0.072499 -3.903021 0
M  V30 27 C -2.097153 -0.711996 -3.206037 0
M  V30 28 C 3.381511 -1.399035 2.796646 0
M  V30 29 O 4.087580 -1.045145 1.844618 0
M  V30 30 N 3.710348 -1.060333 4.036226 0
M  V30 31 C 4.889715 -0.274417 4.318414 0 CFG=2
M  V30 32 C 5.155690 -0.358197 5.817811 0
M  V30 33 C 4.818866 1.118892 3.847566 0
M  V30 34 C 5.362132 1.656391 2.701755 0
M  V30 35 C 5.225152 2.983039 2.363204 0
M  V30 36 C 4.516054 3.854910 3.184117 0
M  V30 37 F 4.347505 5.169370 2.904059 0
M  V30 38 C 3.981286 3.296280 4.325527 0
M  V30 39 F 3.282517 4.147185 5.136822 0
M  V30 40 C 4.102323 1.958956 4.694746 0
M  V30 41 N 2.912997 -1.470381 5.002656 0
M  V30 42 H 0.394939 -3.552491 5.674457 0
M  V30 43 H 0.224335 -1.840213 6.176536 0
M  V30 44 H 1.590404 -2.804164 6.785317 0
M  V30 45 H 0.563216 -3.144623 3.359470 0
M  V30 46 H 3.006824 -1.921424 0.052372 0
M  V30 47 H 3.245605 -1.949618 -1.933848 0
M  V30 48 H 2.493690 -3.533293 -1.985034 0
M  V30 49 H 0.622620 0.147396 -5.010179 0
M  V30 50 H -1.091828 1.312891 -6.301436 0
M  V30 51 H -5.636563 1.734420 -6.053339 0
M  V30 52 H -7.978916 -0.049998 -1.392271 0
M  V30 53 H -8.403093 -0.973225 -2.841787 0
M  V30 54 H -7.595725 -1.806834 -1.541205 0
M  V30 55 H -3.564715 -1.199554 -0.930388 0
M  V30 56 H -4.521007 -3.152584 -2.902837 0
M  V30 57 H -3.258977 -3.371979 -1.677579 0
M  V30 58 H -4.913312 -3.726089 -1.184371 0
M  V30 59 H -5.969423 -2.509844 -0.102483 0
M  V30 60 H -4.856705 -1.485302 0.778053 0
M  V30 61 H -6.030669 -0.636395 -0.206369 0
M  V30 62 H -2.214872 -1.310633 -2.367913 0
M  V30 63 H 5.787571 -0.771837 3.841342 0
M  V30 64 H 4.205285 -0.170227 6.348625 0
M  V30 65 H 5.604005 -1.342156 6.027000 0
M  V30 66 H 5.903908 0.437909 6.026967 0
M  V30 67 H 5.911414 0.969645 2.077085 0
M  V30 68 H 5.667012 3.362903 1.456868 0
M  V30 69 H 3.622732 1.657778 5.632775 0
M  V30 END ATOM
M  V30 BEGIN BOND
M  V30 1 1 1 2
M  V30 2 1 2 3
M  V30 3 2 3 4
M  V30 4 1 4 5
M  V30 5 2 5 6
M  V30 6 1 5 7
M  V30 7 1 7 8
M  V30 8 1 8 9
M  V30 9 3 9 10
M  V30 10 1 10 11
M  V30 11 2 11 12
M  V30 12 1 12 13
M  V30 13 2 13 14
M  V30 14 1 14 15
M  V30 15 2 15 16
M  V30 16 1 16 17
M  V30 17 1 17 18
M  V30 18 2 18 19
M  V30 19 1 19 20
M  V30 20 1 19 21
M  V30 21 1 21 22
M  V30 22 1 22 23
M  V30 23 1 22 24
M  V30 24 1 21 25
M  V30 25 1 25 26
M  V30 26 2 26 27
M  V30 27 1 4 28
M  V30 28 2 28 29
M  V30 29 1 28 30
M  V30 30 1 30 31
M  V30 31 1 31 32
M  V30 32 1 31 33
M  V30 33 2 33 34
M  V30 34 1 34 35
M  V30 35 2 35 36
M  V30 36 1 36 37
M  V30 37 1 36 38
M  V30 38 1 38 39
M  V30 39 2 38 40
M  V30 40 1 30 41
M  V30 41 2 41 2
M  V30 42 1 27 11
M  V30 43 1 40 33
M  V30 44 1 26 14
M  V30 45 2 25 17
M  V30 46 1 1 42
M  V30 47 1 1 43
M  V30 48 1 1 44
M  V30 49 1 3 45
M  V30 50 1 7 46
M  V30 51 1 8 47
M  V30 52 1 8 48
M  V30 53 1 12 49
M  V30 54 1 13 50
M  V30 55 1 16 51
M  V30 56 1 20 52
M  V30 57 1 20 53
M  V30 58 1 20 54
M  V30 59 1 22 55
M  V30 60 1 23 56
M  V30 61 1 23 57
M  V30 62 1 23 58
M  V30 63 1 24 59
M  V30 64 1 24 60
M  V30 65 1 24 61
M  V30 66 1 27 62
M  V30 67 1 31 63 CFG=3
M  V30 68 1 32 64
M  V30 69 1 32 65
M  V30 70 1 32 66
M  V30 71 1 34 67
M  V30 72 1 35 68
M  V30 73 1 40 69
M  V30 END BOND
M  V30 END CTAB
M  END
>  <Dataset>  (420) 
ChEMBL_Kinases

>  <Ligand_Instance>  (420) 
nan

>  <PDB_ID>  (420) 
nan

>  <Standardized_SMILES>  (420) 
Cc1cc(C(=O)NCC#Cc2ccc3ncc4nc(C)n(C(C)C)c4c3c2)c(=O)n([C@H](C)c2ccc(F)c(F)c2)n1

>  <Name>  (420) 
nan

>  <Pocket>  (420) 
nan

>  <ATP_Site>  (420) 
nan

>  <Peripheral>  (420) 
nan

>  <Num_H_Atoms_ProtBoundConf>  (420) 
nan

>  <Num_Resolved_Atoms>  (420) 
nan

>  <Num_Not_Resolved_Atoms>  (420) 
nan

$$$$
CHEMBL3644694
     RDKit          3D

  0  0  0  0  0  0  0  0  0  0999 V3000
M  V30 BEGIN CTAB
M  V30 COUNTS 63 68 0 0 0
M  V30 BEGIN ATOM
M  V30 1 O 2.548711 -3.203773 4.950782 0
M  V30 2 C 2.057787 -2.717854 3.867972 0
M  V30 3 N 3.090799 -2.632752 2.948828 0
M  V30 4 C 4.270788 -2.630125 2.136554 0
M  V30 5 C 3.958926 -1.829972 0.917805 0
M  V30 6 C 3.688004 -1.182038 -0.054167 0
M  V30 7 C 3.359017 -0.372944 -1.221834 0
M  V30 8 C 4.279838 0.451975 -1.811354 0
M  V30 9 C 3.988936 1.307703 -2.868351 0
M  V30 10 C 2.689359 1.283487 -3.305136 0
M  V30 11 N 2.407348 2.144241 -4.299268 0
M  V30 12 C 1.159228 2.232704 -4.780693 0
M  V30 13 C 0.184646 1.410583 -4.217829 0
M  V30 14 N -1.117566 1.301986 -4.502448 0
M  V30 15 C -1.623705 0.349834 -3.661013 0
M  V30 16 N -0.688118 -0.162394 -2.839957 0
M  V30 17 C -0.943066 -1.194919 -1.897680 0 CFG=1
M  V30 18 C -2.440533 -1.487854 -1.825287 0
M  V30 19 C -2.690747 -2.413211 -2.963328 0
M  V30 20 N -1.416929 -2.876928 -3.478076 0
M  V30 21 C -0.462776 -2.559674 -2.401371 0
M  V30 22 C 0.411449 0.508408 -3.200370 0
M  V30 23 C 1.703182 0.472489 -2.757325 0
M  V30 24 C 2.042337 -0.354477 -1.715901 0
M  V30 25 C 0.707165 -2.424960 3.934292 0
M  V30 26 C 0.340441 -2.648021 2.459233 0
M  V30 27 N -0.883395 -2.504790 1.819793 0
M  V30 28 C -1.955736 -2.100608 2.585744 0
M  V30 29 N -1.785326 -1.852415 3.951385 0
M  V30 30 C -2.747592 -1.339108 4.876381 0
M  V30 31 C -2.893302 0.155202 4.666925 0
M  V30 32 C -4.092390 0.587941 4.110106 0
M  V30 33 C -4.363226 1.930788 3.785023 0
M  V30 34 C -3.304901 2.726078 4.086763 0
M  V30 35 F -3.487253 4.064015 3.793952 0
M  V30 36 C -2.088586 2.436551 4.627777 0
M  V30 37 F -1.077122 3.339567 4.873155 0
M  V30 38 C -1.891011 1.075534 4.928940 0
M  V30 39 C -0.525788 -2.143715 3.933220 0
M  V30 40 O -0.223739 -1.933130 5.267879 0
M  V30 41 H 2.491458 -2.115656 2.237609 0
M  V30 42 H 5.149291 -2.206798 2.633696 0
M  V30 43 H 4.524249 -3.657430 1.759424 0
M  V30 44 H 5.295425 0.443869 -1.449176 0
M  V30 45 H 4.729041 1.934507 -3.308645 0
M  V30 46 H 0.879491 2.922134 -5.589991 0
M  V30 47 H -2.679186 0.191733 -3.799451 0
M  V30 48 H -0.700406 -0.990435 -0.842735 0
M  V30 49 H -3.062142 -0.578208 -1.797921 0
M  V30 50 H -2.657278 -2.076821 -0.888215 0
M  V30 51 H -3.332848 -2.040719 -3.769117 0
M  V30 52 H -3.212822 -3.361207 -2.617776 0
M  V30 53 H -1.178178 -2.411368 -4.374265 0
M  V30 54 H -0.542692 -3.292484 -1.610510 0
M  V30 55 H 0.527560 -2.498393 -2.905161 0
M  V30 56 H 1.420694 -1.031332 -1.192829 0
M  V30 57 H 0.887479 -2.991443 1.492555 0
M  V30 58 H -2.972149 -1.957740 2.176435 0
M  V30 59 H -2.463727 -1.536578 5.903904 0
M  V30 60 H -3.732594 -1.795627 4.638681 0
M  V30 61 H -4.940509 -0.090400 3.886550 0
M  V30 62 H -5.301336 2.226001 3.354811 0
M  V30 63 H -0.969439 0.768401 5.361299 0
M  V30 END ATOM
M  V30 BEGIN BOND
M  V30 1 2 1 2
M  V30 2 1 2 3
M  V30 3 1 3 4
M  V30 4 1 4 5
M  V30 5 3 5 6
M  V30 6 1 6 7
M  V30 7 2 7 8
M  V30 8 1 8 9
M  V30 9 2 9 10
M  V30 10 1 10 11
M  V30 11 2 11 12
M  V30 12 1 12 13
M  V30 13 1 13 14
M  V30 14 2 14 15
M  V30 15 1 15 16
M  V30 16 1 16 17
M  V30 17 1 17 18
M  V30 18 1 18 19
M  V30 19 1 19 20
M  V30 20 1 20 21
M  V30 21 1 16 22
M  V30 22 1 22 23
M  V30 23 2 23 24
M  V30 24 1 2 25
M  V30 25 2 25 26
M  V30 26 1 26 27
M  V30 27 2 27 28
M  V30 28 1 28 29
M  V30 29 1 29 30
M  V30 30 1 30 31
M  V30 31 2 31 32
M  V30 32 1 32 33
M  V30 33 2 33 34
M  V30 34 1 34 35
M  V30 35 1 34 36
M  V30 36 1 36 37
M  V30 37 2 36 38
M  V30 38 1 29 39
M  V30 39 2 39 40
M  V30 40 1 24 7
M  V30 41 1 39 25
M  V30 42 1 23 10
M  V30 43 1 38 31
M  V30 44 2 22 13
M  V30 45 1 21 17
M  V30 46 1 3 41
M  V30 47 1 4 42
M  V30 48 1 4 43
M  V30 49 1 8 44
M  V30 50 1 9 45
M  V30 51 1 12 46
M  V30 52 1 15 47
M  V30 53 1 17 48 CFG=1
M  V30 54 1 18 49
M  V30 55 1 18 50
M  V30 56 1 19 51
M  V30 57 1 19 52
M  V30 58 1 20 53
M  V30 59 1 21 54
M  V30 60 1 21 55
M  V30 61 1 24 56
M  V30 62 1 26 57
M  V30 63 1 28 58
M  V30 64 1 30 59
M  V30 65 1 30 60
M  V30 66 1 32 61
M  V30 67 1 33 62
M  V30 68 1 38 63
M  V30 END BOND
M  V30 END CTAB
M  END
>  <Dataset>  (421) 
ChEMBL_Kinases

>  <Ligand_Instance>  (421) 
nan

>  <PDB_ID>  (421) 
nan

>  <Standardized_SMILES>  (421) 
O=C(NCC#Cc1ccc2ncc3ncn([C@H]4CCNC4)c3c2c1)c1cncn(Cc2ccc(F)c(F)c2)c1=O

>  <Name>  (421) 
nan

>  <Pocket>  (421) 
nan

>  <ATP_Site>  (421) 
nan

>  <Peripheral>  (421) 
nan

>  <Num_H_Atoms_ProtBoundConf>  (421) 
nan

>  <Num_Resolved_Atoms>  (421) 
nan

>  <Num_Not_Resolved_Atoms>  (421) 
nan

$$$$
CHEMBL3644693
     RDKit          3D

  0  0  0  0  0  0  0  0  0  0999 V3000
M  V30 BEGIN CTAB
M  V30 COUNTS 66 71 0 0 0
M  V30 BEGIN ATOM
M  V30 1 O 1.486282 -4.245759 4.263973 0
M  V30 2 C 1.064267 -3.047484 4.234027 0
M  V30 3 N 1.561979 -2.473952 3.047132 0
M  V30 4 C 2.374468 -3.417228 2.263010 0
M  V30 5 C 2.786340 -2.691953 1.059726 0
M  V30 6 C 3.111411 -2.102706 0.054138 0
M  V30 7 C 3.481608 -1.388999 -1.160072 0
M  V30 8 C 4.818550 -1.276540 -1.506492 0
M  V30 9 C 5.261617 -0.633388 -2.639961 0
M  V30 10 C 4.296647 -0.081192 -3.454717 0
M  V30 11 N 4.713731 0.548069 -4.566242 0
M  V30 12 C 3.856115 1.117573 -5.427969 0
M  V30 13 C 2.526571 1.013496 -5.096634 0
M  V30 14 N 1.461548 1.486029 -5.769929 0
M  V30 15 C 0.367230 1.125558 -5.034449 0
M  V30 16 N 0.683196 0.430793 -3.898066 0
M  V30 17 C -0.321866 -0.042013 -2.976713 0
M  V30 18 C -0.587481 -1.498478 -2.985380 0
M  V30 19 C -1.756633 -1.998443 -3.761984 0
M  V30 20 N -2.111756 -1.121941 -4.864017 0
M  V30 21 C -2.501172 0.140192 -4.294690 0
M  V30 22 C -1.630718 0.698066 -3.255440 0
M  V30 23 C 2.014855 0.388538 -3.981783 0
M  V30 24 C 2.954696 -0.159311 -3.165667 0
M  V30 25 C 2.551097 -0.805734 -2.030353 0
M  V30 26 C 0.231529 -2.384633 5.215179 0
M  V30 27 C -0.106597 -3.236095 6.272859 0
M  V30 28 N -0.894003 -2.762366 7.274485 0
M  V30 29 C -1.367014 -1.498081 7.292787 0
M  V30 30 N -1.046932 -0.675281 6.281917 0
M  V30 31 C -1.507327 0.690404 6.214433 0
M  V30 32 C -2.814949 0.801563 5.492673 0
M  V30 33 C -4.012446 0.645628 6.159805 0
M  V30 34 C -5.263989 0.727682 5.593951 0
M  V30 35 C -5.283502 0.993219 4.220367 0
M  V30 36 F -6.503637 1.080746 3.619117 0
M  V30 37 C -4.129899 1.159911 3.492384 0
M  V30 38 F -4.205324 1.417102 2.152164 0
M  V30 39 C -2.902430 1.061142 4.143239 0
M  V30 40 C -0.272539 -1.108320 5.278596 0
M  V30 41 O 0.068508 -0.397943 4.303247 0
M  V30 42 H 1.354075 -1.485910 2.788415 0
M  V30 43 H 1.747997 -4.302494 1.980103 0
M  V30 44 H 3.227023 -3.807473 2.816712 0
M  V30 45 H 5.589874 -1.700469 -0.883355 0
M  V30 46 H 6.299929 -0.541848 -2.918217 0
M  V30 47 H 4.174703 1.628006 -6.325751 0
M  V30 48 H -0.569300 1.446976 -5.461132 0
M  V30 49 H -0.090150 0.338008 -1.922098 0
M  V30 50 H 0.320875 -1.998174 -3.435549 0
M  V30 51 H -0.734966 -1.908082 -1.934440 0
M  V30 52 H -1.527363 -2.984100 -4.204748 0
M  V30 53 H -2.639836 -2.151701 -3.102322 0
M  V30 54 H -1.381956 -1.099029 -5.577746 0
M  V30 55 H -2.780740 0.797160 -5.144046 0
M  V30 56 H -3.520863 -0.072776 -3.819126 0
M  V30 57 H -2.185230 0.730507 -2.277755 0
M  V30 58 H -1.427968 1.768789 -3.487691 0
M  V30 59 H 1.589172 -0.966650 -1.629683 0
M  V30 60 H 0.138491 -4.263894 6.480604 0
M  V30 61 H -1.994162 -1.087611 8.069958 0
M  V30 62 H -1.588977 1.072137 7.254888 0
M  V30 63 H -0.719823 1.288762 5.711710 0
M  V30 64 H -3.968271 0.441340 7.223639 0
M  V30 65 H -6.192881 0.607116 6.106293 0
M  V30 66 H -2.014904 1.199239 3.549923 0
M  V30 END ATOM
M  V30 BEGIN BOND
M  V30 1 2 1 2
M  V30 2 1 2 3
M  V30 3 1 3 4
M  V30 4 1 4 5
M  V30 5 3 5 6
M  V30 6 1 6 7
M  V30 7 2 7 8
M  V30 8 1 8 9
M  V30 9 2 9 10
M  V30 10 1 10 11
M  V30 11 2 11 12
M  V30 12 1 12 13
M  V30 13 1 13 14
M  V30 14 2 14 15
M  V30 15 1 15 16
M  V30 16 1 16 17
M  V30 17 1 17 18
M  V30 18 1 18 19
M  V30 19 1 19 20
M  V30 20 1 20 21
M  V30 21 1 21 22
M  V30 22 1 16 23
M  V30 23 1 23 24
M  V30 24 2 24 25
M  V30 25 1 2 26
M  V30 26 2 26 27
M  V30 27 1 27 28
M  V30 28 2 28 29
M  V30 29 1 29 30
M  V30 30 1 30 31
M  V30 31 1 31 32
M  V30 32 2 32 33
M  V30 33 1 33 34
M  V30 34 2 34 35
M  V30 35 1 35 36
M  V30 36 1 35 37
M  V30 37 1 37 38
M  V30 38 2 37 39
M  V30 39 1 30 40
M  V30 40 2 40 41
M  V30 41 1 25 7
M  V30 42 1 40 26
M  V30 43 1 24 10
M  V30 44 1 39 32
M  V30 45 2 23 13
M  V30 46 1 22 17
M  V30 47 1 3 42
M  V30 48 1 4 43
M  V30 49 1 4 44
M  V30 50 1 8 45
M  V30 51 1 9 46
M  V30 52 1 12 47
M  V30 53 1 15 48
M  V30 54 1 17 49
M  V30 55 1 18 50
M  V30 56 1 18 51
M  V30 57 1 19 52
M  V30 58 1 19 53
M  V30 59 1 20 54
M  V30 60 1 21 55
M  V30 61 1 21 56
M  V30 62 1 22 57
M  V30 63 1 22 58
M  V30 64 1 25 59
M  V30 65 1 27 60
M  V30 66 1 29 61
M  V30 67 1 31 62
M  V30 68 1 31 63
M  V30 69 1 33 64
M  V30 70 1 34 65
M  V30 71 1 39 66
M  V30 END BOND
M  V30 END CTAB
M  END
>  <Dataset>  (422) 
ChEMBL_Kinases

>  <Ligand_Instance>  (422) 
nan

>  <PDB_ID>  (422) 
nan

>  <Standardized_SMILES>  (422) 
O=C(NCC#Cc1ccc2ncc3ncn(C4CCNCC4)c3c2c1)c1cncn(Cc2ccc(F)c(F)c2)c1=O

>  <Name>  (422) 
nan

>  <Pocket>  (422) 
nan

>  <ATP_Site>  (422) 
nan

>  <Peripheral>  (422) 
nan

>  <Num_H_Atoms_ProtBoundConf>  (422) 
nan

>  <Num_Resolved_Atoms>  (422) 
nan

>  <Num_Not_Resolved_Atoms>  (422) 
nan

$$$$
CHEMBL3643996
     RDKit          3D

  0  0  0  0  0  0  0  0  0  0999 V3000
M  V30 BEGIN CTAB
M  V30 COUNTS 42 43 0 0 0
M  V30 BEGIN ATOM
M  V30 1 C 1.793833 -5.307078 -3.182610 0
M  V30 2 N 2.212056 -5.797956 -1.872818 0
M  V30 3 C 2.033605 -4.875595 -0.807284 0
M  V30 4 N 1.540219 -3.662226 -0.907624 0
M  V30 5 C 1.374204 -2.813658 0.094953 0
M  V30 6 N 0.852225 -1.547168 -0.250877 0
M  V30 7 C 0.585263 -0.379219 0.538333 0
M  V30 8 C 0.769555 -0.470736 1.925194 0
M  V30 9 C 0.540365 0.592422 2.769778 0
M  V30 10 F 0.696497 0.586445 4.124317 0
M  V30 11 C 0.112496 1.809001 2.253078 0
M  V30 12 C -0.200880 3.047347 2.946252 0
M  V30 13 O 0.967812 3.569627 2.949274 0
M  V30 14 N -1.366229 3.625143 3.498594 0
M  V30 15 C -1.272628 4.912782 4.140582 0
M  V30 16 C -2.597761 2.872739 3.356767 0
M  V30 17 C -0.062652 1.875234 0.888773 0
M  V30 18 C 0.150931 0.834316 -0.025367 0
M  V30 19 O 0.017387 0.789912 -1.331798 0
M  V30 20 C -0.347052 1.585656 -2.376061 0
M  V30 21 N 1.741573 -3.241617 1.305238 0
M  V30 22 C 2.267226 -4.467606 1.567167 0
M  V30 23 C 2.401154 -5.290681 0.415832 0
M  V30 24 C 2.955538 -6.574128 0.746100 0
M  V30 25 N 3.410261 -7.624945 0.998609 0
M  V30 26 H 1.548984 -6.171891 -3.860229 0
M  V30 27 H 2.604407 -4.757119 -3.705700 0
M  V30 28 H 0.909535 -4.625585 -3.117111 0
M  V30 29 H 2.608861 -6.750257 -1.753030 0
M  V30 30 H 0.589435 -1.385888 -1.260350 0
M  V30 31 H 1.088228 -1.321760 2.482171 0
M  V30 32 H -0.706062 5.651822 3.548945 0
M  V30 33 H -2.322878 5.249100 4.345324 0
M  V30 34 H -0.831075 4.792903 5.150742 0
M  V30 35 H -3.216306 3.310023 2.511468 0
M  V30 36 H -2.406408 1.824694 3.044105 0
M  V30 37 H -3.244359 2.900007 4.233558 0
M  V30 38 H -0.402705 2.771615 0.351088 0
M  V30 39 H -1.429243 1.904843 -2.359520 0
M  V30 40 H -0.297363 0.932542 -3.307491 0
M  V30 41 H 0.295189 2.449535 -2.640197 0
M  V30 42 H 2.501652 -4.615138 2.603540 0
M  V30 END ATOM
M  V30 BEGIN BOND
M  V30 1 1 1 2
M  V30 2 1 2 3
M  V30 3 2 3 4
M  V30 4 1 4 5
M  V30 5 1 5 6
M  V30 6 1 6 7
M  V30 7 2 7 8
M  V30 8 1 8 9
M  V30 9 1 9 10
M  V30 10 2 9 11
M  V30 11 1 11 12
M  V30 12 2 12 13
M  V30 13 1 12 14
M  V30 14 1 14 15
M  V30 15 1 14 16
M  V30 16 1 11 17
M  V30 17 2 17 18
M  V30 18 1 18 19
M  V30 19 1 19 20
M  V30 20 2 5 21
M  V30 21 1 21 22
M  V30 22 2 22 23
M  V30 23 1 23 24
M  V30 24 3 24 25
M  V30 25 1 23 3
M  V30 26 1 18 7
M  V30 27 1 1 26
M  V30 28 1 1 27
M  V30 29 1 1 28
M  V30 30 1 2 29
M  V30 31 1 6 30
M  V30 32 1 8 31
M  V30 33 1 15 32
M  V30 34 1 15 33
M  V30 35 1 15 34
M  V30 36 1 16 35
M  V30 37 1 16 36
M  V30 38 1 16 37
M  V30 39 1 17 38
M  V30 40 1 20 39
M  V30 41 1 20 40
M  V30 42 1 20 41
M  V30 43 1 22 42
M  V30 END BOND
M  V30 END CTAB
M  END
>  <Dataset>  (423) 
ChEMBL_Kinases

>  <Ligand_Instance>  (423) 
nan

>  <PDB_ID>  (423) 
nan

>  <Standardized_SMILES>  (423) 
CNc1nc(Nc2cc(F)c(C(=O)N(C)C)cc2OC)ncc1C#N

>  <Name>  (423) 
nan

>  <Pocket>  (423) 
nan

>  <ATP_Site>  (423) 
nan

>  <Peripheral>  (423) 
nan

>  <Num_H_Atoms_ProtBoundConf>  (423) 
nan

>  <Num_Resolved_Atoms>  (423) 
nan

>  <Num_Not_Resolved_Atoms>  (423) 
nan

$$$$
CHEMBL3644031
     RDKit          3D

  0  0  0  0  0  0  0  0  0  0999 V3000
M  V30 BEGIN CTAB
M  V30 COUNTS 48 50 0 0 0
M  V30 BEGIN ATOM
M  V30 1 C 0.285568 -6.612988 -0.833095 0
M  V30 2 S 0.572546 -5.666422 -2.300822 0
M  V30 3 O 2.065621 -5.518693 -2.534141 0
M  V30 4 O 0.010172 -6.377325 -3.499547 0
M  V30 5 C -0.107952 -4.070321 -2.220718 0
M  V30 6 C 0.678184 -3.039933 -1.731278 0
M  V30 7 C 0.125282 -1.799040 -1.673662 0
M  V30 8 C -1.146719 -1.429079 -2.048888 0
M  V30 9 N -1.650588 -0.103697 -1.949440 0
M  V30 10 C -0.706153 0.824555 -1.418159 0
M  V30 11 N 0.127563 1.593368 -2.153670 0
M  V30 12 C 0.997223 2.440377 -1.565814 0
M  V30 13 C 1.079362 2.563727 -0.198167 0
M  V30 14 C 2.028592 3.487747 0.437624 0
M  V30 15 F 2.898641 2.794573 1.257905 0
M  V30 16 F 2.788902 4.097673 -0.571421 0
M  V30 17 F 1.465630 4.510963 1.139014 0
M  V30 18 C 0.230395 1.780557 0.550311 0
M  V30 19 O 0.213815 1.807764 1.933248 0
M  V30 20 C -0.632387 1.039733 2.737624 0
M  V30 21 C -1.439745 1.768059 3.742645 0
M  V30 22 C -0.871706 1.920930 5.099824 0
M  V30 23 C 0.502833 1.460499 5.363902 0
M  V30 24 C 1.014147 0.355434 4.502703 0
M  V30 25 C 0.058651 -0.100379 3.444858 0
M  V30 26 N -0.621534 0.949688 -0.083658 0
M  V30 27 C -1.930167 -2.476033 -2.540976 0
M  V30 28 C -1.404630 -3.766218 -2.618428 0
M  V30 29 H 1.155786 -6.550980 -0.115488 0
M  V30 30 H 0.232173 -7.690457 -1.137857 0
M  V30 31 H -0.665332 -6.330607 -0.361395 0
M  V30 32 H 1.709662 -3.225590 -1.403884 0
M  V30 33 H 0.786096 -1.014615 -1.279739 0
M  V30 34 H -2.627814 0.062400 -2.263339 0
M  V30 35 H 1.616368 3.007788 -2.238886 0
M  V30 36 H -1.332726 0.532283 2.017013 0
M  V30 37 H -2.455753 1.269817 3.790208 0
M  V30 38 H -1.697311 2.772254 3.284560 0
M  V30 39 H -1.580898 1.456108 5.839732 0
M  V30 40 H -0.925603 3.016886 5.373419 0
M  V30 41 H 0.562427 1.106383 6.430615 0
M  V30 42 H 1.228607 2.301878 5.337459 0
M  V30 43 H 1.270205 -0.562500 5.099938 0
M  V30 44 H 1.963433 0.636656 3.990925 0
M  V30 45 H -0.753402 -0.668739 3.963436 0
M  V30 46 H 0.548326 -0.810135 2.761547 0
M  V30 47 H -2.944986 -2.293715 -2.865418 0
M  V30 48 H -1.976778 -4.617846 -2.995894 0
M  V30 END ATOM
M  V30 BEGIN BOND
M  V30 1 1 1 2
M  V30 2 2 2 3
M  V30 3 2 2 4
M  V30 4 1 2 5
M  V30 5 2 5 6
M  V30 6 1 6 7
M  V30 7 2 7 8
M  V30 8 1 8 9
M  V30 9 1 9 10
M  V30 10 2 10 11
M  V30 11 1 11 12
M  V30 12 2 12 13
M  V30 13 1 13 14
M  V30 14 1 14 15
M  V30 15 1 14 16
M  V30 16 1 14 17
M  V30 17 1 13 18
M  V30 18 1 18 19
M  V30 19 1 19 20
M  V30 20 1 20 21
M  V30 21 1 21 22
M  V30 22 1 22 23
M  V30 23 1 23 24
M  V30 24 1 24 25
M  V30 25 2 18 26
M  V30 26 1 8 27
M  V30 27 2 27 28
M  V30 28 1 28 5
M  V30 29 1 26 10
M  V30 30 1 25 20
M  V30 31 1 1 29
M  V30 32 1 1 30
M  V30 33 1 1 31
M  V30 34 1 6 32
M  V30 35 1 7 33
M  V30 36 1 9 34
M  V30 37 1 12 35
M  V30 38 1 20 36
M  V30 39 1 21 37
M  V30 40 1 21 38
M  V30 41 1 22 39
M  V30 42 1 22 40
M  V30 43 1 23 41
M  V30 44 1 23 42
M  V30 45 1 24 43
M  V30 46 1 24 44
M  V30 47 1 25 45
M  V30 48 1 25 46
M  V30 49 1 27 47
M  V30 50 1 28 48
M  V30 END BOND
M  V30 END CTAB
M  END
>  <Dataset>  (424) 
ChEMBL_Kinases

>  <Ligand_Instance>  (424) 
nan

>  <PDB_ID>  (424) 
nan

>  <Standardized_SMILES>  (424) 
CS(=O)(=O)c1ccc(Nc2ncc(C(F)(F)F)c(OC3CCCCC3)n2)cc1

>  <Name>  (424) 
nan

>  <Pocket>  (424) 
nan

>  <ATP_Site>  (424) 
nan

>  <Peripheral>  (424) 
nan

>  <Num_H_Atoms_ProtBoundConf>  (424) 
nan

>  <Num_Resolved_Atoms>  (424) 
nan

>  <Num_Not_Resolved_Atoms>  (424) 
nan

$$$$
CHEMBL364413
     RDKit          3D

  0  0  0  0  0  0  0  0  0  0999 V3000
M  V30 BEGIN CTAB
M  V30 COUNTS 30 32 0 0 0
M  V30 BEGIN ATOM
M  V30 1 C -1.828185 -2.498683 0.177916 0
M  V30 2 C -1.037545 -1.984547 1.330671 0
M  V30 3 N -0.126750 -0.927785 1.051796 0
M  V30 4 C 1.134871 -1.015019 0.632290 0
M  V30 5 C 2.032629 -2.083338 0.265593 0
M  V30 6 N 3.314661 -1.895451 -0.090528 0
M  V30 7 O 3.948264 -2.972683 -0.355228 0
M  V30 8 N 3.135452 -3.985594 -0.197597 0
M  V30 9 C 1.957694 -3.434648 0.183809 0
M  V30 10 N 0.882111 -4.267864 0.407137 0
M  V30 11 N 1.530900 0.267302 0.587704 0
M  V30 12 C 0.581839 1.124431 0.953769 0
M  V30 13 C 0.632335 2.494811 1.026428 0
M  V30 14 C 1.878835 3.214177 0.666368 0
M  V30 15 N -0.523073 3.091841 1.442357 0
M  V30 16 C -1.614697 2.374043 1.751943 0
M  V30 17 C -1.658859 0.998440 1.676886 0
M  V30 18 C -0.511156 0.357231 1.260603 0
M  V30 19 H -2.801083 -1.971197 0.097599 0
M  V30 20 H -1.275235 -2.456975 -0.790327 0
M  V30 21 H -2.091542 -3.580984 0.366429 0
M  V30 22 H -1.813021 -1.632471 2.097092 0
M  V30 23 H -0.535731 -2.786540 1.885774 0
M  V30 24 H 0.078343 -4.890511 0.574038 0
M  V30 25 H 0.206163 -4.911869 -0.097138 0
M  V30 26 H 1.707725 4.262515 0.407575 0
M  V30 27 H 2.641686 3.125484 1.490388 0
M  V30 28 H 2.376782 2.722781 -0.211189 0
M  V30 29 H -2.516696 2.878492 2.079137 0
M  V30 30 H -2.503844 0.367470 1.911612 0
M  V30 END ATOM
M  V30 BEGIN BOND
M  V30 1 1 1 2
M  V30 2 1 2 3
M  V30 3 1 3 4
M  V30 4 1 4 5
M  V30 5 2 5 6
M  V30 6 1 6 7
M  V30 7 1 7 8
M  V30 8 2 8 9
M  V30 9 1 9 10
M  V30 10 2 4 11
M  V30 11 1 11 12
M  V30 12 2 12 13
M  V30 13 1 13 14
M  V30 14 1 13 15
M  V30 15 2 15 16
M  V30 16 1 16 17
M  V30 17 2 17 18
M  V30 18 1 18 3
M  V30 19 1 9 5
M  V30 20 1 18 12
M  V30 21 1 1 19
M  V30 22 1 1 20
M  V30 23 1 1 21
M  V30 24 1 2 22
M  V30 25 1 2 23
M  V30 26 1 10 24
M  V30 27 1 10 25
M  V30 28 1 14 26
M  V30 29 1 14 27
M  V30 30 1 14 28
M  V30 31 1 16 29
M  V30 32 1 17 30
M  V30 END BOND
M  V30 END CTAB
M  END
>  <Dataset>  (425) 
ChEMBL_Kinases

>  <Ligand_Instance>  (425) 
nan

>  <PDB_ID>  (425) 
nan

>  <Standardized_SMILES>  (425) 
CCn1c(-c2nonc2N)nc2c(C)nccc21

>  <Name>  (425) 
nan

>  <Pocket>  (425) 
nan

>  <ATP_Site>  (425) 
nan

>  <Peripheral>  (425) 
nan

>  <Num_H_Atoms_ProtBoundConf>  (425) 
nan

>  <Num_Resolved_Atoms>  (425) 
nan

>  <Num_Not_Resolved_Atoms>  (425) 
nan

$$$$
CHEMBL364441
     RDKit          3D

  0  0  0  0  0  0  0  0  0  0999 V3000
M  V30 BEGIN CTAB
M  V30 COUNTS 49 52 0 0 0
M  V30 BEGIN ATOM
M  V30 1 C -2.828653 -3.524289 4.208797 0
M  V30 2 C -1.628606 -3.543393 3.323587 0
M  V30 3 C -0.694292 -4.560382 3.448839 0
M  V30 4 C 0.423972 -4.606780 2.648557 0
M  V30 5 C 0.662333 -3.643032 1.687584 0
M  V30 6 C -0.268526 -2.618141 1.553015 0
M  V30 7 C -0.197149 -1.497429 0.591668 0
M  V30 8 N 0.864428 -0.685545 0.729459 0
M  V30 9 C 1.044821 0.260274 0.018573 0
M  V30 10 C 2.123831 1.310089 -0.044828 0
M  V30 11 C 2.044919 2.300888 -0.999150 0
M  V30 12 C 3.091162 3.208244 -0.963909 0
M  V30 13 C 4.145337 3.154305 -0.058916 0
M  V30 14 S 5.421574 4.362280 -0.107942 0
M  V30 15 C 4.971691 5.731350 0.956525 0
M  V30 16 O 6.654648 3.699862 0.451644 0
M  V30 17 O 5.668477 4.856194 -1.495064 0
M  V30 18 C 4.135687 2.120143 0.862466 0
M  V30 19 C 3.114669 1.185822 0.872083 0
M  V30 20 S -0.316786 0.321382 -1.160084 0
M  V30 21 C -1.117799 -1.231777 -0.408850 0
M  V30 22 C -2.285000 -1.999976 -0.675442 0
M  V30 23 C -2.037468 -3.304797 -1.047551 0
M  V30 24 C -3.047324 -4.198968 -1.345871 0
M  V30 25 N -4.301219 -3.731285 -1.255298 0
M  V30 26 C -4.580320 -2.467293 -0.896391 0
M  V30 27 C -5.973364 -1.988335 -0.807946 0
M  V30 28 C -3.589721 -1.551660 -0.592472 0
M  V30 29 C -1.398739 -2.574268 2.364562 0
M  V30 30 H -3.568692 -2.792700 3.811119 0
M  V30 31 H -3.317448 -4.512855 4.262226 0
M  V30 32 H -2.526705 -3.163976 5.216891 0
M  V30 33 H -0.821707 -5.359520 4.192854 0
M  V30 34 H 1.197394 -5.382136 2.698389 0
M  V30 35 H 1.506133 -3.589677 1.011726 0
M  V30 36 H 1.242753 2.367002 -1.710884 0
M  V30 37 H 3.063224 4.012806 -1.709135 0
M  V30 38 H 4.711634 6.591558 0.334555 0
M  V30 39 H 5.742110 5.929024 1.729543 0
M  V30 40 H 4.050977 5.463733 1.516420 0
M  V30 41 H 4.943833 2.040606 1.590443 0
M  V30 42 H 3.114388 0.373552 1.600953 0
M  V30 43 H -1.028629 -3.733714 -1.136011 0
M  V30 44 H -2.867869 -5.229102 -1.640267 0
M  V30 45 H -6.661398 -2.849156 -1.008320 0
M  V30 46 H -6.260294 -1.582578 0.163979 0
M  V30 47 H -6.139204 -1.148321 -1.542495 0
M  V30 48 H -3.738746 -0.521488 -0.296892 0
M  V30 49 H -2.151436 -1.803992 2.302858 0
M  V30 END ATOM
M  V30 BEGIN BOND
M  V30 1 1 1 2
M  V30 2 2 2 3
M  V30 3 1 3 4
M  V30 4 2 4 5
M  V30 5 1 5 6
M  V30 6 1 6 7
M  V30 7 1 7 8
M  V30 8 2 8 9
M  V30 9 1 9 10
M  V30 10 2 10 11
M  V30 11 1 11 12
M  V30 12 2 12 13
M  V30 13 1 13 14
M  V30 14 1 14 15
M  V30 15 2 14 16
M  V30 16 2 14 17
M  V30 17 1 13 18
M  V30 18 2 18 19
M  V30 19 1 9 20
M  V30 20 1 20 21
M  V30 21 1 21 22
M  V30 22 2 22 23
M  V30 23 1 23 24
M  V30 24 2 24 25
M  V30 25 1 25 26
M  V30 26 1 26 27
M  V30 27 2 26 28
M  V30 28 2 6 29
M  V30 29 1 29 2
M  V30 30 2 21 7
M  V30 31 1 28 22
M  V30 32 1 19 10
M  V30 33 1 1 30
M  V30 34 1 1 31
M  V30 35 1 1 32
M  V30 36 1 3 33
M  V30 37 1 4 34
M  V30 38 1 5 35
M  V30 39 1 11 36
M  V30 40 1 12 37
M  V30 41 1 15 38
M  V30 42 1 15 39
M  V30 43 1 15 40
M  V30 44 1 18 41
M  V30 45 1 19 42
M  V30 46 1 23 43
M  V30 47 1 24 44
M  V30 48 1 27 45
M  V30 49 1 27 46
M  V30 50 1 27 47
M  V30 51 1 28 48
M  V30 52 1 29 49
M  V30 END BOND
M  V30 END CTAB
M  END
>  <Dataset>  (426) 
ChEMBL_Kinases

>  <Ligand_Instance>  (426) 
nan

>  <PDB_ID>  (426) 
nan

>  <Standardized_SMILES>  (426) 
Cc1cccc(-c2nc(-c3ccc(S(C)(=O)=O)cc3)sc2-c2ccnc(C)c2)c1

>  <Name>  (426) 
nan

>  <Pocket>  (426) 
nan

>  <ATP_Site>  (426) 
nan

>  <Peripheral>  (426) 
nan

>  <Num_H_Atoms_ProtBoundConf>  (426) 
nan

>  <Num_Resolved_Atoms>  (426) 
nan

>  <Num_Not_Resolved_Atoms>  (426) 
nan

$$$$
CHEMBL364448
     RDKit          3D

  0  0  0  0  0  0  0  0  0  0999 V3000
M  V30 BEGIN CTAB
M  V30 COUNTS 55 58 0 0 0
M  V30 BEGIN ATOM
M  V30 1 C 0.001480 -1.660250 3.803522 0
M  V30 2 C 0.673994 -0.395879 3.402431 0
M  V30 3 N 0.476348 0.657778 4.433905 0
M  V30 4 C 2.108788 -0.458279 3.007306 0
M  V30 5 N 2.393703 -1.235061 1.889367 0
M  V30 6 C 3.811602 -1.173352 1.495939 0
M  V30 7 C 3.726315 -0.922335 -0.032913 0
M  V30 8 C 2.655560 -1.834989 -0.595628 0
M  V30 9 C 1.344625 -1.183422 -0.739950 0
M  V30 10 C 0.957859 0.133270 -0.711976 0
M  V30 11 C -0.419008 0.249624 -0.851887 0
M  V30 12 C -1.132049 1.516457 -0.850264 0
M  V30 13 C -1.168766 2.341740 -1.953236 0
M  V30 14 C -1.866079 3.527412 -1.848767 0
M  V30 15 N -2.514356 3.920536 -0.721038 0
M  V30 16 C -2.490684 3.133512 0.360340 0
M  V30 17 C -1.802778 1.951181 0.274319 0
M  V30 18 C -0.846960 -1.036869 -0.965777 0
M  V30 19 C -2.240677 -1.446756 -1.120814 0
M  V30 20 C -3.253383 -1.230626 -0.205786 0
M  V30 21 C -4.528438 -1.663415 -0.434302 0
M  V30 22 C -4.820460 -2.332889 -1.602094 0
M  V30 23 F -6.093643 -2.772153 -1.838296 0
M  V30 24 C -3.812130 -2.561440 -2.540534 0
M  V30 25 C -2.525428 -2.125246 -2.311752 0
M  V30 26 N 0.213543 -1.897309 -0.899354 0
M  V30 27 C 2.459000 -3.022388 0.342256 0
M  V30 28 C 1.900264 -2.528555 1.685313 0
M  V30 29 H -0.559888 -1.425547 4.778172 0
M  V30 30 H 0.702712 -2.470841 4.001663 0
M  V30 31 H -0.853976 -1.968315 3.135373 0
M  V30 32 H 0.041695 0.024442 2.542783 0
M  V30 33 H 0.831939 1.561045 4.046082 0
M  V30 34 H -0.567508 0.759155 4.504755 0
M  V30 35 H 2.539696 0.591289 2.919956 0
M  V30 36 H 2.661830 -0.826063 3.946498 0
M  V30 37 H 4.283157 -2.157048 1.627703 0
M  V30 38 H 4.301223 -0.364664 2.026374 0
M  V30 39 H 4.699457 -1.007518 -0.515269 0
M  V30 40 H 3.371198 0.115562 -0.131032 0
M  V30 41 H 2.983546 -2.226615 -1.556910 0
M  V30 42 H 1.623452 0.976808 -0.598824 0
M  V30 43 H -0.659726 2.061393 -2.879370 0
M  V30 44 H -1.900288 4.192531 -2.725329 0
M  V30 45 H -3.023419 3.510401 1.213035 0
M  V30 46 H -1.806866 1.337006 1.184959 0
M  V30 47 H -2.965265 -0.697964 0.700385 0
M  V30 48 H -5.277802 -1.454273 0.343202 0
M  V30 49 H -4.101960 -3.092135 -3.436030 0
M  V30 50 H -1.767315 -2.321182 -3.067311 0
M  V30 51 H 0.049216 -2.944977 -0.976332 0
M  V30 52 H 3.374394 -3.599310 0.518122 0
M  V30 53 H 1.699221 -3.672997 -0.097825 0
M  V30 54 H 0.803853 -2.563741 1.662810 0
M  V30 55 H 2.254267 -3.227678 2.469277 0
M  V30 END ATOM
M  V30 BEGIN BOND
M  V30 1 1 1 2
M  V30 2 1 2 3
M  V30 3 1 2 4
M  V30 4 1 4 5
M  V30 5 1 5 6
M  V30 6 1 6 7
M  V30 7 1 7 8
M  V30 8 1 8 9
M  V30 9 2 9 10
M  V30 10 1 10 11
M  V30 11 1 11 12
M  V30 12 2 12 13
M  V30 13 1 13 14
M  V30 14 2 14 15
M  V30 15 1 15 16
M  V30 16 2 16 17
M  V30 17 2 11 18
M  V30 18 1 18 19
M  V30 19 2 19 20
M  V30 20 1 20 21
M  V30 21 2 21 22
M  V30 22 1 22 23
M  V30 23 1 22 24
M  V30 24 2 24 25
M  V30 25 1 18 26
M  V30 26 1 8 27
M  V30 27 1 27 28
M  V30 28 1 28 5
M  V30 29 1 26 9
M  V30 30 1 17 12
M  V30 31 1 25 19
M  V30 32 1 1 29
M  V30 33 1 1 30
M  V30 34 1 1 31
M  V30 35 1 2 32
M  V30 36 1 3 33
M  V30 37 1 3 34
M  V30 38 1 4 35
M  V30 39 1 4 36
M  V30 40 1 6 37
M  V30 41 1 6 38
M  V30 42 1 7 39
M  V30 43 1 7 40
M  V30 44 1 8 41
M  V30 45 1 10 42
M  V30 46 1 13 43
M  V30 47 1 14 44
M  V30 48 1 16 45
M  V30 49 1 17 46
M  V30 50 1 20 47
M  V30 51 1 21 48
M  V30 52 1 24 49
M  V30 53 1 25 50
M  V30 54 1 26 51
M  V30 55 1 27 52
M  V30 56 1 27 53
M  V30 57 1 28 54
M  V30 58 1 28 55
M  V30 END BOND
M  V30 END CTAB
M  END
>  <Dataset>  (427) 
ChEMBL_Kinases

>  <Ligand_Instance>  (427) 
nan

>  <PDB_ID>  (427) 
nan

>  <Standardized_SMILES>  (427) 
CC(N)CN1CCC(c2cc(-c3ccncc3)c(-c3ccc(F)cc3)[nH]2)CC1

>  <Name>  (427) 
nan

>  <Pocket>  (427) 
nan

>  <ATP_Site>  (427) 
nan

>  <Peripheral>  (427) 
nan

>  <Num_H_Atoms_ProtBoundConf>  (427) 
nan

>  <Num_Resolved_Atoms>  (427) 
nan

>  <Num_Not_Resolved_Atoms>  (427) 
nan

$$$$
CHEMBL3644680
     RDKit          3D

  0  0  0  0  0  0  0  0  0  0999 V3000
M  V30 BEGIN CTAB
M  V30 COUNTS 51 55 0 0 0
M  V30 BEGIN ATOM
M  V30 1 O 0.992902 -0.650145 3.199308 0
M  V30 2 C 0.466580 -1.782589 2.916749 0
M  V30 3 N 1.484311 -2.761176 2.813746 0
M  V30 4 C 2.800802 -2.155241 3.064149 0
M  V30 5 C 3.046903 -1.090494 2.064776 0
M  V30 6 C 3.227217 -0.218656 1.245435 0
M  V30 7 C 3.418187 0.813601 0.263342 0
M  V30 8 C 3.973459 0.584298 -0.980435 0
M  V30 9 C 4.158737 1.574055 -1.927442 0
M  V30 10 C 3.755344 2.867585 -1.586136 0
M  V30 11 N 3.901250 3.871087 -2.443698 0
M  V30 12 C 3.556346 5.145868 -2.236099 0
M  V30 13 C 2.993591 5.385349 -0.979095 0
M  V30 14 N 2.526566 6.504188 -0.394980 0
M  V30 15 C 2.072627 6.244369 0.844983 0
M  V30 16 N 2.252754 4.922792 1.063769 0
M  V30 17 C 2.820182 4.379769 -0.053222 0
M  V30 18 C 3.201856 3.080877 -0.338731 0
M  V30 19 C 3.026334 2.076562 0.591676 0
M  V30 20 C -0.949627 -1.962515 2.744107 0
M  V30 21 C -1.731736 -0.818651 2.903558 0
M  V30 22 N -3.062192 -0.854310 2.768692 0
M  V30 23 C -3.728147 -1.970377 2.476102 0
M  V30 24 N -3.008987 -3.088455 2.315897 0
M  V30 25 C -3.681454 -4.314346 1.999956 0
M  V30 26 C -3.797472 -4.483218 0.532835 0
M  V30 27 C -2.909252 -5.102183 -0.319511 0
M  V30 28 C -3.159362 -5.179183 -1.669435 0
M  V30 29 C -4.292818 -4.654188 -2.257533 0
M  V30 30 F -4.433166 -4.788078 -3.588799 0
M  V30 31 C -5.177617 -4.036575 -1.401910 0
M  V30 32 F -6.299836 -3.518049 -1.992175 0
M  V30 33 C -4.945070 -3.948919 -0.045160 0
M  V30 34 C -1.675659 -3.073624 2.446777 0
M  V30 35 O -1.007415 -4.121545 2.296101 0
M  V30 36 H 1.225925 -3.725792 2.591271 0
M  V30 37 H 3.601878 -2.899426 2.911723 0
M  V30 38 H 2.869167 -1.749015 4.087350 0
M  V30 39 H 4.261872 -0.438539 -1.175554 0
M  V30 40 H 4.598063 1.339823 -2.885142 0
M  V30 41 H 3.681268 5.951719 -2.943726 0
M  V30 42 H 1.632341 6.887501 1.601049 0
M  V30 43 H 1.997659 4.403670 1.946732 0
M  V30 44 H 2.583978 2.294991 1.564691 0
M  V30 45 H -1.271432 0.151074 3.146435 0
M  V30 46 H -4.794459 -2.026328 2.362400 0
M  V30 47 H -4.698639 -4.380933 2.455730 0
M  V30 48 H -3.076383 -5.187387 2.383972 0
M  V30 49 H -2.032668 -5.505441 0.153532 0
M  V30 50 H -2.421274 -5.681842 -2.303813 0
M  V30 51 H -5.725731 -3.438667 0.490414 0
M  V30 END ATOM
M  V30 BEGIN BOND
M  V30 1 2 1 2
M  V30 2 1 2 3
M  V30 3 1 3 4
M  V30 4 1 4 5
M  V30 5 3 5 6
M  V30 6 1 6 7
M  V30 7 2 7 8
M  V30 8 1 8 9
M  V30 9 2 9 10
M  V30 10 1 10 11
M  V30 11 2 11 12
M  V30 12 1 12 13
M  V30 13 1 13 14
M  V30 14 2 14 15
M  V30 15 1 15 16
M  V30 16 1 16 17
M  V30 17 1 17 18
M  V30 18 2 18 19
M  V30 19 1 2 20
M  V30 20 2 20 21
M  V30 21 1 21 22
M  V30 22 2 22 23
M  V30 23 1 23 24
M  V30 24 1 24 25
M  V30 25 1 25 26
M  V30 26 2 26 27
M  V30 27 1 27 28
M  V30 28 2 28 29
M  V30 29 1 29 30
M  V30 30 1 29 31
M  V30 31 1 31 32
M  V30 32 2 31 33
M  V30 33 1 24 34
M  V30 34 2 34 35
M  V30 35 1 19 7
M  V30 36 1 34 20
M  V30 37 1 18 10
M  V30 38 1 33 26
M  V30 39 2 17 13
M  V30 40 1 3 36
M  V30 41 1 4 37
M  V30 42 1 4 38
M  V30 43 1 8 39
M  V30 44 1 9 40
M  V30 45 1 12 41
M  V30 46 1 15 42
M  V30 47 1 16 43
M  V30 48 1 19 44
M  V30 49 1 21 45
M  V30 50 1 23 46
M  V30 51 1 25 47
M  V30 52 1 25 48
M  V30 53 1 27 49
M  V30 54 1 28 50
M  V30 55 1 33 51
M  V30 END BOND
M  V30 END CTAB
M  END
>  <Dataset>  (428) 
ChEMBL_Kinases

>  <Ligand_Instance>  (428) 
nan

>  <PDB_ID>  (428) 
nan

>  <Standardized_SMILES>  (428) 
O=C(NCC#Cc1ccc2ncc3nc[nH]c3c2c1)c1cncn(Cc2ccc(F)c(F)c2)c1=O

>  <Name>  (428) 
nan

>  <Pocket>  (428) 
nan

>  <ATP_Site>  (428) 
nan

>  <Peripheral>  (428) 
nan

>  <Num_H_Atoms_ProtBoundConf>  (428) 
nan

>  <Num_Resolved_Atoms>  (428) 
nan

>  <Num_Not_Resolved_Atoms>  (428) 
nan

$$$$
CHEMBL3644681
     RDKit          3D

  0  0  0  0  0  0  0  0  0  0999 V3000
M  V30 BEGIN CTAB
M  V30 COUNTS 58 62 0 0 0
M  V30 BEGIN ATOM
M  V30 1 O 0.924692 -4.849048 3.112877 0
M  V30 2 C 1.145177 -4.321345 1.970919 0
M  V30 3 N 1.092352 -2.910083 2.115609 0
M  V30 4 C 0.823778 -2.311307 3.402371 0
M  V30 5 C 0.817779 -0.846563 3.312281 0
M  V30 6 C 0.831470 0.353733 3.229570 0
M  V30 7 C 0.837174 1.783157 3.108225 0
M  V30 8 C 2.064797 2.399500 3.270323 0
M  V30 9 C 2.237196 3.763993 3.183176 0
M  V30 10 C 1.111098 4.506479 2.922112 0
M  V30 11 N 1.283783 5.859324 2.838049 0
M  V30 12 C 0.242513 6.673998 2.587965 0
M  V30 13 C -0.972498 6.052740 2.428874 0
M  V30 14 N -2.172827 6.602417 2.179293 0
M  V30 15 C -3.072297 5.596622 2.110548 0
M  V30 16 N -2.493063 4.366631 2.311367 0
M  V30 17 C -3.270856 3.188037 2.263734 0
M  V30 18 C -3.450152 2.576389 0.891112 0
M  V30 19 O -2.229134 2.259576 0.342341 0
M  V30 20 C -1.221461 4.698648 2.499501 0
M  V30 21 C -0.120884 3.935170 2.755454 0
M  V30 22 C -0.256960 2.580785 2.847877 0
M  V30 23 C 1.404064 -5.057763 0.743901 0
M  V30 24 C 1.390265 -6.447717 0.930090 0
M  V30 25 N 1.611305 -7.280645 -0.100231 0
M  V30 26 C 1.854932 -6.851287 -1.349707 0
M  V30 27 N 1.866472 -5.521145 -1.519598 0
M  V30 28 C 2.119576 -4.959107 -2.831302 0
M  V30 29 C 0.884145 -4.757707 -3.628332 0
M  V30 30 C 0.504427 -5.839166 -4.413493 0
M  V30 31 C -0.598800 -5.834147 -5.208366 0
M  V30 32 C -1.365660 -4.681158 -5.217988 0
M  V30 33 F -2.487814 -4.616342 -5.998311 0
M  V30 34 C -1.037335 -3.560784 -4.451582 0
M  V30 35 F -1.784373 -2.427865 -4.456445 0
M  V30 36 C 0.094195 -3.628160 -3.665721 0
M  V30 37 C 1.655645 -4.652737 -0.542939 0
M  V30 38 O 1.660035 -3.416748 -0.668662 0
M  V30 39 H 1.250025 -2.308784 1.279697 0
M  V30 40 H 1.661269 -2.600915 4.087056 0
M  V30 41 H -0.112104 -2.648216 3.866219 0
M  V30 42 H 2.953904 1.828829 3.475334 0
M  V30 43 H 3.190713 4.254572 3.307960 0
M  V30 44 H 0.354209 7.739362 2.517408 0
M  V30 45 H -4.101997 5.860301 1.913617 0
M  V30 46 H -3.133981 2.404754 2.989142 0
M  V30 47 H -4.367319 3.522103 2.506324 0
M  V30 48 H -4.051045 1.629485 0.982191 0
M  V30 49 H -3.956085 3.276107 0.190615 0
M  V30 50 H -2.003302 2.808403 -0.455233 0
M  V30 51 H -1.116708 1.965943 2.744926 0
M  V30 52 H 1.212940 -6.969483 1.857251 0
M  V30 53 H 2.040227 -7.454973 -2.221633 0
M  V30 54 H 2.832217 -5.604345 -3.399854 0
M  V30 55 H 2.608289 -3.951938 -2.744443 0
M  V30 56 H 1.082993 -6.762733 -4.431673 0
M  V30 57 H -0.942678 -6.642846 -5.838508 0
M  V30 58 H 0.420287 -2.809852 -3.044027 0
M  V30 END ATOM
M  V30 BEGIN BOND
M  V30 1 2 1 2
M  V30 2 1 2 3
M  V30 3 1 3 4
M  V30 4 1 4 5
M  V30 5 3 5 6
M  V30 6 1 6 7
M  V30 7 2 7 8
M  V30 8 1 8 9
M  V30 9 2 9 10
M  V30 10 1 10 11
M  V30 11 2 11 12
M  V30 12 1 12 13
M  V30 13 1 13 14
M  V30 14 2 14 15
M  V30 15 1 15 16
M  V30 16 1 16 17
M  V30 17 1 17 18
M  V30 18 1 18 19
M  V30 19 1 16 20
M  V30 20 1 20 21
M  V30 21 2 21 22
M  V30 22 1 2 23
M  V30 23 2 23 24
M  V30 24 1 24 25
M  V30 25 2 25 26
M  V30 26 1 26 27
M  V30 27 1 27 28
M  V30 28 1 28 29
M  V30 29 2 29 30
M  V30 30 1 30 31
M  V30 31 2 31 32
M  V30 32 1 32 33
M  V30 33 1 32 34
M  V30 34 1 34 35
M  V30 35 2 34 36
M  V30 36 1 27 37
M  V30 37 2 37 38
M  V30 38 1 22 7
M  V30 39 1 37 23
M  V30 40 1 21 10
M  V30 41 1 36 29
M  V30 42 2 20 13
M  V30 43 1 3 39
M  V30 44 1 4 40
M  V30 45 1 4 41
M  V30 46 1 8 42
M  V30 47 1 9 43
M  V30 48 1 12 44
M  V30 49 1 15 45
M  V30 50 1 17 46
M  V30 51 1 17 47
M  V30 52 1 18 48
M  V30 53 1 18 49
M  V30 54 1 19 50
M  V30 55 1 22 51
M  V30 56 1 24 52
M  V30 57 1 26 53
M  V30 58 1 28 54
M  V30 59 1 28 55
M  V30 60 1 30 56
M  V30 61 1 31 57
M  V30 62 1 36 58
M  V30 END BOND
M  V30 END CTAB
M  END
>  <Dataset>  (429) 
ChEMBL_Kinases

>  <Ligand_Instance>  (429) 
nan

>  <PDB_ID>  (429) 
nan

>  <Standardized_SMILES>  (429) 
O=C(NCC#Cc1ccc2ncc3ncn(CCO)c3c2c1)c1cncn(Cc2ccc(F)c(F)c2)c1=O

>  <Name>  (429) 
nan

>  <Pocket>  (429) 
nan

>  <ATP_Site>  (429) 
nan

>  <Peripheral>  (429) 
nan

>  <Num_H_Atoms_ProtBoundConf>  (429) 
nan

>  <Num_Resolved_Atoms>  (429) 
nan

>  <Num_Not_Resolved_Atoms>  (429) 
nan

$$$$
CHEMBL3644682
     RDKit          3D

  0  0  0  0  0  0  0  0  0  0999 V3000
M  V30 BEGIN CTAB
M  V30 COUNTS 61 66 0 0 0
M  V30 BEGIN ATOM
M  V30 1 O 3.379496 -3.685066 3.580926 0
M  V30 2 C 2.400195 -3.530655 2.771917 0
M  V30 3 N 2.156927 -2.138336 2.633922 0
M  V30 4 C 2.949297 -1.147692 3.340237 0
M  V30 5 C 2.457422 0.210344 2.993490 0
M  V30 6 C 2.046032 1.304856 2.696887 0
M  V30 7 C 1.534728 2.598924 2.334322 0
M  V30 8 C 2.188185 3.695676 2.858653 0
M  V30 9 C 1.814323 4.998523 2.601156 0
M  V30 10 C 0.724921 5.157312 1.770838 0
M  V30 11 N 0.358473 6.426656 1.514438 0
M  V30 12 C -0.688375 6.696344 0.715382 0
M  V30 13 C -1.347028 5.617223 0.188140 0
M  V30 14 N -2.421000 5.574962 -0.638694 0
M  V30 15 C -2.686131 4.253495 -0.868355 0
M  V30 16 N -1.822281 3.427329 -0.219850 0
M  V30 17 C -1.915405 2.015302 -0.314895 0
M  V30 18 C -2.646732 1.319469 0.830333 0
M  V30 19 C -3.285368 0.398191 -0.208104 0
M  V30 20 C -3.112163 1.548999 -1.186604 0
M  V30 21 C -1.030791 4.295674 0.405170 0
M  V30 22 C 0.042825 4.097782 1.225672 0
M  V30 23 C 0.445220 2.819846 1.505306 0
M  V30 24 C 1.700867 -4.612949 2.138757 0
M  V30 25 C 2.174731 -5.888770 2.474490 0
M  V30 26 N 1.615277 -6.995363 1.956830 0
M  V30 27 C 0.591844 -6.956411 1.105607 0
M  V30 28 N 0.110977 -5.749753 0.760817 0
M  V30 29 C -0.998253 -5.595533 -0.157104 0
M  V30 30 C -0.579927 -5.485901 -1.570536 0
M  V30 31 C -0.476657 -6.686988 -2.277238 0
M  V30 32 C -0.104311 -6.775475 -3.590261 0
M  V30 33 C 0.188835 -5.596385 -4.260400 0
M  V30 34 F 0.571737 -5.527162 -5.564270 0
M  V30 35 C 0.098405 -4.375120 -3.592193 0
M  V30 36 F 0.365452 -3.164143 -4.162846 0
M  V30 37 C -0.277172 -4.344882 -2.285014 0
M  V30 38 C 0.643513 -4.628384 1.256748 0
M  V30 39 O 0.222548 -3.491999 0.958682 0
M  V30 40 H 1.384634 -1.831404 2.004632 0
M  V30 41 H 4.021057 -1.157779 3.025350 0
M  V30 42 H 2.940658 -1.304718 4.434540 0
M  V30 43 H 3.042548 3.558835 3.509661 0
M  V30 44 H 2.326565 5.857225 3.012117 0
M  V30 45 H -1.029085 7.699061 0.473337 0
M  V30 46 H -3.532803 4.115440 -1.525185 0
M  V30 47 H -1.076018 1.415548 -0.661763 0
M  V30 48 H -3.441186 1.927901 1.294349 0
M  V30 49 H -2.014901 0.794862 1.557368 0
M  V30 50 H -4.332456 0.134594 -0.012174 0
M  V30 51 H -2.681202 -0.492194 -0.453354 0
M  V30 52 H -2.831384 1.186229 -2.176690 0
M  V30 53 H -3.971132 2.215492 -1.096415 0
M  V30 54 H 0.044986 1.892747 1.174338 0
M  V30 55 H 3.010672 -6.086127 3.162010 0
M  V30 56 H 0.082420 -7.785577 0.642528 0
M  V30 57 H -1.730980 -6.434061 -0.046114 0
M  V30 58 H -1.559632 -4.672174 0.092513 0
M  V30 59 H -0.688834 -7.665728 -1.828385 0
M  V30 60 H -0.020164 -7.679642 -4.144316 0
M  V30 61 H -0.362210 -3.429088 -1.725269 0
M  V30 END ATOM
M  V30 BEGIN BOND
M  V30 1 2 1 2
M  V30 2 1 2 3
M  V30 3 1 3 4
M  V30 4 1 4 5
M  V30 5 3 5 6
M  V30 6 1 6 7
M  V30 7 2 7 8
M  V30 8 1 8 9
M  V30 9 2 9 10
M  V30 10 1 10 11
M  V30 11 2 11 12
M  V30 12 1 12 13
M  V30 13 1 13 14
M  V30 14 2 14 15
M  V30 15 1 15 16
M  V30 16 1 16 17
M  V30 17 1 17 18
M  V30 18 1 18 19
M  V30 19 1 19 20
M  V30 20 1 16 21
M  V30 21 1 21 22
M  V30 22 2 22 23
M  V30 23 1 2 24
M  V30 24 2 24 25
M  V30 25 1 25 26
M  V30 26 2 26 27
M  V30 27 1 27 28
M  V30 28 1 28 29
M  V30 29 1 29 30
M  V30 30 2 30 31
M  V30 31 1 31 32
M  V30 32 2 32 33
M  V30 33 1 33 34
M  V30 34 1 33 35
M  V30 35 1 35 36
M  V30 36 2 35 37
M  V30 37 1 28 38
M  V30 38 2 38 39
M  V30 39 1 23 7
M  V30 40 1 38 24
M  V30 41 1 22 10
M  V30 42 1 37 30
M  V30 43 2 21 13
M  V30 44 1 20 17
M  V30 45 1 3 40
M  V30 46 1 4 41
M  V30 47 1 4 42
M  V30 48 1 8 43
M  V30 49 1 9 44
M  V30 50 1 12 45
M  V30 51 1 15 46
M  V30 52 1 17 47
M  V30 53 1 18 48
M  V30 54 1 18 49
M  V30 55 1 19 50
M  V30 56 1 19 51
M  V30 57 1 20 52
M  V30 58 1 20 53
M  V30 59 1 23 54
M  V30 60 1 25 55
M  V30 61 1 27 56
M  V30 62 1 29 57
M  V30 63 1 29 58
M  V30 64 1 31 59
M  V30 65 1 32 60
M  V30 66 1 37 61
M  V30 END BOND
M  V30 END CTAB
M  END
>  <Dataset>  (430) 
ChEMBL_Kinases

>  <Ligand_Instance>  (430) 
nan

>  <PDB_ID>  (430) 
nan

>  <Standardized_SMILES>  (430) 
O=C(NCC#Cc1ccc2ncc3ncn(C4CCC4)c3c2c1)c1cncn(Cc2ccc(F)c(F)c2)c1=O

>  <Name>  (430) 
nan

>  <Pocket>  (430) 
nan

>  <ATP_Site>  (430) 
nan

>  <Peripheral>  (430) 
nan

>  <Num_H_Atoms_ProtBoundConf>  (430) 
nan

>  <Num_Resolved_Atoms>  (430) 
nan

>  <Num_Not_Resolved_Atoms>  (430) 
nan

$$$$
CHEMBL3644692
     RDKit          3D

  0  0  0  0  0  0  0  0  0  0999 V3000
M  V30 BEGIN CTAB
M  V30 COUNTS 63 68 0 0 0
M  V30 BEGIN ATOM
M  V30 1 O 1.635381 -1.628930 5.089211 0
M  V30 2 C 1.211581 -1.381402 3.892800 0
M  V30 3 N 2.316647 -1.539954 3.133981 0
M  V30 4 C 3.583003 -1.776834 2.594142 0
M  V30 5 C 3.633806 -1.477142 1.145901 0
M  V30 6 C 3.661801 -1.217314 -0.026040 0
M  V30 7 C 3.683490 -0.882698 -1.426954 0
M  V30 8 C 4.794480 -0.342530 -2.044070 0
M  V30 9 C 4.808851 0.008444 -3.376268 0
M  V30 10 C 3.670611 -0.181838 -4.149202 0
M  V30 11 N 3.713725 0.187289 -5.438244 0
M  V30 12 C 2.616998 0.028150 -6.202486 0
M  V30 13 C 1.475530 -0.513886 -5.637269 0
M  V30 14 N 0.260536 -0.787278 -6.140780 0
M  V30 15 C -0.480446 -1.306758 -5.171743 0
M  V30 16 N 0.200981 -1.404156 -3.983009 0
M  V30 17 C -0.362823 -1.956630 -2.788715 0
M  V30 18 C -0.017611 -3.421644 -2.619775 0
M  V30 19 C -1.223523 -4.000723 -1.932348 0
M  V30 20 N -2.246176 -2.964258 -1.880882 0
M  V30 21 C -1.897290 -2.093374 -3.010683 0
M  V30 22 C 1.387761 -0.905958 -4.321431 0
M  V30 23 C 2.528720 -0.719203 -3.594616 0
M  V30 24 C 2.567898 -1.049951 -2.266457 0
M  V30 25 C -0.126723 -1.070139 3.936556 0
M  V30 26 C -0.450920 -1.122295 2.433936 0
M  V30 27 N -1.692232 -0.886046 1.836672 0
M  V30 28 C -2.755247 -0.573552 2.649978 0
M  V30 29 N -2.575133 -0.497031 4.030068 0
M  V30 30 C -3.548807 -0.206098 5.002517 0
M  V30 31 C -3.732035 1.234864 5.296345 0
M  V30 32 C -3.004321 1.876493 6.264869 0
M  V30 33 C -3.194059 3.217491 6.533651 0
M  V30 34 C -4.132410 3.858723 5.788348 0
M  V30 35 F -4.372155 5.187728 6.018345 0
M  V30 36 C -4.936483 3.313905 4.774656 0
M  V30 37 F -5.829774 4.080965 4.110867 0
M  V30 38 C -4.675828 1.955341 4.573768 0
M  V30 39 C -1.318447 -0.792356 3.968008 0
M  V30 40 O -1.024815 -0.748730 5.323487 0
M  V30 41 H 1.823896 -1.239972 2.234090 0
M  V30 42 H 4.391674 -1.141370 3.076223 0
M  V30 43 H 3.973445 -2.813641 2.748337 0
M  V30 44 H 5.715828 -0.165104 -1.492885 0
M  V30 45 H 5.710919 0.442527 -3.844126 0
M  V30 46 H 2.541330 0.292932 -7.276624 0
M  V30 47 H -1.477767 -1.573588 -5.450687 0
M  V30 48 H -0.338000 -1.351642 -1.886052 0
M  V30 49 H 0.858347 -3.619104 -1.994942 0
M  V30 50 H 0.125168 -3.839340 -3.640133 0
M  V30 51 H -0.973047 -4.272363 -0.887632 0
M  V30 52 H -1.581179 -4.907400 -2.480309 0
M  V30 53 H -2.217314 -2.406861 -1.008776 0
M  V30 54 H -2.408265 -1.153538 -3.035551 0
M  V30 55 H -2.032013 -2.736263 -3.906524 0
M  V30 56 H 1.780924 -1.479462 -1.687807 0
M  V30 57 H 0.065408 -1.328537 1.417238 0
M  V30 58 H -3.764969 -0.371440 2.235023 0
M  V30 59 H -4.532963 -0.570589 4.592997 0
M  V30 60 H -3.310296 -0.765702 5.961437 0
M  V30 61 H -2.262292 1.360779 6.854014 0
M  V30 62 H -2.622077 3.729844 7.303288 0
M  V30 63 H -5.276765 1.476578 3.802558 0
M  V30 END ATOM
M  V30 BEGIN BOND
M  V30 1 2 1 2
M  V30 2 1 2 3
M  V30 3 1 3 4
M  V30 4 1 4 5
M  V30 5 3 5 6
M  V30 6 1 6 7
M  V30 7 2 7 8
M  V30 8 1 8 9
M  V30 9 2 9 10
M  V30 10 1 10 11
M  V30 11 2 11 12
M  V30 12 1 12 13
M  V30 13 1 13 14
M  V30 14 2 14 15
M  V30 15 1 15 16
M  V30 16 1 16 17
M  V30 17 1 17 18
M  V30 18 1 18 19
M  V30 19 1 19 20
M  V30 20 1 20 21
M  V30 21 1 16 22
M  V30 22 1 22 23
M  V30 23 2 23 24
M  V30 24 1 2 25
M  V30 25 2 25 26
M  V30 26 1 26 27
M  V30 27 2 27 28
M  V30 28 1 28 29
M  V30 29 1 29 30
M  V30 30 1 30 31
M  V30 31 2 31 32
M  V30 32 1 32 33
M  V30 33 2 33 34
M  V30 34 1 34 35
M  V30 35 1 34 36
M  V30 36 1 36 37
M  V30 37 2 36 38
M  V30 38 1 29 39
M  V30 39 2 39 40
M  V30 40 1 24 7
M  V30 41 1 39 25
M  V30 42 1 23 10
M  V30 43 1 38 31
M  V30 44 2 22 13
M  V30 45 1 21 17
M  V30 46 1 3 41
M  V30 47 1 4 42
M  V30 48 1 4 43
M  V30 49 1 8 44
M  V30 50 1 9 45
M  V30 51 1 12 46
M  V30 52 1 15 47
M  V30 53 1 17 48
M  V30 54 1 18 49
M  V30 55 1 18 50
M  V30 56 1 19 51
M  V30 57 1 19 52
M  V30 58 1 20 53
M  V30 59 1 21 54
M  V30 60 1 21 55
M  V30 61 1 24 56
M  V30 62 1 26 57
M  V30 63 1 28 58
M  V30 64 1 30 59
M  V30 65 1 30 60
M  V30 66 1 32 61
M  V30 67 1 33 62
M  V30 68 1 38 63
M  V30 END BOND
M  V30 END CTAB
M  END
>  <Dataset>  (431) 
ChEMBL_Kinases

>  <Ligand_Instance>  (431) 
nan

>  <PDB_ID>  (431) 
nan

>  <Standardized_SMILES>  (431) 
O=C(NCC#Cc1ccc2ncc3ncn(C4CCNC4)c3c2c1)c1cncn(Cc2ccc(F)c(F)c2)c1=O

>  <Name>  (431) 
nan

>  <Pocket>  (431) 
nan

>  <ATP_Site>  (431) 
nan

>  <Peripheral>  (431) 
nan

>  <Num_H_Atoms_ProtBoundConf>  (431) 
nan

>  <Num_Resolved_Atoms>  (431) 
nan

>  <Num_Not_Resolved_Atoms>  (431) 
nan

$$$$
CHEMBL3644684
     RDKit          3D

  0  0  0  0  0  0  0  0  0  0999 V3000
M  V30 BEGIN CTAB
M  V30 COUNTS 65 69 0 0 0
M  V30 BEGIN ATOM
M  V30 1 C 1.873557 -1.717650 4.150260 0
M  V30 2 N 2.434539 -1.529264 2.851944 0
M  V30 3 C 1.476593 -1.828013 1.843748 0
M  V30 4 C 3.240384 -0.380443 2.664954 0
M  V30 5 C 2.430855 0.887186 2.737515 0
M  V30 6 N 3.213174 2.075287 2.584102 0
M  V30 7 C 3.730358 2.777412 3.644841 0
M  V30 8 N 4.416555 3.882001 3.290868 0
M  V30 9 C 4.353784 3.915648 1.941803 0
M  V30 10 C 4.910074 4.864801 1.116558 0
M  V30 11 N 4.710282 4.680186 -0.200455 0
M  V30 12 C 4.005760 3.621145 -0.641256 0
M  V30 13 C 3.859942 3.513365 -2.008266 0
M  V30 14 C 3.143971 2.423702 -2.454487 0
M  V30 15 C 2.572622 1.448040 -1.625812 0
M  V30 16 C 1.867417 0.403536 -2.311895 0
M  V30 17 C 1.281183 -0.463740 -2.905788 0
M  V30 18 C 0.576061 -1.499788 -3.645726 0
M  V30 19 N -0.582045 -2.028551 -2.966321 0
M  V30 20 C -0.513745 -2.675021 -1.714603 0
M  V30 21 O 0.704817 -2.691558 -1.337707 0
M  V30 22 C -1.623206 -3.236339 -0.961116 0
M  V30 23 C -1.232080 -3.825970 0.248077 0
M  V30 24 N -2.131505 -4.388127 1.047499 0
M  V30 25 C -3.446529 -4.438954 0.776689 0
M  V30 26 N -3.823460 -3.874503 -0.381668 0
M  V30 27 C -5.221044 -3.877841 -0.762587 0
M  V30 28 C -5.915632 -2.671803 -0.247033 0
M  V30 29 C -6.492413 -2.755370 1.023866 0
M  V30 30 C -7.174080 -1.727670 1.649515 0
M  V30 31 C -7.259717 -0.569274 0.926756 0
M  V30 32 F -7.930073 0.468461 1.521510 0
M  V30 33 C -6.723460 -0.397506 -0.328135 0
M  V30 34 F -6.838443 0.772706 -0.998640 0
M  V30 35 C -6.056477 -1.463584 -0.893131 0
M  V30 36 C -2.969447 -3.291829 -1.231724 0
M  V30 37 O -3.287184 -2.764292 -2.304300 0
M  V30 38 C 2.750014 1.606613 -0.267212 0
M  V30 39 C 3.457208 2.681978 0.204265 0
M  V30 40 C 3.629551 2.823049 1.556153 0
M  V30 41 H 1.265774 -2.645057 4.140581 0
M  V30 42 H 1.150785 -0.897270 4.382796 0
M  V30 43 H 2.621572 -1.850040 4.952592 0
M  V30 44 H 0.666245 -2.443322 2.296958 0
M  V30 45 H 1.084989 -0.914313 1.375718 0
M  V30 46 H 1.958484 -2.499243 1.089037 0
M  V30 47 H 3.988383 -0.344931 3.484798 0
M  V30 48 H 3.826965 -0.468406 1.733909 0
M  V30 49 H 1.452733 0.867027 2.254616 0
M  V30 50 H 2.111560 0.903979 3.850649 0
M  V30 51 H 3.655674 2.554881 4.721932 0
M  V30 52 H 5.476630 5.712944 1.494817 0
M  V30 53 H 4.281302 4.237727 -2.665556 0
M  V30 54 H 3.047661 2.368430 -3.533484 0
M  V30 55 H 0.301786 -1.040917 -4.628687 0
M  V30 56 H 1.252298 -2.353260 -3.909575 0
M  V30 57 H -1.502667 -1.918511 -3.437133 0
M  V30 58 H -0.214717 -3.858263 0.588155 0
M  V30 59 H -4.186349 -4.892059 1.417115 0
M  V30 60 H -5.717601 -4.766522 -0.333034 0
M  V30 61 H -5.305347 -3.930931 -1.875392 0
M  V30 62 H -6.403677 -3.701150 1.573619 0
M  V30 63 H -7.580269 -1.898879 2.634793 0
M  V30 64 H -5.622695 -1.388388 -1.859802 0
M  V30 65 H 2.291260 0.810641 0.262304 0
M  V30 END ATOM
M  V30 BEGIN BOND
M  V30 1 1 1 2
M  V30 2 1 2 3
M  V30 3 1 2 4
M  V30 4 1 4 5
M  V30 5 1 5 6
M  V30 6 1 6 7
M  V30 7 2 7 8
M  V30 8 1 8 9
M  V30 9 2 9 10
M  V30 10 1 10 11
M  V30 11 2 11 12
M  V30 12 1 12 13
M  V30 13 2 13 14
M  V30 14 1 14 15
M  V30 15 1 15 16
M  V30 16 3 16 17
M  V30 17 1 17 18
M  V30 18 1 18 19
M  V30 19 1 19 20
M  V30 20 2 20 21
M  V30 21 1 20 22
M  V30 22 2 22 23
M  V30 23 1 23 24
M  V30 24 2 24 25
M  V30 25 1 25 26
M  V30 26 1 26 27
M  V30 27 1 27 28
M  V30 28 2 28 29
M  V30 29 1 29 30
M  V30 30 2 30 31
M  V30 31 1 31 32
M  V30 32 1 31 33
M  V30 33 1 33 34
M  V30 34 2 33 35
M  V30 35 1 26 36
M  V30 36 2 36 37
M  V30 37 2 15 38
M  V30 38 1 38 39
M  V30 39 2 39 40
M  V30 40 1 40 6
M  V30 41 1 40 9
M  V30 42 1 39 12
M  V30 43 1 36 22
M  V30 44 1 35 28
M  V30 45 1 1 41
M  V30 46 1 1 42
M  V30 47 1 1 43
M  V30 48 1 3 44
M  V30 49 1 3 45
M  V30 50 1 3 46
M  V30 51 1 4 47
M  V30 52 1 4 48
M  V30 53 1 5 49
M  V30 54 1 5 50
M  V30 55 1 7 51
M  V30 56 1 10 52
M  V30 57 1 13 53
M  V30 58 1 14 54
M  V30 59 1 18 55
M  V30 60 1 18 56
M  V30 61 1 19 57
M  V30 62 1 23 58
M  V30 63 1 25 59
M  V30 64 1 27 60
M  V30 65 1 27 61
M  V30 66 1 29 62
M  V30 67 1 30 63
M  V30 68 1 35 64
M  V30 69 1 38 65
M  V30 END BOND
M  V30 END CTAB
M  END
>  <Dataset>  (432) 
ChEMBL_Kinases

>  <Ligand_Instance>  (432) 
nan

>  <PDB_ID>  (432) 
nan

>  <Standardized_SMILES>  (432) 
CN(C)CCn1cnc2cnc3ccc(C#CCNC(=O)c4cncn(Cc5ccc(F)c(F)c5)c4=O)cc3c21

>  <Name>  (432) 
nan

>  <Pocket>  (432) 
nan

>  <ATP_Site>  (432) 
nan

>  <Peripheral>  (432) 
nan

>  <Num_H_Atoms_ProtBoundConf>  (432) 
nan

>  <Num_Resolved_Atoms>  (432) 
nan

>  <Num_Not_Resolved_Atoms>  (432) 
nan

$$$$
CHEMBL3644685
     RDKit          3D

  0  0  0  0  0  0  0  0  0  0999 V3000
M  V30 BEGIN CTAB
M  V30 COUNTS 66 71 0 0 0
M  V30 BEGIN ATOM
M  V30 1 C 2.415120 -3.073973 4.868606 0
M  V30 2 N 2.798355 -1.850864 4.219288 0
M  V30 3 C 1.902854 -0.756863 4.498575 0
M  V30 4 C 1.496201 -0.184605 3.141074 0
M  V30 5 C 2.664722 -0.534329 2.252049 0 CFG=1
M  V30 6 N 3.839501 0.235471 2.511294 0
M  V30 7 C 4.873422 -0.170525 3.315256 0
M  V30 8 N 5.876175 0.734885 3.398256 0
M  V30 9 C 5.514180 1.779959 2.632840 0
M  V30 10 C 6.172259 2.952575 2.376605 0
M  V30 11 N 5.593313 3.854807 1.564659 0
M  V30 12 C 4.370012 3.567197 1.026111 0
M  V30 13 C 3.854645 4.544003 0.214125 0
M  V30 14 C 2.625147 4.277395 -0.334598 0
M  V30 15 C 1.929031 3.097728 -0.095025 0
M  V30 16 C 0.652645 2.952165 -0.735055 0
M  V30 17 C -0.409155 2.835970 -1.289682 0
M  V30 18 C -1.693011 2.711133 -1.982037 0
M  V30 19 N -2.233081 1.405133 -1.656386 0
M  V30 20 C -1.505289 0.232786 -1.994060 0
M  V30 21 O -0.418736 0.583453 -2.569881 0
M  V30 22 C -1.859981 -1.156388 -1.762831 0
M  V30 23 C -0.938243 -2.086589 -2.209123 0
M  V30 24 N -1.163520 -3.397440 -2.047922 0
M  V30 25 C -2.253801 -3.894629 -1.466016 0
M  V30 26 N -3.157008 -3.012339 -1.027635 0
M  V30 27 C -4.352244 -3.496845 -0.393488 0
M  V30 28 C -5.427888 -3.717333 -1.402738 0
M  V30 29 C -6.362729 -2.785161 -1.789194 0
M  V30 30 C -7.331022 -3.049423 -2.729214 0
M  V30 31 C -7.408011 -4.285862 -3.337310 0
M  V30 32 F -8.378290 -4.498866 -4.256277 0
M  V30 33 C -6.477308 -5.252165 -2.969308 0
M  V30 34 F -6.607781 -6.432729 -3.598379 0
M  V30 35 C -5.513960 -4.947468 -2.015747 0
M  V30 36 C -2.962811 -1.692726 -1.172932 0
M  V30 37 O -3.806417 -0.873068 -0.763072 0
M  V30 38 C 2.513907 2.156484 0.736732 0
M  V30 39 C 3.739153 2.383693 1.303529 0
M  V30 40 C 4.272930 1.439471 2.112017 0
M  V30 41 C 2.949664 -1.957657 2.812090 0
M  V30 42 H 1.311574 -3.145485 4.854944 0
M  V30 43 H 2.906593 -3.943745 4.386387 0
M  V30 44 H 2.729370 -3.059530 5.939874 0
M  V30 45 H 1.002836 -1.169196 5.021629 0
M  V30 46 H 2.312153 0.022860 5.157076 0
M  V30 47 H 1.326265 0.900111 3.174344 0
M  V30 48 H 0.571795 -0.687435 2.865669 0
M  V30 49 H 2.422553 -0.755138 1.217544 0
M  V30 50 H 5.014373 -1.074298 3.881771 0
M  V30 51 H 7.146822 3.134629 2.831646 0
M  V30 52 H 4.374391 5.457335 0.018369 0
M  V30 53 H 2.197493 5.037152 -0.980909 0
M  V30 54 H -2.426450 3.464836 -1.578950 0
M  V30 55 H -1.573675 2.848088 -3.085164 0
M  V30 56 H -3.150235 1.274891 -1.175036 0
M  V30 57 H -0.026209 -1.793588 -2.692383 0
M  V30 58 H -2.363142 -4.964529 -1.373396 0
M  V30 59 H -4.779004 -2.787411 0.363031 0
M  V30 60 H -4.165135 -4.484598 0.105908 0
M  V30 61 H -6.319840 -1.817687 -1.326881 0
M  V30 62 H -8.050444 -2.288290 -3.007538 0
M  V30 63 H -4.845791 -5.774835 -1.809671 0
M  V30 64 H 1.871413 1.315186 0.831829 0
M  V30 65 H 3.995425 -2.221656 2.575390 0
M  V30 66 H 2.280703 -2.698431 2.336554 0
M  V30 END ATOM
M  V30 BEGIN BOND
M  V30 1 1 1 2
M  V30 2 1 2 3
M  V30 3 1 3 4
M  V30 4 1 4 5
M  V30 5 1 5 6
M  V30 6 1 6 7
M  V30 7 2 7 8
M  V30 8 1 8 9
M  V30 9 2 9 10
M  V30 10 1 10 11
M  V30 11 2 11 12
M  V30 12 1 12 13
M  V30 13 2 13 14
M  V30 14 1 14 15
M  V30 15 1 15 16
M  V30 16 3 16 17
M  V30 17 1 17 18
M  V30 18 1 18 19
M  V30 19 1 19 20
M  V30 20 2 20 21
M  V30 21 1 20 22
M  V30 22 2 22 23
M  V30 23 1 23 24
M  V30 24 2 24 25
M  V30 25 1 25 26
M  V30 26 1 26 27
M  V30 27 1 27 28
M  V30 28 2 28 29
M  V30 29 1 29 30
M  V30 30 2 30 31
M  V30 31 1 31 32
M  V30 32 1 31 33
M  V30 33 1 33 34
M  V30 34 2 33 35
M  V30 35 1 26 36
M  V30 36 2 36 37
M  V30 37 2 15 38
M  V30 38 1 38 39
M  V30 39 2 39 40
M  V30 40 1 5 41
M  V30 41 1 41 2
M  V30 42 1 40 6
M  V30 43 1 40 9
M  V30 44 1 39 12
M  V30 45 1 36 22
M  V30 46 1 35 28
M  V30 47 1 1 42
M  V30 48 1 1 43
M  V30 49 1 1 44
M  V30 50 1 3 45
M  V30 51 1 3 46
M  V30 52 1 4 47
M  V30 53 1 4 48
M  V30 54 1 5 49 CFG=3
M  V30 55 1 7 50
M  V30 56 1 10 51
M  V30 57 1 13 52
M  V30 58 1 14 53
M  V30 59 1 18 54
M  V30 60 1 18 55
M  V30 61 1 19 56
M  V30 62 1 23 57
M  V30 63 1 25 58
M  V30 64 1 27 59
M  V30 65 1 27 60
M  V30 66 1 29 61
M  V30 67 1 30 62
M  V30 68 1 35 63
M  V30 69 1 38 64
M  V30 70 1 41 65
M  V30 71 1 41 66
M  V30 END BOND
M  V30 END CTAB
M  END
>  <Dataset>  (433) 
ChEMBL_Kinases

>  <Ligand_Instance>  (433) 
nan

>  <PDB_ID>  (433) 
nan

>  <Standardized_SMILES>  (433) 
CN1CC[C@@H](n2cnc3cnc4ccc(C#CCNC(=O)c5cncn(Cc6ccc(F)c(F)c6)c5=O)cc4c32)C1

>  <Name>  (433) 
nan

>  <Pocket>  (433) 
nan

>  <ATP_Site>  (433) 
nan

>  <Peripheral>  (433) 
nan

>  <Num_H_Atoms_ProtBoundConf>  (433) 
nan

>  <Num_Resolved_Atoms>  (433) 
nan

>  <Num_Not_Resolved_Atoms>  (433) 
nan

$$$$
CHEMBL3644686
     RDKit          3D

  0  0  0  0  0  0  0  0  0  0999 V3000
M  V30 BEGIN CTAB
M  V30 COUNTS 66 71 0 0 0
M  V30 BEGIN ATOM
M  V30 1 C 3.910944 -2.087563 4.548056 0
M  V30 2 N 4.105297 -0.778340 5.101208 0
M  V30 3 C 2.946784 -0.257925 5.758571 0
M  V30 4 C 2.313927 0.643115 4.658285 0
M  V30 5 C 3.556379 1.271097 4.202939 0 CFG=2
M  V30 6 N 3.670657 2.486844 3.534978 0
M  V30 7 C 4.141546 3.671442 4.087435 0
M  V30 8 N 4.157973 4.746087 3.287163 0
M  V30 9 C 3.673769 4.306413 2.101870 0
M  V30 10 C 3.460673 4.971787 0.915017 0
M  V30 11 N 2.954849 4.294971 -0.137940 0
M  V30 12 C 2.668335 2.967480 0.003873 0
M  V30 13 C 2.169741 2.374060 -1.121262 0
M  V30 14 C 1.876923 1.031241 -1.022986 0
M  V30 15 C 2.086277 0.349519 0.158871 0
M  V30 16 C 1.766112 -1.063611 0.151871 0
M  V30 17 C 1.518782 -2.242656 0.154551 0
M  V30 18 C 1.249854 -3.646982 0.155395 0
M  V30 19 N 0.208085 -4.008790 -0.730222 0
M  V30 20 C -1.051311 -3.485477 -0.563896 0
M  V30 21 O -1.389394 -2.670615 0.316491 0
M  V30 22 C -2.312886 -3.569979 -1.136831 0
M  V30 23 C -2.003605 -4.545674 -2.259232 0
M  V30 24 N -2.876094 -5.057316 -3.229120 0
M  V30 25 C -4.195620 -4.632257 -3.177113 0
M  V30 26 N -4.627711 -3.734217 -2.199390 0
M  V30 27 C -5.907000 -3.186017 -2.025328 0
M  V30 28 C -6.255936 -2.008600 -2.835421 0
M  V30 29 C -5.774612 -0.724798 -2.642260 0
M  V30 30 C -6.122519 0.384757 -3.393313 0
M  V30 31 C -7.043787 0.202051 -4.442778 0
M  V30 32 F -7.394712 1.278099 -5.186381 0
M  V30 33 C -7.560247 -1.078857 -4.676288 0
M  V30 34 F -8.469518 -1.250612 -5.696984 0
M  V30 35 C -7.156522 -2.152961 -3.871612 0
M  V30 36 C -3.482713 -3.653604 -1.674603 0
M  V30 37 O -3.803514 -2.753925 -0.647641 0
M  V30 38 C 2.594433 1.039056 1.242201 0
M  V30 39 C 2.899498 2.366607 1.196237 0
M  V30 40 C 3.410540 2.969389 2.326715 0
M  V30 41 C 4.510100 0.167895 4.045322 0
M  V30 42 H 2.847620 -2.362196 4.546753 0
M  V30 43 H 4.437965 -2.834503 5.162684 0
M  V30 44 H 4.372875 -2.156952 3.536326 0
M  V30 45 H 3.215399 0.497800 6.551661 0
M  V30 46 H 2.240245 -0.976840 6.162381 0
M  V30 47 H 1.869646 -0.194081 4.094638 0
M  V30 48 H 1.552155 1.302141 5.118538 0
M  V30 49 H 3.902617 1.615965 5.274510 0
M  V30 50 H 4.518842 3.892381 5.100127 0
M  V30 51 H 3.720889 6.041539 0.895693 0
M  V30 52 H 2.005984 2.893426 -2.042127 0
M  V30 53 H 1.483224 0.528521 -1.889422 0
M  V30 54 H 2.182817 -4.257998 -0.047020 0
M  V30 55 H 0.951503 -4.029737 1.183824 0
M  V30 56 H 0.318443 -4.660001 -1.520040 0
M  V30 57 H -1.120024 -5.151322 -2.705103 0
M  V30 58 H -4.957928 -4.992786 -3.904674 0
M  V30 59 H -6.691951 -3.968673 -2.210043 0
M  V30 60 H -6.110084 -2.911512 -0.937308 0
M  V30 61 H -5.056807 -0.569495 -1.836698 0
M  V30 62 H -5.702721 1.368093 -3.189771 0
M  V30 63 H -7.639312 -3.100773 -4.160419 0
M  V30 64 H 2.680369 0.374964 2.027180 0
M  V30 65 H 5.552104 0.529278 4.324738 0
M  V30 66 H 4.559136 -0.382675 3.104364 0
M  V30 END ATOM
M  V30 BEGIN BOND
M  V30 1 1 1 2
M  V30 2 1 2 3
M  V30 3 1 3 4
M  V30 4 1 4 5
M  V30 5 1 5 6
M  V30 6 1 6 7
M  V30 7 2 7 8
M  V30 8 1 8 9
M  V30 9 2 9 10
M  V30 10 1 10 11
M  V30 11 2 11 12
M  V30 12 1 12 13
M  V30 13 2 13 14
M  V30 14 1 14 15
M  V30 15 1 15 16
M  V30 16 3 16 17
M  V30 17 1 17 18
M  V30 18 1 18 19
M  V30 19 1 19 20
M  V30 20 2 20 21
M  V30 21 1 20 22
M  V30 22 2 22 23
M  V30 23 1 23 24
M  V30 24 2 24 25
M  V30 25 1 25 26
M  V30 26 1 26 27
M  V30 27 1 27 28
M  V30 28 2 28 29
M  V30 29 1 29 30
M  V30 30 2 30 31
M  V30 31 1 31 32
M  V30 32 1 31 33
M  V30 33 1 33 34
M  V30 34 2 33 35
M  V30 35 1 26 36
M  V30 36 2 36 37
M  V30 37 2 15 38
M  V30 38 1 38 39
M  V30 39 2 39 40
M  V30 40 1 5 41
M  V30 41 1 41 2
M  V30 42 1 40 6
M  V30 43 1 40 9
M  V30 44 1 39 12
M  V30 45 1 36 22
M  V30 46 1 35 28
M  V30 47 1 1 42
M  V30 48 1 1 43
M  V30 49 1 1 44
M  V30 50 1 3 45
M  V30 51 1 3 46
M  V30 52 1 4 47
M  V30 53 1 4 48
M  V30 54 1 5 49 CFG=1
M  V30 55 1 7 50
M  V30 56 1 10 51
M  V30 57 1 13 52
M  V30 58 1 14 53
M  V30 59 1 18 54
M  V30 60 1 18 55
M  V30 61 1 19 56
M  V30 62 1 23 57
M  V30 63 1 25 58
M  V30 64 1 27 59
M  V30 65 1 27 60
M  V30 66 1 29 61
M  V30 67 1 30 62
M  V30 68 1 35 63
M  V30 69 1 38 64
M  V30 70 1 41 65
M  V30 71 1 41 66
M  V30 END BOND
M  V30 END CTAB
M  END
>  <Dataset>  (434) 
ChEMBL_Kinases

>  <Ligand_Instance>  (434) 
nan

>  <PDB_ID>  (434) 
nan

>  <Standardized_SMILES>  (434) 
CN1CC[C@H](n2cnc3cnc4ccc(C#CCNC(=O)c5cncn(Cc6ccc(F)c(F)c6)c5=O)cc4c32)C1

>  <Name>  (434) 
nan

>  <Pocket>  (434) 
nan

>  <ATP_Site>  (434) 
nan

>  <Peripheral>  (434) 
nan

>  <Num_H_Atoms_ProtBoundConf>  (434) 
nan

>  <Num_Resolved_Atoms>  (434) 
nan

>  <Num_Not_Resolved_Atoms>  (434) 
nan

$$$$
CHEMBL3644687
     RDKit          3D

  0  0  0  0  0  0  0  0  0  0999 V3000
M  V30 BEGIN CTAB
M  V30 COUNTS 68 72 0 0 0
M  V30 BEGIN ATOM
M  V30 1 C 2.408398 -1.719789 0.567680 0
M  V30 2 N 3.035400 -3.001403 0.471027 0
M  V30 3 C 2.545388 -3.760217 1.643378 0
M  V30 4 C 2.569535 -3.743784 -0.661133 0
M  V30 5 C 2.982154 -3.206668 -2.004853 0
M  V30 6 C 2.340609 -4.162926 -3.018992 0
M  V30 7 N 2.594595 -3.806485 -4.378883 0
M  V30 8 C 3.629726 -4.358444 -5.076046 0
M  V30 9 N 3.686598 -3.926955 -6.350821 0
M  V30 10 C 2.653822 -3.051860 -6.522300 0
M  V30 11 C 2.218240 -2.311497 -7.598736 0
M  V30 12 N 1.140395 -1.526605 -7.441866 0
M  V30 13 C 0.469378 -1.438993 -6.261263 0
M  V30 14 C -0.616402 -0.596553 -6.214671 0
M  V30 15 C -1.259407 -0.530270 -5.002527 0
M  V30 16 C -0.867492 -1.246543 -3.885684 0
M  V30 17 C -1.577788 -1.146917 -2.615771 0
M  V30 18 C -2.154878 -1.081662 -1.558057 0
M  V30 19 C -2.830854 -1.005452 -0.265490 0
M  V30 20 N -2.432836 0.274719 0.306145 0
M  V30 21 C -2.988511 0.396006 1.581027 0
M  V30 22 O -3.669398 -0.609199 1.900367 0
M  V30 23 C -2.967143 1.363749 2.591015 0
M  V30 24 C -2.199463 2.503709 1.937074 0
M  V30 25 N -1.905764 3.728338 2.551615 0
M  V30 26 C -2.350682 3.917963 3.864834 0
M  V30 27 N -3.071358 2.928840 4.569966 0
M  V30 28 C -3.527705 3.082990 5.892059 0
M  V30 29 C -2.498100 2.617864 6.896554 0
M  V30 30 C -1.517084 3.521276 7.288592 0
M  V30 31 C -0.497929 3.286086 8.170893 0
M  V30 32 C -0.458188 2.026695 8.711558 0
M  V30 33 F 0.530401 1.731298 9.591385 0
M  V30 34 C -1.406022 1.092702 8.357913 0
M  V30 35 F -1.381420 -0.176027 8.887132 0
M  V30 36 C -2.439426 1.343171 7.458626 0
M  V30 37 C -2.947969 2.207303 3.470224 0
M  V30 38 O -3.673069 1.165285 4.125225 0
M  V30 39 C 0.258522 -2.077460 -4.051900 0
M  V30 40 C 0.948480 -2.195281 -5.233407 0
M  V30 41 C 2.037465 -3.022809 -5.303191 0
M  V30 42 H 2.128518 -1.299361 -0.401116 0
M  V30 43 H 1.447374 -1.770587 1.163828 0
M  V30 44 H 3.023055 -0.949990 1.112323 0
M  V30 45 H 3.240028 -4.585246 1.897459 0
M  V30 46 H 1.520851 -4.159446 1.375209 0
M  V30 47 H 2.361375 -3.086570 2.508273 0
M  V30 48 H 1.445238 -3.766768 -0.562477 0
M  V30 49 H 2.859534 -4.815503 -0.604069 0
M  V30 50 H 2.569623 -2.193908 -2.123346 0
M  V30 51 H 4.088253 -3.210910 -2.131377 0
M  V30 52 H 2.847703 -5.180670 -2.805908 0
M  V30 53 H 1.310235 -4.331987 -2.706915 0
M  V30 54 H 4.371369 -5.079980 -4.699870 0
M  V30 55 H 2.791622 -2.426278 -8.496621 0
M  V30 56 H -0.898669 -0.049499 -7.099296 0
M  V30 57 H -2.136506 0.128176 -4.908620 0
M  V30 58 H -3.953438 -1.033112 -0.412026 0
M  V30 59 H -2.577726 -1.830048 0.407333 0
M  V30 60 H -1.853287 1.072707 -0.023383 0
M  V30 61 H -1.678790 2.760640 0.927149 0
M  V30 62 H -2.104046 4.908929 4.336008 0
M  V30 63 H -4.428820 2.416033 6.034199 0
M  V30 64 H -3.896074 4.090712 6.104902 0
M  V30 65 H -1.567165 4.527058 6.840682 0
M  V30 66 H 0.208666 4.087005 8.389819 0
M  V30 67 H -3.199649 0.657833 7.148140 0
M  V30 68 H 0.453287 -2.544287 -3.124230 0
M  V30 END ATOM
M  V30 BEGIN BOND
M  V30 1 1 1 2
M  V30 2 1 2 3
M  V30 3 1 2 4
M  V30 4 1 4 5
M  V30 5 1 5 6
M  V30 6 1 6 7
M  V30 7 1 7 8
M  V30 8 2 8 9
M  V30 9 1 9 10
M  V30 10 2 10 11
M  V30 11 1 11 12
M  V30 12 2 12 13
M  V30 13 1 13 14
M  V30 14 2 14 15
M  V30 15 1 15 16
M  V30 16 1 16 17
M  V30 17 3 17 18
M  V30 18 1 18 19
M  V30 19 1 19 20
M  V30 20 1 20 21
M  V30 21 2 21 22
M  V30 22 1 21 23
M  V30 23 2 23 24
M  V30 24 1 24 25
M  V30 25 2 25 26
M  V30 26 1 26 27
M  V30 27 1 27 28
M  V30 28 1 28 29
M  V30 29 2 29 30
M  V30 30 1 30 31
M  V30 31 2 31 32
M  V30 32 1 32 33
M  V30 33 1 32 34
M  V30 34 1 34 35
M  V30 35 2 34 36
M  V30 36 1 27 37
M  V30 37 2 37 38
M  V30 38 2 16 39
M  V30 39 1 39 40
M  V30 40 2 40 41
M  V30 41 1 41 7
M  V30 42 1 41 10
M  V30 43 1 40 13
M  V30 44 1 37 23
M  V30 45 1 36 29
M  V30 46 1 1 42
M  V30 47 1 1 43
M  V30 48 1 1 44
M  V30 49 1 3 45
M  V30 50 1 3 46
M  V30 51 1 3 47
M  V30 52 1 4 48
M  V30 53 1 4 49
M  V30 54 1 5 50
M  V30 55 1 5 51
M  V30 56 1 6 52
M  V30 57 1 6 53
M  V30 58 1 8 54
M  V30 59 1 11 55
M  V30 60 1 14 56
M  V30 61 1 15 57
M  V30 62 1 19 58
M  V30 63 1 19 59
M  V30 64 1 20 60
M  V30 65 1 24 61
M  V30 66 1 26 62
M  V30 67 1 28 63
M  V30 68 1 28 64
M  V30 69 1 30 65
M  V30 70 1 31 66
M  V30 71 1 36 67
M  V30 72 1 39 68
M  V30 END BOND
M  V30 END CTAB
M  END
>  <Dataset>  (435) 
ChEMBL_Kinases

>  <Ligand_Instance>  (435) 
nan

>  <PDB_ID>  (435) 
nan

>  <Standardized_SMILES>  (435) 
CN(C)CCCn1cnc2cnc3ccc(C#CCNC(=O)c4cncn(Cc5ccc(F)c(F)c5)c4=O)cc3c21

>  <Name>  (435) 
nan

>  <Pocket>  (435) 
nan

>  <ATP_Site>  (435) 
nan

>  <Peripheral>  (435) 
nan

>  <Num_H_Atoms_ProtBoundConf>  (435) 
nan

>  <Num_Resolved_Atoms>  (435) 
nan

>  <Num_Not_Resolved_Atoms>  (435) 
nan

$$$$
CHEMBL3644688
     RDKit          3D

  0  0  0  0  0  0  0  0  0  0999 V3000
M  V30 BEGIN CTAB
M  V30 COUNTS 69 74 0 0 0
M  V30 BEGIN ATOM
M  V30 1 C -0.101363 1.056356 -3.804098 0
M  V30 2 N 0.977287 0.151338 -3.590442 0
M  V30 3 C 0.674760 -1.062486 -2.926175 0
M  V30 4 C 1.840698 -2.003837 -2.800208 0
M  V30 5 C 3.101856 -1.285568 -2.373654 0
M  V30 6 C 2.779901 0.170365 -2.014276 0 CFG=1
M  V30 7 N 3.966588 0.889134 -1.638295 0
M  V30 8 C 4.616016 1.680822 -2.548521 0
M  V30 9 N 5.703828 2.286296 -2.038286 0
M  V30 10 C 5.773621 1.879668 -0.750843 0
M  V30 11 C 6.700950 2.208098 0.212665 0
M  V30 12 N 6.531275 1.654471 1.427012 0
M  V30 13 C 5.492968 0.820953 1.660661 0
M  V30 14 C 5.423300 0.318366 2.927669 0
M  V30 15 C 4.361572 -0.540848 3.175978 0
M  V30 16 C 3.432050 -0.874899 2.220233 0
M  V30 17 C 2.395445 -1.784033 2.645743 0
M  V30 18 C 1.525941 -2.547067 2.981213 0
M  V30 19 C 0.445696 -3.474043 3.374458 0
M  V30 20 N -0.839903 -2.834052 3.291818 0
M  V30 21 C -2.038327 -3.513523 3.622466 0
M  V30 22 O -1.759907 -4.707310 3.976036 0
M  V30 23 C -3.386139 -2.977965 3.580887 0
M  V30 24 C -4.377924 -3.879286 3.968022 0
M  V30 25 N -5.664369 -3.541413 3.987388 0
M  V30 26 C -6.096074 -2.317476 3.637763 0
M  V30 27 N -5.161498 -1.432068 3.261109 0
M  V30 28 C -5.560984 -0.107539 2.877138 0
M  V30 29 C -5.855534 0.025481 1.426758 0
M  V30 30 C -4.940862 0.370026 0.461501 0
M  V30 31 C -5.212630 0.491730 -0.872576 0
M  V30 32 C -6.513872 0.241896 -1.236043 0
M  V30 33 F -6.929307 0.324758 -2.524017 0
M  V30 34 C -7.477964 -0.106395 -0.326286 0
M  V30 35 F -8.775673 -0.364408 -0.636169 0
M  V30 36 C -7.161519 -0.219230 1.017547 0
M  V30 37 C -3.853973 -1.733618 3.228252 0
M  V30 38 O -2.972684 -0.933726 2.884816 0
M  V30 39 C 3.544748 -0.338754 0.949112 0
M  V30 40 C 4.579229 0.505261 0.689373 0
M  V30 41 C 4.715508 1.042199 -0.545919 0
M  V30 42 C 2.261789 0.718005 -3.374828 0
M  V30 43 H 0.231454 2.077085 -3.449428 0
M  V30 44 H -0.377020 1.174922 -4.882576 0
M  V30 45 H -0.994978 0.842062 -3.179228 0
M  V30 46 H 0.312984 -0.814653 -1.885715 0
M  V30 47 H -0.126329 -1.652811 -3.459751 0
M  V30 48 H 1.974464 -2.609789 -3.716853 0
M  V30 49 H 1.538949 -2.753082 -2.009647 0
M  V30 50 H 3.766139 -1.284639 -3.269208 0
M  V30 51 H 3.553333 -1.855173 -1.565289 0
M  V30 52 H 1.912105 0.300662 -1.374097 0
M  V30 53 H 4.380694 1.879731 -3.593109 0
M  V30 54 H 7.532477 2.875383 0.029364 0
M  V30 55 H 6.121809 0.553505 3.690029 0
M  V30 56 H 4.299263 -0.943820 4.180946 0
M  V30 57 H 0.681866 -3.875579 4.360504 0
M  V30 58 H 0.390475 -4.351865 2.674223 0
M  V30 59 H -0.887006 -1.844749 2.980386 0
M  V30 60 H -4.217526 -4.914838 4.284579 0
M  V30 61 H -7.139385 -2.065980 3.660403 0
M  V30 62 H -4.737699 0.588758 3.127378 0
M  V30 63 H -6.465692 0.244740 3.427010 0
M  V30 64 H -3.919396 0.562599 0.787195 0
M  V30 65 H -4.481123 0.761953 -1.606572 0
M  V30 66 H -7.913623 -0.494112 1.762047 0
M  V30 67 H 2.766502 -0.689373 0.341399 0
M  V30 68 H 3.022161 0.423698 -4.142072 0
M  V30 69 H 2.219419 1.803904 -3.352577 0
M  V30 END ATOM
M  V30 BEGIN BOND
M  V30 1 1 1 2
M  V30 2 1 2 3
M  V30 3 1 3 4
M  V30 4 1 4 5
M  V30 5 1 5 6
M  V30 6 1 6 7
M  V30 7 1 7 8
M  V30 8 2 8 9
M  V30 9 1 9 10
M  V30 10 2 10 11
M  V30 11 1 11 12
M  V30 12 2 12 13
M  V30 13 1 13 14
M  V30 14 2 14 15
M  V30 15 1 15 16
M  V30 16 1 16 17
M  V30 17 3 17 18
M  V30 18 1 18 19
M  V30 19 1 19 20
M  V30 20 1 20 21
M  V30 21 2 21 22
M  V30 22 1 21 23
M  V30 23 2 23 24
M  V30 24 1 24 25
M  V30 25 2 25 26
M  V30 26 1 26 27
M  V30 27 1 27 28
M  V30 28 1 28 29
M  V30 29 2 29 30
M  V30 30 1 30 31
M  V30 31 2 31 32
M  V30 32 1 32 33
M  V30 33 1 32 34
M  V30 34 1 34 35
M  V30 35 2 34 36
M  V30 36 1 27 37
M  V30 37 2 37 38
M  V30 38 2 16 39
M  V30 39 1 39 40
M  V30 40 2 40 41
M  V30 41 1 6 42
M  V30 42 1 42 2
M  V30 43 1 41 7
M  V30 44 1 41 10
M  V30 45 1 40 13
M  V30 46 1 37 23
M  V30 47 1 36 29
M  V30 48 1 1 43
M  V30 49 1 1 44
M  V30 50 1 1 45
M  V30 51 1 3 46
M  V30 52 1 3 47
M  V30 53 1 4 48
M  V30 54 1 4 49
M  V30 55 1 5 50
M  V30 56 1 5 51
M  V30 57 1 6 52 CFG=1
M  V30 58 1 8 53
M  V30 59 1 11 54
M  V30 60 1 14 55
M  V30 61 1 15 56
M  V30 62 1 19 57
M  V30 63 1 19 58
M  V30 64 1 20 59
M  V30 65 1 24 60
M  V30 66 1 26 61
M  V30 67 1 28 62
M  V30 68 1 28 63
M  V30 69 1 30 64
M  V30 70 1 31 65
M  V30 71 1 36 66
M  V30 72 1 39 67
M  V30 73 1 42 68
M  V30 74 1 42 69
M  V30 END BOND
M  V30 END CTAB
M  END
>  <Dataset>  (436) 
ChEMBL_Kinases

>  <Ligand_Instance>  (436) 
nan

>  <PDB_ID>  (436) 
nan

>  <Standardized_SMILES>  (436) 
CN1CCC[C@@H](n2cnc3cnc4ccc(C#CCNC(=O)c5cncn(Cc6ccc(F)c(F)c6)c5=O)cc4c32)C1

>  <Name>  (436) 
nan

>  <Pocket>  (436) 
nan

>  <ATP_Site>  (436) 
nan

>  <Peripheral>  (436) 
nan

>  <Num_H_Atoms_ProtBoundConf>  (436) 
nan

>  <Num_Resolved_Atoms>  (436) 
nan

>  <Num_Not_Resolved_Atoms>  (436) 
nan

$$$$
CHEMBL3644689
     RDKit          3D

  0  0  0  0  0  0  0  0  0  0999 V3000
M  V30 BEGIN CTAB
M  V30 COUNTS 69 74 0 0 0
M  V30 BEGIN ATOM
M  V30 1 C 1.431800 -2.242625 2.891043 0
M  V30 2 N 2.831144 -2.194546 3.190749 0
M  V30 3 C 3.702137 -2.121014 2.050765 0
M  V30 4 C 4.359985 -0.772356 1.876847 0
M  V30 5 C 3.353951 0.252561 2.367070 0
M  V30 6 N 3.750398 1.604590 2.089664 0
M  V30 7 C 4.352031 2.435039 2.980871 0
M  V30 8 N 4.635606 3.662971 2.513675 0
M  V30 9 C 4.193920 3.648852 1.227993 0
M  V30 10 C 4.228638 4.646460 0.276917 0
M  V30 11 N 3.725096 4.407335 -0.947416 0
M  V30 12 C 3.203449 3.187255 -1.190009 0
M  V30 13 C 2.705670 3.007267 -2.462160 0
M  V30 14 C 2.164494 1.772381 -2.749780 0
M  V30 15 C 2.114289 0.752208 -1.822036 0
M  V30 16 C 1.522477 -0.481038 -2.261168 0
M  V30 17 C 1.027253 -1.521429 -2.617682 0
M  V30 18 C 0.421926 -2.775442 -3.066450 0
M  V30 19 N -0.946487 -2.891532 -2.662318 0
M  V30 20 C -1.092521 -2.852633 -1.250845 0
M  V30 21 O 0.054832 -2.722521 -0.727160 0
M  V30 22 C -2.327646 -2.943120 -0.490586 0
M  V30 23 C -2.151452 -2.872140 0.893866 0
M  V30 24 N -3.189761 -2.939086 1.738347 0
M  V30 25 C -4.446435 -3.076117 1.326085 0
M  V30 26 N -4.637130 -3.146154 0.000879 0
M  V30 27 C -5.979925 -3.295942 -0.521242 0
M  V30 28 C -6.623550 -1.978952 -0.773036 0
M  V30 29 C -7.342746 -1.394898 0.271644 0
M  V30 30 C -7.989610 -0.180074 0.179452 0
M  V30 31 C -7.921616 0.508706 -1.032176 0
M  V30 32 F -8.547854 1.712253 -1.164428 0
M  V30 33 C -7.212847 -0.049342 -2.088063 0
M  V30 34 F -7.153821 0.628767 -3.261793 0
M  V30 35 C -6.585076 -1.264712 -1.944547 0
M  V30 36 C -3.636986 -3.084574 -0.889222 0
M  V30 37 O -3.779555 -3.146419 -2.130247 0
M  V30 38 C 2.628020 0.983638 -0.556814 0
M  V30 39 C 3.173374 2.197387 -0.234073 0
M  V30 40 C 3.672460 2.392403 1.024233 0
M  V30 41 C 3.438988 0.090485 3.916942 0
M  V30 42 C 3.137550 -1.335566 4.280352 0
M  V30 43 H 0.913985 -1.453254 3.459579 0
M  V30 44 H 1.197636 -2.085736 1.812431 0
M  V30 45 H 0.986316 -3.229468 3.219484 0
M  V30 46 H 3.026884 -2.228999 1.147952 0
M  V30 47 H 4.443921 -2.951141 2.048827 0
M  V30 48 H 4.662942 -0.637663 0.831361 0
M  V30 49 H 5.276172 -0.650808 2.483506 0
M  V30 50 H 2.312475 0.000146 2.179368 0
M  V30 51 H 4.643919 2.267971 4.022458 0
M  V30 52 H 4.663302 5.598128 0.546624 0
M  V30 53 H 2.734134 3.787285 -3.200476 0
M  V30 54 H 1.772734 1.628283 -3.747865 0
M  V30 55 H 0.976572 -3.664533 -2.646611 0
M  V30 56 H 0.543673 -2.875879 -4.181451 0
M  V30 57 H -1.803241 -2.995251 -3.246755 0
M  V30 58 H -1.180995 -2.759782 1.375200 0
M  V30 59 H -5.243295 -3.125225 2.040026 0
M  V30 60 H -6.562981 -3.852809 0.255426 0
M  V30 61 H -5.943191 -3.907006 -1.450171 0
M  V30 62 H -7.415084 -1.907319 1.231707 0
M  V30 63 H -8.530619 0.217131 1.029701 0
M  V30 64 H -6.033581 -1.704365 -2.759051 0
M  V30 65 H 2.521357 0.112998 0.039408 0
M  V30 66 H 4.475794 0.284845 4.249788 0
M  V30 67 H 2.766650 0.793288 4.425443 0
M  V30 68 H 3.927341 -1.763348 4.953765 0
M  V30 69 H 2.211548 -1.311590 4.930508 0
M  V30 END ATOM
M  V30 BEGIN BOND
M  V30 1 1 1 2
M  V30 2 1 2 3
M  V30 3 1 3 4
M  V30 4 1 4 5
M  V30 5 1 5 6
M  V30 6 1 6 7
M  V30 7 2 7 8
M  V30 8 1 8 9
M  V30 9 2 9 10
M  V30 10 1 10 11
M  V30 11 2 11 12
M  V30 12 1 12 13
M  V30 13 2 13 14
M  V30 14 1 14 15
M  V30 15 1 15 16
M  V30 16 3 16 17
M  V30 17 1 17 18
M  V30 18 1 18 19
M  V30 19 1 19 20
M  V30 20 2 20 21
M  V30 21 1 20 22
M  V30 22 2 22 23
M  V30 23 1 23 24
M  V30 24 2 24 25
M  V30 25 1 25 26
M  V30 26 1 26 27
M  V30 27 1 27 28
M  V30 28 2 28 29
M  V30 29 1 29 30
M  V30 30 2 30 31
M  V30 31 1 31 32
M  V30 32 1 31 33
M  V30 33 1 33 34
M  V30 34 2 33 35
M  V30 35 1 26 36
M  V30 36 2 36 37
M  V30 37 2 15 38
M  V30 38 1 38 39
M  V30 39 2 39 40
M  V30 40 1 5 41
M  V30 41 1 41 42
M  V30 42 1 42 2
M  V30 43 1 40 6
M  V30 44 1 40 9
M  V30 45 1 39 12
M  V30 46 1 36 22
M  V30 47 1 35 28
M  V30 48 1 1 43
M  V30 49 1 1 44
M  V30 50 1 1 45
M  V30 51 1 3 46
M  V30 52 1 3 47
M  V30 53 1 4 48
M  V30 54 1 4 49
M  V30 55 1 5 50
M  V30 56 1 7 51
M  V30 57 1 10 52
M  V30 58 1 13 53
M  V30 59 1 14 54
M  V30 60 1 18 55
M  V30 61 1 18 56
M  V30 62 1 19 57
M  V30 63 1 23 58
M  V30 64 1 25 59
M  V30 65 1 27 60
M  V30 66 1 27 61
M  V30 67 1 29 62
M  V30 68 1 30 63
M  V30 69 1 35 64
M  V30 70 1 38 65
M  V30 71 1 41 66
M  V30 72 1 41 67
M  V30 73 1 42 68
M  V30 74 1 42 69
M  V30 END BOND
M  V30 END CTAB
M  END
>  <Dataset>  (437) 
ChEMBL_Kinases

>  <Ligand_Instance>  (437) 
nan

>  <PDB_ID>  (437) 
nan

>  <Standardized_SMILES>  (437) 
CN1CCC(n2cnc3cnc4ccc(C#CCNC(=O)c5cncn(Cc6ccc(F)c(F)c6)c5=O)cc4c32)CC1

>  <Name>  (437) 
nan

>  <Pocket>  (437) 
nan

>  <ATP_Site>  (437) 
nan

>  <Peripheral>  (437) 
nan

>  <Num_H_Atoms_ProtBoundConf>  (437) 
nan

>  <Num_Resolved_Atoms>  (437) 
nan

>  <Num_Not_Resolved_Atoms>  (437) 
nan

$$$$
CHEMBL3644690
     RDKit          3D

  0  0  0  0  0  0  0  0  0  0999 V3000
M  V30 BEGIN CTAB
M  V30 COUNTS 75 80 0 0 0
M  V30 BEGIN ATOM
M  V30 1 C 0.145311 -4.975509 1.326736 0
M  V30 2 C 0.647297 -4.205824 0.115972 0
M  V30 3 C 1.364102 -5.192021 -0.763539 0
M  V30 4 N 1.434594 -3.063884 0.499660 0
M  V30 5 C 1.875574 -2.385843 -0.681315 0
M  V30 6 C 2.527806 -1.046009 -0.419043 0
M  V30 7 C 3.343413 -1.075684 0.868620 0
M  V30 8 N 4.519898 -0.318739 0.661951 0
M  V30 9 C 5.709079 -0.862993 0.244770 0
M  V30 10 N 6.707011 0.018684 0.112805 0
M  V30 11 C 6.179247 1.229253 0.455745 0
M  V30 12 C 6.762913 2.467129 0.497630 0
M  V30 13 N 6.020135 3.521723 0.875667 0
M  V30 14 C 4.709741 3.309189 1.202385 0
M  V30 15 C 4.016153 4.418063 1.573503 0
M  V30 16 C 2.710766 4.260865 1.905418 0
M  V30 17 C 2.089701 3.030983 1.874476 0
M  V30 18 C 0.704297 2.991902 2.247379 0
M  V30 19 C -0.456317 2.938601 2.564560 0
M  V30 20 C -1.883431 2.849457 2.963703 0
M  V30 21 N -2.434752 1.756820 2.146832 0
M  V30 22 C -3.788321 1.442510 2.314653 0
M  V30 23 O -4.299016 2.216910 3.197354 0
M  V30 24 C -4.571902 0.420264 1.640837 0
M  V30 25 C -5.917054 0.343271 2.023075 0
M  V30 26 N -6.742035 -0.562098 1.470116 0
M  V30 27 C -6.341525 -1.437617 0.531978 0
M  V30 28 N -5.054683 -1.372551 0.158448 0
M  V30 29 C -4.578517 -2.296952 -0.850128 0
M  V30 30 C -4.740268 -1.719009 -2.226799 0
M  V30 31 C -5.943499 -1.966764 -2.894290 0
M  V30 32 C -6.209191 -1.489366 -4.162479 0
M  V30 33 C -5.228240 -0.735387 -4.781010 0
M  V30 34 F -5.387695 -0.214904 -6.035072 0
M  V30 35 C -4.016063 -0.467514 -4.146976 0
M  V30 36 F -3.056725 0.269453 -4.751206 0
M  V30 37 C -3.805619 -0.964415 -2.892267 0
M  V30 38 C -4.197969 -0.483365 0.685863 0
M  V30 39 O -3.013256 -0.431293 0.334849 0
M  V30 40 C 2.846812 1.918136 1.485341 0
M  V30 41 C 4.167343 2.066609 1.148305 0
M  V30 42 C 4.845269 0.956263 0.779470 0
M  V30 43 C 3.791638 -2.572113 0.937111 0
M  V30 44 C 2.574534 -3.413941 1.317332 0
M  V30 45 H 0.125920 -6.060481 1.167182 0
M  V30 46 H 0.755922 -4.702493 2.225937 0
M  V30 47 H -0.883138 -4.656190 1.575768 0
M  V30 48 H -0.251672 -3.866069 -0.437468 0
M  V30 49 H 0.610057 -5.986303 -0.992987 0
M  V30 50 H 2.172831 -5.737204 -0.216950 0
M  V30 51 H 1.675014 -4.788457 -1.741209 0
M  V30 52 H 0.983388 -2.176911 -1.320609 0
M  V30 53 H 2.565026 -3.012307 -1.281236 0
M  V30 54 H 1.826820 -0.222143 -0.391467 0
M  V30 55 H 3.192723 -0.850287 -1.295207 0
M  V30 56 H 2.790269 -0.979326 1.782949 0
M  V30 57 H 5.941391 -1.898586 0.012093 0
M  V30 58 H 7.824198 2.553905 0.218916 0
M  V30 59 H 4.468216 5.398491 1.609814 0
M  V30 60 H 2.147853 5.142131 2.204026 0
M  V30 61 H -2.344973 3.802152 2.705131 0
M  V30 62 H -2.005159 2.639650 4.030806 0
M  V30 63 H -1.886704 1.206278 1.456813 0
M  V30 64 H -6.379639 0.979126 2.762140 0
M  V30 65 H -6.973882 -2.167627 0.074909 0
M  V30 66 H -3.494454 -2.442918 -0.677451 0
M  V30 67 H -5.140029 -3.251422 -0.843068 0
M  V30 68 H -6.717143 -2.558776 -2.412358 0
M  V30 69 H -7.143100 -1.684987 -4.673663 0
M  V30 70 H -2.888689 -0.773053 -2.389156 0
M  V30 71 H 2.225066 1.056188 1.510317 0
M  V30 72 H 4.175070 -2.897118 -0.041184 0
M  V30 73 H 4.540268 -2.692788 1.715163 0
M  V30 74 H 2.308475 -3.178290 2.371108 0
M  V30 75 H 2.909635 -4.447588 1.233365 0
M  V30 END ATOM
M  V30 BEGIN BOND
M  V30 1 1 1 2
M  V30 2 1 2 3
M  V30 3 1 2 4
M  V30 4 1 4 5
M  V30 5 1 5 6
M  V30 6 1 6 7
M  V30 7 1 7 8
M  V30 8 1 8 9
M  V30 9 2 9 10
M  V30 10 1 10 11
M  V30 11 2 11 12
M  V30 12 1 12 13
M  V30 13 2 13 14
M  V30 14 1 14 15
M  V30 15 2 15 16
M  V30 16 1 16 17
M  V30 17 1 17 18
M  V30 18 3 18 19
M  V30 19 1 19 20
M  V30 20 1 20 21
M  V30 21 1 21 22
M  V30 22 2 22 23
M  V30 23 1 22 24
M  V30 24 2 24 25
M  V30 25 1 25 26
M  V30 26 2 26 27
M  V30 27 1 27 28
M  V30 28 1 28 29
M  V30 29 1 29 30
M  V30 30 2 30 31
M  V30 31 1 31 32
M  V30 32 2 32 33
M  V30 33 1 33 34
M  V30 34 1 33 35
M  V30 35 1 35 36
M  V30 36 2 35 37
M  V30 37 1 28 38
M  V30 38 2 38 39
M  V30 39 2 17 40
M  V30 40 1 40 41
M  V30 41 2 41 42
M  V30 42 1 7 43
M  V30 43 1 43 44
M  V30 44 1 44 4
M  V30 45 1 42 8
M  V30 46 1 42 11
M  V30 47 1 41 14
M  V30 48 1 38 24
M  V30 49 1 37 30
M  V30 50 1 1 45
M  V30 51 1 1 46
M  V30 52 1 1 47
M  V30 53 1 2 48
M  V30 54 1 3 49
M  V30 55 1 3 50
M  V30 56 1 3 51
M  V30 57 1 5 52
M  V30 58 1 5 53
M  V30 59 1 6 54
M  V30 60 1 6 55
M  V30 61 1 7 56
M  V30 62 1 9 57
M  V30 63 1 12 58
M  V30 64 1 15 59
M  V30 65 1 16 60
M  V30 66 1 20 61
M  V30 67 1 20 62
M  V30 68 1 21 63
M  V30 69 1 25 64
M  V30 70 1 27 65
M  V30 71 1 29 66
M  V30 72 1 29 67
M  V30 73 1 31 68
M  V30 74 1 32 69
M  V30 75 1 37 70
M  V30 76 1 40 71
M  V30 77 1 43 72
M  V30 78 1 43 73
M  V30 79 1 44 74
M  V30 80 1 44 75
M  V30 END BOND
M  V30 END CTAB
M  END
>  <Dataset>  (438) 
ChEMBL_Kinases

>  <Ligand_Instance>  (438) 
nan

>  <PDB_ID>  (438) 
nan

>  <Standardized_SMILES>  (438) 
CC(C)N1CCC(n2cnc3cnc4ccc(C#CCNC(=O)c5cncn(Cc6ccc(F)c(F)c6)c5=O)cc4c32)CC1

>  <Name>  (438) 
nan

>  <Pocket>  (438) 
nan

>  <ATP_Site>  (438) 
nan

>  <Peripheral>  (438) 
nan

>  <Num_H_Atoms_ProtBoundConf>  (438) 
nan

>  <Num_Resolved_Atoms>  (438) 
nan

>  <Num_Not_Resolved_Atoms>  (438) 
nan

$$$$
CHEMBL3644691
     RDKit          3D

  0  0  0  0  0  0  0  0  0  0999 V3000
M  V30 BEGIN CTAB
M  V30 COUNTS 66 71 0 0 0
M  V30 BEGIN ATOM
M  V30 1 O 4.104721 -3.847600 2.207745 0
M  V30 2 C 3.103807 -3.122481 2.529808 0
M  V30 3 N 2.758329 -2.292377 1.457834 0
M  V30 4 C 3.487092 -2.320698 0.204011 0
M  V30 5 C 2.892818 -1.335372 -0.733783 0
M  V30 6 C 2.408969 -0.521976 -1.479085 0
M  V30 7 C 1.813054 0.450203 -2.351461 0
M  V30 8 C 2.650399 1.408713 -2.853237 0
M  V30 9 C 2.207808 2.399918 -3.700367 0
M  V30 10 C 0.872323 2.395027 -4.031627 0
M  V30 11 N 0.473653 3.380140 -4.863726 0
M  V30 12 C -0.820239 3.421556 -5.219360 0
M  V30 13 C -1.687852 2.470589 -4.730447 0
M  V30 14 N -3.016737 2.305785 -4.940232 0
M  V30 15 C -3.362747 1.223612 -4.222138 0
M  V30 16 N -2.329886 0.644226 -3.533010 0
M  V30 17 C -2.479902 -0.511935 -2.707485 0 CFG=1
M  V30 18 C -4.009965 -0.657030 -2.444056 0
M  V30 19 C -4.660360 -1.608345 -3.374876 0
M  V30 20 C -4.017979 -1.834710 -4.692500 0
M  V30 21 N -2.597467 -1.715390 -4.742609 0
M  V30 22 C -2.116596 -1.805447 -3.375011 0
M  V30 23 C -1.329909 1.453553 -3.884871 0
M  V30 24 C -0.001585 1.453214 -3.551346 0
M  V30 25 C 0.460552 0.478511 -2.711730 0
M  V30 26 C 2.476792 -3.209478 3.836263 0
M  V30 27 C 3.041603 -4.139435 4.718374 0
M  V30 28 N 2.546250 -4.308400 5.955882 0
M  V30 29 C 1.496044 -3.610055 6.421364 0
M  V30 30 N 0.946193 -2.716067 5.585734 0
M  V30 31 C -0.187731 -1.945717 6.055602 0
M  V30 32 C 0.231787 -0.666455 6.716534 0
M  V30 33 C 0.389947 0.530940 6.048838 0
M  V30 34 C 0.774390 1.688388 6.670086 0
M  V30 35 C 1.023405 1.701181 8.015945 0
M  V30 36 F 1.401413 2.842592 8.623032 0
M  V30 37 C 0.883469 0.533238 8.745687 0
M  V30 38 F 1.131566 0.564594 10.062627 0
M  V30 39 C 0.494323 -0.612530 8.083683 0
M  V30 40 C 1.407041 -2.516817 4.348393 0
M  V30 41 O 0.893770 -1.691886 3.587910 0
M  V30 42 H 1.955240 -1.639521 1.571438 0
M  V30 43 H 4.544314 -2.028979 0.301811 0
M  V30 44 H 3.438796 -3.345315 -0.207992 0
M  V30 45 H 3.699375 1.424651 -2.601566 0
M  V30 46 H 2.877462 3.150708 -4.090077 0
M  V30 47 H -1.181493 4.195714 -5.885196 0
M  V30 48 H -4.419266 0.974314 -4.299709 0
M  V30 49 H -2.068761 -0.473490 -1.704900 0
M  V30 50 H -4.169265 -1.072795 -1.404152 0
M  V30 51 H -4.477447 0.344170 -2.394621 0
M  V30 52 H -4.935078 -2.578107 -2.858104 0
M  V30 53 H -5.682184 -1.171080 -3.601874 0
M  V30 54 H -4.318117 -2.867919 -5.029150 0
M  V30 55 H -4.415619 -1.156632 -5.501745 0
M  V30 56 H -2.165097 -2.495011 -5.270960 0
M  V30 57 H -1.085880 -2.127551 -3.302748 0
M  V30 58 H -2.723311 -2.618652 -2.888522 0
M  V30 59 H -0.035880 -0.324463 -2.241840 0
M  V30 60 H 3.894217 -4.763573 4.457212 0
M  V30 61 H 1.175701 -3.818330 7.423930 0
M  V30 62 H -0.810380 -2.546040 6.774624 0
M  V30 63 H -0.776955 -1.655653 5.162886 0
M  V30 64 H 0.205657 0.561484 5.003712 0
M  V30 65 H 0.879434 2.598813 6.078763 0
M  V30 66 H 0.398756 -1.496820 8.693621 0
M  V30 END ATOM
M  V30 BEGIN BOND
M  V30 1 2 1 2
M  V30 2 1 2 3
M  V30 3 1 3 4
M  V30 4 1 4 5
M  V30 5 3 5 6
M  V30 6 1 6 7
M  V30 7 2 7 8
M  V30 8 1 8 9
M  V30 9 2 9 10
M  V30 10 1 10 11
M  V30 11 2 11 12
M  V30 12 1 12 13
M  V30 13 1 13 14
M  V30 14 2 14 15
M  V30 15 1 15 16
M  V30 16 1 16 17
M  V30 17 1 17 18
M  V30 18 1 18 19
M  V30 19 1 19 20
M  V30 20 1 20 21
M  V30 21 1 21 22
M  V30 22 1 16 23
M  V30 23 1 23 24
M  V30 24 2 24 25
M  V30 25 1 2 26
M  V30 26 2 26 27
M  V30 27 1 27 28
M  V30 28 2 28 29
M  V30 29 1 29 30
M  V30 30 1 30 31
M  V30 31 1 31 32
M  V30 32 2 32 33
M  V30 33 1 33 34
M  V30 34 2 34 35
M  V30 35 1 35 36
M  V30 36 1 35 37
M  V30 37 1 37 38
M  V30 38 2 37 39
M  V30 39 1 30 40
M  V30 40 2 40 41
M  V30 41 1 25 7
M  V30 42 1 40 26
M  V30 43 1 24 10
M  V30 44 1 39 32
M  V30 45 2 23 13
M  V30 46 1 22 17
M  V30 47 1 3 42
M  V30 48 1 4 43
M  V30 49 1 4 44
M  V30 50 1 8 45
M  V30 51 1 9 46
M  V30 52 1 12 47
M  V30 53 1 15 48
M  V30 54 1 17 49 CFG=1
M  V30 55 1 18 50
M  V30 56 1 18 51
M  V30 57 1 19 52
M  V30 58 1 19 53
M  V30 59 1 20 54
M  V30 60 1 20 55
M  V30 61 1 21 56
M  V30 62 1 22 57
M  V30 63 1 22 58
M  V30 64 1 25 59
M  V30 65 1 27 60
M  V30 66 1 29 61
M  V30 67 1 31 62
M  V30 68 1 31 63
M  V30 69 1 33 64
M  V30 70 1 34 65
M  V30 71 1 39 66
M  V30 END BOND
M  V30 END CTAB
M  END
>  <Dataset>  (439) 
ChEMBL_Kinases

>  <Ligand_Instance>  (439) 
nan

>  <PDB_ID>  (439) 
nan

>  <Standardized_SMILES>  (439) 
O=C(NCC#Cc1ccc2ncc3ncn([C@H]4CCCNC4)c3c2c1)c1cncn(Cc2ccc(F)c(F)c2)c1=O

>  <Name>  (439) 
nan

>  <Pocket>  (439) 
nan

>  <ATP_Site>  (439) 
nan

>  <Peripheral>  (439) 
nan

>  <Num_H_Atoms_ProtBoundConf>  (439) 
nan

>  <Num_Resolved_Atoms>  (439) 
nan

>  <Num_Not_Resolved_Atoms>  (439) 
nan

$$$$
CHEMBL3644683
     RDKit          3D

  0  0  0  0  0  0  0  0  0  0999 V3000
M  V30 BEGIN CTAB
M  V30 COUNTS 61 65 0 0 0
M  V30 BEGIN ATOM
M  V30 1 O 2.596462 -4.073877 3.665021 0
M  V30 2 C 2.273862 -3.854218 2.448970 0
M  V30 3 N 2.064864 -2.462869 2.278272 0
M  V30 4 C 2.220881 -1.529638 3.377844 0
M  V30 5 C 1.942266 -0.144779 2.916661 0
M  V30 6 C 1.723918 0.974603 2.524163 0
M  V30 7 C 1.447802 2.298867 2.039495 0
M  V30 8 C 2.560203 3.082300 1.728863 0
M  V30 9 C 2.486353 4.372922 1.252564 0
M  V30 10 C 1.222038 4.893767 1.083559 0
M  V30 11 N 1.134009 6.160448 0.614812 0
M  V30 12 C -0.054992 6.755184 0.415922 0
M  V30 13 C -1.148670 5.978279 0.724922 0
M  V30 14 N -2.455157 6.289076 0.646203 0
M  V30 15 C -3.149840 5.218231 1.063807 0
M  V30 16 N -2.329487 4.176959 1.427522 0
M  V30 17 C -2.931016 2.994199 1.872897 0
M  V30 18 C -3.316912 2.031966 0.780946 0
M  V30 19 C -2.234273 1.546237 -0.107162 0
M  V30 20 O -1.595476 2.569264 -0.816321 0
M  V30 21 C -1.122558 4.688145 1.203220 0
M  V30 22 C 0.113637 4.134199 1.385579 0
M  V30 23 C 0.197881 2.854487 1.857164 0
M  V30 24 C 2.149979 -4.883770 1.431332 0
M  V30 25 C 2.422060 -6.174339 1.908788 0
M  V30 26 N 2.351609 -7.231918 1.094840 0
M  V30 27 C 2.029736 -7.151305 -0.187502 0
M  V30 28 N 1.766702 -5.920177 -0.657310 0
M  V30 29 C 1.406579 -5.746410 -2.049308 0
M  V30 30 C -0.070066 -5.840979 -2.273417 0
M  V30 31 C -0.552712 -7.103306 -2.538947 0
M  V30 32 C -1.918821 -7.289142 -2.762308 0
M  V30 33 C -2.776846 -6.205762 -2.715459 0
M  V30 34 F -4.118051 -6.379935 -2.933665 0
M  V30 35 C -2.294994 -4.935681 -2.448839 0
M  V30 36 F -3.123307 -3.841995 -2.396186 0
M  V30 37 C -0.955942 -4.785391 -2.234850 0
M  V30 38 C 1.819306 -4.836807 0.096305 0
M  V30 39 O 1.582516 -3.669871 -0.297627 0
M  V30 40 H 1.792508 -2.101395 1.339854 0
M  V30 41 H 3.258479 -1.505823 3.766275 0
M  V30 42 H 1.555704 -1.794769 4.222787 0
M  V30 43 H 3.556095 2.693093 1.854773 0
M  V30 44 H 3.337334 4.965433 1.017150 0
M  V30 45 H -0.176744 7.767825 0.041954 0
M  V30 46 H -4.232593 5.310193 1.060346 0
M  V30 47 H -2.447284 2.377053 2.638902 0
M  V30 48 H -4.001656 3.223427 2.287044 0
M  V30 49 H -3.749824 1.104160 1.276691 0
M  V30 50 H -4.178939 2.407496 0.181244 0
M  V30 51 H -1.468351 0.913686 0.360436 0
M  V30 52 H -2.663231 0.887475 -0.931220 0
M  V30 53 H -2.025482 2.737948 -1.713203 0
M  V30 54 H -0.518471 2.164942 2.117256 0
M  V30 55 H 2.698631 -6.411738 2.927217 0
M  V30 56 H 1.987103 -8.035356 -0.801081 0
M  V30 57 H 1.795792 -4.777320 -2.393792 0
M  V30 58 H 1.929686 -6.523031 -2.653995 0
M  V30 59 H 0.087862 -7.952633 -2.580216 0
M  V30 60 H -2.378099 -8.250668 -2.977586 0
M  V30 61 H -0.549876 -3.817575 -2.026179 0
M  V30 END ATOM
M  V30 BEGIN BOND
M  V30 1 2 1 2
M  V30 2 1 2 3
M  V30 3 1 3 4
M  V30 4 1 4 5
M  V30 5 3 5 6
M  V30 6 1 6 7
M  V30 7 2 7 8
M  V30 8 1 8 9
M  V30 9 2 9 10
M  V30 10 1 10 11
M  V30 11 2 11 12
M  V30 12 1 12 13
M  V30 13 1 13 14
M  V30 14 2 14 15
M  V30 15 1 15 16
M  V30 16 1 16 17
M  V30 17 1 17 18
M  V30 18 1 18 19
M  V30 19 1 19 20
M  V30 20 1 16 21
M  V30 21 1 21 22
M  V30 22 2 22 23
M  V30 23 1 2 24
M  V30 24 2 24 25
M  V30 25 1 25 26
M  V30 26 2 26 27
M  V30 27 1 27 28
M  V30 28 1 28 29
M  V30 29 1 29 30
M  V30 30 2 30 31
M  V30 31 1 31 32
M  V30 32 2 32 33
M  V30 33 1 33 34
M  V30 34 1 33 35
M  V30 35 1 35 36
M  V30 36 2 35 37
M  V30 37 1 28 38
M  V30 38 2 38 39
M  V30 39 1 23 7
M  V30 40 1 38 24
M  V30 41 1 22 10
M  V30 42 1 37 30
M  V30 43 2 21 13
M  V30 44 1 3 40
M  V30 45 1 4 41
M  V30 46 1 4 42
M  V30 47 1 8 43
M  V30 48 1 9 44
M  V30 49 1 12 45
M  V30 50 1 15 46
M  V30 51 1 17 47
M  V30 52 1 17 48
M  V30 53 1 18 49
M  V30 54 1 18 50
M  V30 55 1 19 51
M  V30 56 1 19 52
M  V30 57 1 20 53
M  V30 58 1 23 54
M  V30 59 1 25 55
M  V30 60 1 27 56
M  V30 61 1 29 57
M  V30 62 1 29 58
M  V30 63 1 31 59
M  V30 64 1 32 60
M  V30 65 1 37 61
M  V30 END BOND
M  V30 END CTAB
M  END
>  <Dataset>  (440) 
ChEMBL_Kinases

>  <Ligand_Instance>  (440) 
nan

>  <PDB_ID>  (440) 
nan

>  <Standardized_SMILES>  (440) 
O=C(NCC#Cc1ccc2ncc3ncn(CCCO)c3c2c1)c1cncn(Cc2ccc(F)c(F)c2)c1=O

>  <Name>  (440) 
nan

>  <Pocket>  (440) 
nan

>  <ATP_Site>  (440) 
nan

>  <Peripheral>  (440) 
nan

>  <Num_H_Atoms_ProtBoundConf>  (440) 
nan

>  <Num_Resolved_Atoms>  (440) 
nan

>  <Num_Not_Resolved_Atoms>  (440) 
nan

$$$$
CHEMBL3640537
     RDKit          3D

  0  0  0  0  0  0  0  0  0  0999 V3000
M  V30 BEGIN CTAB
M  V30 COUNTS 61 64 0 0 0
M  V30 BEGIN ATOM
M  V30 1 C 2.444294 -2.079761 4.509175 0
M  V30 2 C 3.237631 -1.650501 3.272218 0
M  V30 3 C 2.355942 -1.860270 2.077176 0
M  V30 4 N 3.685159 -0.305399 3.469248 0
M  V30 5 C 4.413541 0.731609 2.824741 0
M  V30 6 C 5.787991 0.685152 3.088077 0
M  V30 7 C 6.393631 -0.308654 3.924038 0
M  V30 8 N 6.874363 -1.127256 4.590676 0
M  V30 9 C 6.670301 1.621589 2.542725 0
M  V30 10 N 6.129094 2.566372 1.754072 0
M  V30 11 C 4.818017 2.655932 1.469633 0
M  V30 12 C 4.284289 3.645850 0.650751 0
M  V30 13 C 2.906432 3.681145 0.397398 0
M  V30 14 C 2.087989 2.724335 0.968766 0
M  V30 15 C 0.670440 2.750643 0.714053 0
M  V30 16 C -0.521582 2.753723 0.490904 0
M  V30 17 C -1.978236 2.742501 0.201011 0
M  V30 18 N -2.340285 1.539162 -0.523468 0
M  V30 19 C -3.665462 1.245195 -0.939561 0
M  V30 20 O -4.429629 2.195307 -0.571468 0
M  V30 21 C -4.108966 0.067431 -1.664905 0
M  V30 22 C -5.484402 0.060510 -1.936432 0
M  V30 23 C -6.080035 -0.962832 -2.608896 0
M  V30 24 C -5.344599 -2.023192 -3.042414 0
M  V30 25 N -4.026892 -2.022112 -2.785427 0
M  V30 26 C -3.200243 -3.128459 -3.224448 0
M  V30 27 C -3.117068 -4.200833 -2.201590 0
M  V30 28 C -2.159479 -4.292544 -1.217328 0
M  V30 29 C -2.088161 -5.277999 -0.279472 0
M  V30 30 C -3.032524 -6.277122 -0.287389 0
M  V30 31 F -2.975753 -7.261646 0.636698 0
M  V30 32 C -4.023110 -6.242192 -1.252597 0
M  V30 33 F -4.922316 -7.255136 -1.205518 0
M  V30 34 C -4.065486 -5.225381 -2.191036 0
M  V30 35 C -3.434705 -1.015084 -2.122496 0
M  V30 36 O -2.210456 -1.006039 -1.879608 0
M  V30 37 C 2.575610 1.714043 1.795101 0
M  V30 38 C 3.939603 1.735542 2.003846 0
M  V30 39 H 1.482740 -2.544114 4.237533 0
M  V30 40 H 2.199716 -1.197413 5.139333 0
M  V30 41 H 3.072243 -2.733918 5.112579 0
M  V30 42 H 4.099985 -2.358450 3.152214 0
M  V30 43 H 2.795611 -1.564016 1.123118 0
M  V30 44 H 2.134827 -2.955592 2.041216 0
M  V30 45 H 1.370877 -1.357984 2.179597 0
M  V30 46 H 3.468804 0.226251 4.363206 0
M  V30 47 H 7.737420 1.594094 2.740306 0
M  V30 48 H 4.940264 4.384825 0.213465 0
M  V30 49 H 2.484325 4.462732 -0.249463 0
M  V30 50 H -2.572742 2.819583 1.127662 0
M  V30 51 H -2.174619 3.656849 -0.382819 0
M  V30 52 H -1.584171 0.858392 -0.747211 0
M  V30 53 H -6.144715 0.859653 -1.630651 0
M  V30 54 H -7.133702 -0.969855 -2.817895 0
M  V30 55 H -5.779691 -2.843542 -3.573168 0
M  V30 56 H -3.647141 -3.625122 -4.130967 0
M  V30 57 H -2.190638 -2.823892 -3.547914 0
M  V30 58 H -1.404194 -3.532706 -1.177936 0
M  V30 59 H -1.310821 -5.306248 0.479129 0
M  V30 60 H -4.868458 -5.286161 -2.894657 0
M  V30 61 H 1.931326 0.982389 2.232496 0
M  V30 END ATOM
M  V30 BEGIN BOND
M  V30 1 1 1 2
M  V30 2 1 2 3
M  V30 3 1 2 4
M  V30 4 1 4 5
M  V30 5 2 5 6
M  V30 6 1 6 7
M  V30 7 3 7 8
M  V30 8 1 6 9
M  V30 9 2 9 10
M  V30 10 1 10 11
M  V30 11 2 11 12
M  V30 12 1 12 13
M  V30 13 2 13 14
M  V30 14 1 14 15
M  V30 15 3 15 16
M  V30 16 1 16 17
M  V30 17 1 17 18
M  V30 18 1 18 19
M  V30 19 2 19 20
M  V30 20 1 19 21
M  V30 21 2 21 22
M  V30 22 1 22 23
M  V30 23 2 23 24
M  V30 24 1 24 25
M  V30 25 1 25 26
M  V30 26 1 26 27
M  V30 27 2 27 28
M  V30 28 1 28 29
M  V30 29 2 29 30
M  V30 30 1 30 31
M  V30 31 1 30 32
M  V30 32 1 32 33
M  V30 33 2 32 34
M  V30 34 1 25 35
M  V30 35 2 35 36
M  V30 36 1 14 37
M  V30 37 2 37 38
M  V30 38 1 38 5
M  V30 39 1 38 11
M  V30 40 1 35 21
M  V30 41 1 34 27
M  V30 42 1 1 39
M  V30 43 1 1 40
M  V30 44 1 1 41
M  V30 45 1 2 42
M  V30 46 1 3 43
M  V30 47 1 3 44
M  V30 48 1 3 45
M  V30 49 1 4 46
M  V30 50 1 9 47
M  V30 51 1 12 48
M  V30 52 1 13 49
M  V30 53 1 17 50
M  V30 54 1 17 51
M  V30 55 1 18 52
M  V30 56 1 22 53
M  V30 57 1 23 54
M  V30 58 1 24 55
M  V30 59 1 26 56
M  V30 60 1 26 57
M  V30 61 1 28 58
M  V30 62 1 29 59
M  V30 63 1 34 60
M  V30 64 1 37 61
M  V30 END BOND
M  V30 END CTAB
M  END
>  <Dataset>  (441) 
ChEMBL_Kinases

>  <Ligand_Instance>  (441) 
nan

>  <PDB_ID>  (441) 
nan

>  <Standardized_SMILES>  (441) 
CC(C)Nc1c(C#N)cnc2ccc(C#CCNC(=O)c3cccn(Cc4ccc(F)c(F)c4)c3=O)cc12

>  <Name>  (441) 
nan

>  <Pocket>  (441) 
nan

>  <ATP_Site>  (441) 
nan

>  <Peripheral>  (441) 
nan

>  <Num_H_Atoms_ProtBoundConf>  (441) 
nan

>  <Num_Resolved_Atoms>  (441) 
nan

>  <Num_Not_Resolved_Atoms>  (441) 
nan

$$$$
CHEMBL3640536
     RDKit          3D

  0  0  0  0  0  0  0  0  0  0999 V3000
M  V30 BEGIN CTAB
M  V30 COUNTS 61 64 0 0 0
M  V30 BEGIN ATOM
M  V30 1 C 1.327673 -1.919253 4.144531 0
M  V30 2 C 1.573465 -0.630401 4.868129 0
M  V30 3 N 0.401648 0.092269 5.251960 0
M  V30 4 C 0.616059 1.358280 5.954687 0
M  V30 5 C -0.973903 -0.127768 5.122288 0
M  V30 6 C -1.728274 -0.771536 6.056948 0
M  V30 7 C -1.084547 -1.246841 7.243345 0
M  V30 8 N -0.550333 -1.631826 8.211619 0
M  V30 9 C -3.097320 -0.943795 5.830098 0
M  V30 10 N -3.697325 -0.481392 4.693802 0
M  V30 11 C -2.963407 0.157686 3.759688 0
M  V30 12 C -3.601233 0.610772 2.618942 0
M  V30 13 C -2.873255 1.275403 1.624499 0
M  V30 14 C -1.523276 1.459569 1.816904 0
M  V30 15 C -0.628296 2.112713 0.903700 0
M  V30 16 C 0.132719 2.648959 0.122621 0
M  V30 17 C 1.065856 3.274915 -0.816429 0
M  V30 18 N 0.972802 2.664238 -2.157736 0
M  V30 19 C 1.222328 1.340009 -2.169138 0
M  V30 20 O 1.513289 0.646678 -1.125681 0
M  V30 21 C 1.389557 0.034539 -2.691806 0
M  V30 22 C 1.099070 0.650347 -4.043256 0
M  V30 23 C 1.043807 0.011784 -5.337060 0
M  V30 24 C 1.290011 -1.375289 -5.374051 0
M  V30 25 N 1.551408 -1.955719 -4.190878 0
M  V30 26 C 1.833085 -3.342723 -3.912529 0
M  V30 27 C 0.518361 -4.026596 -3.630644 0
M  V30 28 C 0.057480 -4.283998 -2.357876 0
M  V30 29 C -1.137464 -4.886855 -2.067327 0
M  V30 30 C -1.908422 -5.247832 -3.181428 0
M  V30 31 F -3.105500 -5.847662 -2.924723 0
M  V30 32 C -1.518237 -5.025808 -4.481550 0
M  V30 33 F -2.269996 -5.378034 -5.538878 0
M  V30 34 C -0.287208 -4.406262 -4.696394 0
M  V30 35 C 1.534438 -1.126330 -3.182827 0
M  V30 36 O 1.774623 -1.561089 -1.965104 0
M  V30 37 C -0.918310 0.990596 2.976181 0
M  V30 38 C -1.602641 0.332849 3.975635 0
M  V30 39 H 1.874404 -1.946651 3.158080 0
M  V30 40 H 0.260438 -2.108796 3.937199 0
M  V30 41 H 1.749415 -2.748976 4.754789 0
M  V30 42 H 2.223227 -0.769943 5.772051 0
M  V30 43 H 2.186273 0.029221 4.180706 0
M  V30 44 H 0.197247 2.174258 5.307010 0
M  V30 45 H 0.027569 1.397613 6.877363 0
M  V30 46 H 1.679125 1.608543 6.069439 0
M  V30 47 H -3.593201 -1.466694 6.633221 0
M  V30 48 H -4.661773 0.482044 2.439892 0
M  V30 49 H -3.271442 1.665847 0.697874 0
M  V30 50 H 0.782076 4.333821 -0.893235 0
M  V30 51 H 2.114909 3.134607 -0.493294 0
M  V30 52 H 0.775224 2.881376 -3.137815 0
M  V30 53 H 0.852464 1.634909 -4.566242 0
M  V30 54 H 0.860157 0.238879 -6.405723 0
M  V30 55 H 1.320927 -2.115313 -6.157072 0
M  V30 56 H 2.249753 -3.817493 -4.837870 0
M  V30 57 H 2.560578 -3.494593 -3.112805 0
M  V30 58 H 0.662931 -4.008797 -1.502757 0
M  V30 59 H -1.463597 -5.073355 -1.044118 0
M  V30 60 H -0.007788 -4.245854 -5.746245 0
M  V30 61 H 0.144537 1.110131 3.174720 0
M  V30 END ATOM
M  V30 BEGIN BOND
M  V30 1 1 1 2
M  V30 2 1 2 3
M  V30 3 1 3 4
M  V30 4 1 3 5
M  V30 5 2 5 6
M  V30 6 1 6 7
M  V30 7 3 7 8
M  V30 8 1 6 9
M  V30 9 2 9 10
M  V30 10 1 10 11
M  V30 11 2 11 12
M  V30 12 1 12 13
M  V30 13 2 13 14
M  V30 14 1 14 15
M  V30 15 3 15 16
M  V30 16 1 16 17
M  V30 17 1 17 18
M  V30 18 1 18 19
M  V30 19 2 19 20
M  V30 20 1 19 21
M  V30 21 2 21 22
M  V30 22 1 22 23
M  V30 23 2 23 24
M  V30 24 1 24 25
M  V30 25 1 25 26
M  V30 26 1 26 27
M  V30 27 2 27 28
M  V30 28 1 28 29
M  V30 29 2 29 30
M  V30 30 1 30 31
M  V30 31 1 30 32
M  V30 32 1 32 33
M  V30 33 2 32 34
M  V30 34 1 25 35
M  V30 35 2 35 36
M  V30 36 1 14 37
M  V30 37 2 37 38
M  V30 38 1 38 5
M  V30 39 1 38 11
M  V30 40 1 35 21
M  V30 41 1 34 27
M  V30 42 1 1 39
M  V30 43 1 1 40
M  V30 44 1 1 41
M  V30 45 1 2 42
M  V30 46 1 2 43
M  V30 47 1 4 44
M  V30 48 1 4 45
M  V30 49 1 4 46
M  V30 50 1 9 47
M  V30 51 1 12 48
M  V30 52 1 13 49
M  V30 53 1 17 50
M  V30 54 1 17 51
M  V30 55 1 18 52
M  V30 56 1 22 53
M  V30 57 1 23 54
M  V30 58 1 24 55
M  V30 59 1 26 56
M  V30 60 1 26 57
M  V30 61 1 28 58
M  V30 62 1 29 59
M  V30 63 1 34 60
M  V30 64 1 37 61
M  V30 END BOND
M  V30 END CTAB
M  END
>  <Dataset>  (442) 
ChEMBL_Kinases

>  <Ligand_Instance>  (442) 
nan

>  <PDB_ID>  (442) 
nan

>  <Standardized_SMILES>  (442) 
CCN(C)c1c(C#N)cnc2ccc(C#CCNC(=O)c3cccn(Cc4ccc(F)c(F)c4)c3=O)cc12

>  <Name>  (442) 
nan

>  <Pocket>  (442) 
nan

>  <ATP_Site>  (442) 
nan

>  <Peripheral>  (442) 
nan

>  <Num_H_Atoms_ProtBoundConf>  (442) 
nan

>  <Num_Resolved_Atoms>  (442) 
nan

>  <Num_Not_Resolved_Atoms>  (442) 
nan

$$$$
CHEMBL3640535
     RDKit          3D

  0  0  0  0  0  0  0  0  0  0999 V3000
M  V30 BEGIN CTAB
M  V30 COUNTS 65 69 0 0 0
M  V30 BEGIN ATOM
M  V30 1 N 5.215274 -0.029236 5.568054 0
M  V30 2 C 4.355393 0.644814 5.216037 0
M  V30 3 C 3.283997 1.466080 4.759890 0
M  V30 4 C 2.681262 2.302947 5.706139 0
M  V30 5 N 1.659259 3.133769 5.414488 0
M  V30 6 C 1.193210 3.160993 4.144654 0
M  V30 7 C 0.160790 3.987803 3.752713 0
M  V30 8 C -0.257808 3.977128 2.437206 0
M  V30 9 C 0.321248 3.155860 1.460486 0
M  V30 10 C -0.166412 3.216328 0.100629 0
M  V30 11 C -0.568445 3.287410 -1.036131 0
M  V30 12 C -1.043643 3.396607 -2.411200 0
M  V30 13 N -0.935875 2.149331 -3.096055 0
M  V30 14 C -1.632243 1.082951 -2.632883 0
M  V30 15 O -2.392565 1.089800 -1.614560 0
M  V30 16 C -2.084183 -0.208319 -2.596666 0
M  V30 17 C -1.240573 -0.495061 -3.815858 0
M  V30 18 C -1.055085 -1.703385 -4.572729 0
M  V30 19 C -1.757104 -2.831449 -4.141980 0
M  V30 20 N -2.537205 -2.662149 -3.055788 0
M  V30 21 C -3.370652 -3.630540 -2.400192 0
M  V30 22 C -2.676505 -4.380800 -1.325750 0
M  V30 23 C -1.996610 -5.524946 -1.760400 0
M  V30 24 C -1.291663 -6.360560 -0.916895 0
M  V30 25 C -1.251256 -6.056583 0.429799 0
M  V30 26 F -0.567324 -6.847577 1.314473 0
M  V30 27 C -1.914394 -4.934500 0.876355 0
M  V30 28 F -1.911125 -4.583890 2.184731 0
M  V30 29 C -2.615677 -4.106855 0.024164 0
M  V30 30 C -2.519457 -1.452212 -2.561889 0
M  V30 31 O -3.229570 -1.130727 -1.500876 0
M  V30 32 C 1.349059 2.337649 1.872402 0
M  V30 33 C 1.761792 2.351534 3.186566 0
M  V30 34 C 2.805195 1.488895 3.443967 0
M  V30 35 N 3.498990 0.601477 2.608345 0
M  V30 36 C 3.151024 -0.798002 2.447668 0
M  V30 37 C 1.747843 -0.959768 2.012968 0
M  V30 38 C 0.813762 -1.030896 3.053798 0
M  V30 39 C -0.539725 -1.179953 2.842815 0
M  V30 40 C -0.975647 -1.261015 1.537565 0
M  V30 41 C -0.098315 -1.196825 0.475069 0
M  V30 42 C 1.250885 -1.047714 0.710975 0
M  V30 43 H 3.047881 2.297049 6.743518 0
M  V30 44 H -0.264845 4.604538 4.516771 0
M  V30 45 H -1.082709 4.642623 2.142359 0
M  V30 46 H -2.114585 3.719488 -2.451778 0
M  V30 47 H -0.475037 4.196792 -2.898440 0
M  V30 48 H -0.421919 1.818003 -3.924414 0
M  V30 49 H -0.510281 0.029364 -4.539444 0
M  V30 50 H -0.505335 -2.081972 -5.449008 0
M  V30 51 H -1.845421 -3.853595 -4.464791 0
M  V30 52 H -4.277500 -3.152202 -1.977166 0
M  V30 53 H -3.782443 -4.359775 -3.157068 0
M  V30 54 H -1.987089 -5.824147 -2.806500 0
M  V30 55 H -0.776682 -7.237681 -1.280298 0
M  V30 56 H -3.164289 -3.214411 0.285197 0
M  V30 57 H 1.782784 1.735285 1.118888 0
M  V30 58 H 4.288406 1.091428 2.128890 0
M  V30 59 H 3.295183 -1.402703 3.360286 0
M  V30 60 H 3.857489 -1.226788 1.703013 0
M  V30 61 H 1.116129 -0.971516 4.089397 0
M  V30 62 H -1.264060 -1.236568 3.647669 0
M  V30 63 H -2.010656 -1.373734 1.253842 0
M  V30 64 H -0.283954 -1.246032 -0.577806 0
M  V30 65 H 2.077945 -0.979668 -0.000431 0
M  V30 END ATOM
M  V30 BEGIN BOND
M  V30 1 3 1 2
M  V30 2 1 2 3
M  V30 3 2 3 4
M  V30 4 1 4 5
M  V30 5 2 5 6
M  V30 6 1 6 7
M  V30 7 2 7 8
M  V30 8 1 8 9
M  V30 9 1 9 10
M  V30 10 3 10 11
M  V30 11 1 11 12
M  V30 12 1 12 13
M  V30 13 1 13 14
M  V30 14 2 14 15
M  V30 15 1 14 16
M  V30 16 2 16 17
M  V30 17 1 17 18
M  V30 18 2 18 19
M  V30 19 1 19 20
M  V30 20 1 20 21
M  V30 21 1 21 22
M  V30 22 2 22 23
M  V30 23 1 23 24
M  V30 24 2 24 25
M  V30 25 1 25 26
M  V30 26 1 25 27
M  V30 27 1 27 28
M  V30 28 2 27 29
M  V30 29 1 20 30
M  V30 30 2 30 31
M  V30 31 2 9 32
M  V30 32 1 32 33
M  V30 33 2 33 34
M  V30 34 1 34 35
M  V30 35 1 35 36
M  V30 36 1 36 37
M  V30 37 2 37 38
M  V30 38 1 38 39
M  V30 39 2 39 40
M  V30 40 1 40 41
M  V30 41 2 41 42
M  V30 42 1 34 3
M  V30 43 1 42 37
M  V30 44 1 33 6
M  V30 45 1 30 16
M  V30 46 1 29 22
M  V30 47 1 4 43
M  V30 48 1 7 44
M  V30 49 1 8 45
M  V30 50 1 12 46
M  V30 51 1 12 47
M  V30 52 1 13 48
M  V30 53 1 17 49
M  V30 54 1 18 50
M  V30 55 1 19 51
M  V30 56 1 21 52
M  V30 57 1 21 53
M  V30 58 1 23 54
M  V30 59 1 24 55
M  V30 60 1 29 56
M  V30 61 1 32 57
M  V30 62 1 35 58
M  V30 63 1 36 59
M  V30 64 1 36 60
M  V30 65 1 38 61
M  V30 66 1 39 62
M  V30 67 1 40 63
M  V30 68 1 41 64
M  V30 69 1 42 65
M  V30 END BOND
M  V30 END CTAB
M  END
>  <Dataset>  (443) 
ChEMBL_Kinases

>  <Ligand_Instance>  (443) 
nan

>  <PDB_ID>  (443) 
nan

>  <Standardized_SMILES>  (443) 
N#Cc1cnc2ccc(C#CCNC(=O)c3cccn(Cc4ccc(F)c(F)c4)c3=O)cc2c1NCc1ccccc1

>  <Name>  (443) 
nan

>  <Pocket>  (443) 
nan

>  <ATP_Site>  (443) 
nan

>  <Peripheral>  (443) 
nan

>  <Num_H_Atoms_ProtBoundConf>  (443) 
nan

>  <Num_Resolved_Atoms>  (443) 
nan

>  <Num_Not_Resolved_Atoms>  (443) 
nan

$$$$
CHEMBL3640534
     RDKit          3D

  0  0  0  0  0  0  0  0  0  0999 V3000
M  V30 BEGIN CTAB
M  V30 COUNTS 64 67 0 0 0
M  V30 BEGIN ATOM
M  V30 1 C 2.009912 -1.065656 4.874839 0
M  V30 2 C 1.693739 -0.176572 3.682310 0
M  V30 3 C 0.985130 -0.980575 2.608876 0
M  V30 4 N 2.910186 0.359116 3.095565 0
M  V30 5 C 3.864643 -0.592511 2.584658 0
M  V30 6 C 3.458616 1.643112 2.872448 0
M  V30 7 C 4.242074 2.095320 3.938503 0
M  V30 8 C 4.468762 1.347063 5.127477 0
M  V30 9 N 4.646741 0.748388 6.101195 0
M  V30 10 C 4.851139 3.344467 3.868048 0
M  V30 11 N 4.701758 4.132414 2.789033 0
M  V30 12 C 3.942426 3.707736 1.741980 0
M  V30 13 C 3.748818 4.478336 0.592546 0
M  V30 14 C 2.965886 3.980352 -0.428801 0
M  V30 15 C 2.353225 2.729120 -0.363485 0
M  V30 16 C 1.545360 2.254575 -1.457682 0
M  V30 17 C 0.860465 1.844047 -2.363804 0
M  V30 18 C 0.006743 1.325759 -3.462203 0
M  V30 19 N -0.674902 0.118080 -3.038073 0
M  V30 20 C -1.555153 -0.582739 -3.898537 0
M  V30 21 O -1.611883 0.023127 -5.021252 0
M  V30 22 C -2.300413 -1.795613 -3.611474 0
M  V30 23 C -3.088728 -2.257789 -4.653807 0
M  V30 24 C -3.852063 -3.397624 -4.528290 0
M  V30 25 C -3.877006 -4.135021 -3.376418 0
M  V30 26 N -3.104361 -3.666516 -2.380226 0
M  V30 27 C -3.088282 -4.404225 -1.132908 0
M  V30 28 C -4.134368 -3.941709 -0.182284 0
M  V30 29 C -3.967716 -2.957313 0.767778 0
M  V30 30 C -4.996114 -2.586234 1.614524 0
M  V30 31 C -6.236255 -3.197149 1.533907 0
M  V30 32 F -7.211689 -2.798554 2.385509 0
M  V30 33 C -6.444805 -4.192063 0.591683 0
M  V30 34 F -7.647333 -4.803669 0.493504 0
M  V30 35 C -5.397551 -4.535972 -0.235226 0
M  V30 36 C -2.361629 -2.573015 -2.476898 0
M  V30 37 O -1.646903 -2.152706 -1.534213 0
M  V30 38 C 2.539801 1.959392 0.771543 0
M  V30 39 C 3.325598 2.475485 1.780433 0
M  V30 40 H 1.997457 -0.447733 5.810982 0
M  V30 41 H 1.189624 -1.792277 4.978048 0
M  V30 42 H 3.000049 -1.522494 4.824675 0
M  V30 43 H 0.997569 0.608884 4.030649 0
M  V30 44 H 0.243230 -0.297818 2.110431 0
M  V30 45 H 0.420818 -1.795128 3.118386 0
M  V30 46 H 1.671332 -1.381459 1.846143 0
M  V30 47 H 3.516823 -1.658778 2.669046 0
M  V30 48 H 4.187032 -0.390756 1.540128 0
M  V30 49 H 4.813737 -0.591816 3.197061 0
M  V30 50 H 5.472187 3.766075 4.649757 0
M  V30 51 H 4.228446 5.450837 0.548378 0
M  V30 52 H 2.807502 4.561396 -1.319620 0
M  V30 53 H -0.668760 2.125465 -3.779166 0
M  V30 54 H 0.619624 1.069185 -4.362568 0
M  V30 55 H -0.520236 -0.252655 -2.077039 0
M  V30 56 H -3.136653 -1.734580 -5.621011 0
M  V30 57 H -4.452188 -3.723500 -5.364371 0
M  V30 58 H -4.489289 -5.023610 -3.317840 0
M  V30 59 H -2.105217 -4.260194 -0.666398 0
M  V30 60 H -3.218040 -5.482427 -1.383197 0
M  V30 61 H -3.003440 -2.482569 0.830720 0
M  V30 62 H -4.753261 -1.791848 2.332699 0
M  V30 63 H -5.606287 -5.317096 -0.954867 0
M  V30 64 H 2.074537 1.006855 0.821906 0
M  V30 END ATOM
M  V30 BEGIN BOND
M  V30 1 1 1 2
M  V30 2 1 2 3
M  V30 3 1 2 4
M  V30 4 1 4 5
M  V30 5 1 4 6
M  V30 6 2 6 7
M  V30 7 1 7 8
M  V30 8 3 8 9
M  V30 9 1 7 10
M  V30 10 2 10 11
M  V30 11 1 11 12
M  V30 12 2 12 13
M  V30 13 1 13 14
M  V30 14 2 14 15
M  V30 15 1 15 16
M  V30 16 3 16 17
M  V30 17 1 17 18
M  V30 18 1 18 19
M  V30 19 1 19 20
M  V30 20 2 20 21
M  V30 21 1 20 22
M  V30 22 2 22 23
M  V30 23 1 23 24
M  V30 24 2 24 25
M  V30 25 1 25 26
M  V30 26 1 26 27
M  V30 27 1 27 28
M  V30 28 2 28 29
M  V30 29 1 29 30
M  V30 30 2 30 31
M  V30 31 1 31 32
M  V30 32 1 31 33
M  V30 33 1 33 34
M  V30 34 2 33 35
M  V30 35 1 26 36
M  V30 36 2 36 37
M  V30 37 1 15 38
M  V30 38 2 38 39
M  V30 39 1 39 6
M  V30 40 1 39 12
M  V30 41 1 36 22
M  V30 42 1 35 28
M  V30 43 1 1 40
M  V30 44 1 1 41
M  V30 45 1 1 42
M  V30 46 1 2 43
M  V30 47 1 3 44
M  V30 48 1 3 45
M  V30 49 1 3 46
M  V30 50 1 5 47
M  V30 51 1 5 48
M  V30 52 1 5 49
M  V30 53 1 10 50
M  V30 54 1 13 51
M  V30 55 1 14 52
M  V30 56 1 18 53
M  V30 57 1 18 54
M  V30 58 1 19 55
M  V30 59 1 23 56
M  V30 60 1 24 57
M  V30 61 1 25 58
M  V30 62 1 27 59
M  V30 63 1 27 60
M  V30 64 1 29 61
M  V30 65 1 30 62
M  V30 66 1 35 63
M  V30 67 1 38 64
M  V30 END BOND
M  V30 END CTAB
M  END
>  <Dataset>  (444) 
ChEMBL_Kinases

>  <Ligand_Instance>  (444) 
nan

>  <PDB_ID>  (444) 
nan

>  <Standardized_SMILES>  (444) 
CC(C)N(C)c1c(C#N)cnc2ccc(C#CCNC(=O)c3cccn(Cc4ccc(F)c(F)c4)c3=O)cc12

>  <Name>  (444) 
nan

>  <Pocket>  (444) 
nan

>  <ATP_Site>  (444) 
nan

>  <Peripheral>  (444) 
nan

>  <Num_H_Atoms_ProtBoundConf>  (444) 
nan

>  <Num_Resolved_Atoms>  (444) 
nan

>  <Num_Not_Resolved_Atoms>  (444) 
nan

$$$$
CHEMBL3640533
     RDKit          3D

  0  0  0  0  0  0  0  0  0  0999 V3000
M  V30 BEGIN CTAB
M  V30 COUNTS 64 67 0 0 0
M  V30 BEGIN ATOM
M  V30 1 C 3.939056 -1.087752 2.017213 0
M  V30 2 C 2.503389 -0.786817 2.416379 0
M  V30 3 N 2.218072 0.599558 2.563006 0
M  V30 4 C 0.813156 0.674891 2.940285 0
M  V30 5 C -0.150629 0.237732 1.885874 0
M  V30 6 C 3.060853 1.734697 2.416872 0
M  V30 7 C 3.788388 2.235204 3.508782 0
M  V30 8 C 3.633747 1.535235 4.773533 0
M  V30 9 N 3.505821 0.969155 5.768876 0
M  V30 10 C 4.585046 3.338302 3.327353 0
M  V30 11 N 4.735084 3.999853 2.169622 0
M  V30 12 C 4.056455 3.555879 1.095992 0
M  V30 13 C 4.152200 4.194337 -0.118281 0
M  V30 14 C 3.468117 3.798450 -1.266312 0
M  V30 15 C 2.661777 2.705013 -1.144987 0
M  V30 16 C 1.830929 2.091500 -2.134327 0
M  V30 17 C 1.126847 1.567009 -2.946072 0
M  V30 18 C 0.228083 0.897084 -3.945106 0
M  V30 19 N -0.397027 -0.144637 -3.181055 0
M  V30 20 C -1.330408 -1.144643 -3.404313 0
M  V30 21 O -1.768148 -1.130423 -4.595750 0
M  V30 22 C -1.900128 -2.146583 -2.638963 0
M  V30 23 C -0.806711 -2.289406 -1.586728 0
M  V30 24 C -0.716420 -3.155242 -0.440155 0
M  V30 25 C -1.840554 -4.013082 -0.273091 0
M  V30 26 N -2.897146 -3.947614 -1.199645 0
M  V30 27 C -3.980327 -4.821666 -0.975384 0
M  V30 28 C -4.998077 -4.185657 -0.060834 0
M  V30 29 C -6.130610 -3.500792 -0.478033 0
M  V30 30 C -6.951706 -2.980495 0.500342 0
M  V30 31 C -6.729817 -3.089434 1.853265 0
M  V30 32 F -7.588605 -2.544677 2.744017 0
M  V30 33 C -5.590574 -3.778105 2.292258 0
M  V30 34 F -5.332317 -3.904303 3.618795 0
M  V30 35 C -4.787849 -4.288173 1.285474 0
M  V30 36 C -2.394357 -3.039889 -1.924832 0
M  V30 37 O -3.436148 -2.968915 -2.833285 0
M  V30 38 C 2.581809 2.069852 0.108300 0
M  V30 39 C 3.250304 2.449532 1.254862 0
M  V30 40 H 4.486820 -1.374916 2.914142 0
M  V30 41 H 3.981022 -1.963220 1.301790 0
M  V30 42 H 4.369383 -0.238288 1.440138 0
M  V30 43 H 1.869919 -1.276310 1.648478 0
M  V30 44 H 2.232520 -1.372949 3.346788 0
M  V30 45 H 0.559196 1.727930 3.270418 0
M  V30 46 H 0.589783 0.077932 3.866588 0
M  V30 47 H -0.607492 1.168759 1.429993 0
M  V30 48 H 0.282949 -0.286284 1.013277 0
M  V30 49 H -0.987374 -0.359590 2.337897 0
M  V30 50 H 5.085842 3.622410 4.238964 0
M  V30 51 H 4.787028 5.065063 -0.241767 0
M  V30 52 H 3.470328 4.227629 -2.235912 0
M  V30 53 H -0.446084 1.618264 -4.398686 0
M  V30 54 H 0.886662 0.396587 -4.689187 0
M  V30 55 H -0.088087 -0.137429 -2.173914 0
M  V30 56 H 0.223370 -1.791297 -1.414797 0
M  V30 57 H 0.085781 -3.254599 0.324526 0
M  V30 58 H -1.795960 -4.696779 0.604593 0
M  V30 59 H -3.608943 -5.767732 -0.441103 0
M  V30 60 H -4.545058 -5.149003 -1.879203 0
M  V30 61 H -6.241948 -3.445678 -1.541840 0
M  V30 62 H -7.830091 -2.458291 0.080008 0
M  V30 63 H -3.922619 -4.809945 1.686951 0
M  V30 64 H 1.961943 1.187377 0.251625 0
M  V30 END ATOM
M  V30 BEGIN BOND
M  V30 1 1 1 2
M  V30 2 1 2 3
M  V30 3 1 3 4
M  V30 4 1 4 5
M  V30 5 1 3 6
M  V30 6 2 6 7
M  V30 7 1 7 8
M  V30 8 3 8 9
M  V30 9 1 7 10
M  V30 10 2 10 11
M  V30 11 1 11 12
M  V30 12 2 12 13
M  V30 13 1 13 14
M  V30 14 2 14 15
M  V30 15 1 15 16
M  V30 16 3 16 17
M  V30 17 1 17 18
M  V30 18 1 18 19
M  V30 19 1 19 20
M  V30 20 2 20 21
M  V30 21 1 20 22
M  V30 22 2 22 23
M  V30 23 1 23 24
M  V30 24 2 24 25
M  V30 25 1 25 26
M  V30 26 1 26 27
M  V30 27 1 27 28
M  V30 28 2 28 29
M  V30 29 1 29 30
M  V30 30 2 30 31
M  V30 31 1 31 32
M  V30 32 1 31 33
M  V30 33 1 33 34
M  V30 34 2 33 35
M  V30 35 1 26 36
M  V30 36 2 36 37
M  V30 37 1 15 38
M  V30 38 2 38 39
M  V30 39 1 39 6
M  V30 40 1 39 12
M  V30 41 1 36 22
M  V30 42 1 35 28
M  V30 43 1 1 40
M  V30 44 1 1 41
M  V30 45 1 1 42
M  V30 46 1 2 43
M  V30 47 1 2 44
M  V30 48 1 4 45
M  V30 49 1 4 46
M  V30 50 1 5 47
M  V30 51 1 5 48
M  V30 52 1 5 49
M  V30 53 1 10 50
M  V30 54 1 13 51
M  V30 55 1 14 52
M  V30 56 1 18 53
M  V30 57 1 18 54
M  V30 58 1 19 55
M  V30 59 1 23 56
M  V30 60 1 24 57
M  V30 61 1 25 58
M  V30 62 1 27 59
M  V30 63 1 27 60
M  V30 64 1 29 61
M  V30 65 1 30 62
M  V30 66 1 35 63
M  V30 67 1 38 64
M  V30 END BOND
M  V30 END CTAB
M  END
>  <Dataset>  (445) 
ChEMBL_Kinases

>  <Ligand_Instance>  (445) 
nan

>  <PDB_ID>  (445) 
nan

>  <Standardized_SMILES>  (445) 
CCN(CC)c1c(C#N)cnc2ccc(C#CCNC(=O)c3cccn(Cc4ccc(F)c(F)c4)c3=O)cc12

>  <Name>  (445) 
nan

>  <Pocket>  (445) 
nan

>  <ATP_Site>  (445) 
nan

>  <Peripheral>  (445) 
nan

>  <Num_H_Atoms_ProtBoundConf>  (445) 
nan

>  <Num_Resolved_Atoms>  (445) 
nan

>  <Num_Not_Resolved_Atoms>  (445) 
nan

$$$$
CHEMBL3640532
     RDKit          3D

  0  0  0  0  0  0  0  0  0  0999 V3000
M  V30 BEGIN CTAB
M  V30 COUNTS 74 78 0 0 0
M  V30 BEGIN ATOM
M  V30 1 C 1.419821 1.184425 0.592273 0
M  V30 2 N 1.583359 0.480999 1.837646 0
M  V30 3 C 1.509372 -0.924188 1.744874 0
M  V30 4 C 2.560674 -1.701166 1.063957 0
M  V30 5 C 2.776938 -1.354171 -0.400203 0
M  V30 6 C 3.495860 -2.571806 -1.000735 0
M  V30 7 C 4.797323 -2.858257 -0.317266 0
M  V30 8 C 5.034773 -1.986043 0.888362 0
M  V30 9 C 3.831777 -1.938800 1.807763 0
M  V30 10 C 1.770406 1.399340 2.941815 0
M  V30 11 C 2.915251 1.964616 3.454696 0
M  V30 12 C 4.112956 1.601564 2.759087 0
M  V30 13 N 5.093334 1.322130 2.179349 0
M  V30 14 C 2.859631 2.805564 4.529958 0
M  V30 15 N 1.685348 3.121542 5.137559 0
M  V30 16 C 0.524856 2.584216 4.661827 0
M  V30 17 C -0.645653 2.927834 5.303034 0
M  V30 18 C -1.839534 2.406791 4.853242 0
M  V30 19 C -1.849297 1.561997 3.785275 0
M  V30 20 C -3.070175 0.989336 3.273762 0
M  V30 21 C -4.086251 0.505873 2.826043 0
M  V30 22 C -5.311553 -0.097357 2.263636 0
M  V30 23 N -5.074922 -0.528263 0.886525 0
M  V30 24 C -4.028456 -1.489402 0.881602 0
M  V30 25 O -3.633089 -1.667766 2.080832 0
M  V30 26 C -3.463701 -2.184086 -0.261595 0
M  V30 27 C -2.439279 -3.078195 0.059358 0
M  V30 28 C -1.811348 -3.807021 -0.919311 0
M  V30 29 C -2.140289 -3.710424 -2.262749 0
M  V30 30 N -3.131336 -2.836527 -2.515820 0
M  V30 31 C -3.527915 -2.680623 -3.905226 0
M  V30 32 C -2.755814 -1.614720 -4.603961 0
M  V30 33 C -1.586517 -1.986347 -5.232384 0
M  V30 34 C -0.782795 -1.096942 -5.912406 0
M  V30 35 C -1.210354 0.215599 -5.937685 0
M  V30 36 F -0.483186 1.180311 -6.587292 0
M  V30 37 C -2.374926 0.667009 -5.329525 0
M  V30 38 F -2.771910 1.960147 -5.369228 0
M  V30 39 C -3.107851 -0.285174 -4.678723 0
M  V30 40 C -3.764485 -2.112918 -1.600309 0
M  V30 41 O -4.677269 -1.314440 -1.873832 0
M  V30 42 C -0.651856 1.248189 3.177229 0
M  V30 43 C 0.565536 1.723083 3.564333 0
M  V30 44 H 0.746950 0.652993 -0.135783 0
M  V30 45 H 0.867971 2.158050 0.753610 0
M  V30 46 H 2.347289 1.496135 0.099374 0
M  V30 47 H 0.508837 -1.281925 1.342926 0
M  V30 48 H 1.474764 -1.318987 2.806291 0
M  V30 49 H 2.106102 -2.750318 0.976299 0
M  V30 50 H 3.440565 -0.515899 -0.579717 0
M  V30 51 H 1.796739 -1.331442 -0.905308 0
M  V30 52 H 2.843648 -3.459819 -0.894540 0
M  V30 53 H 3.611345 -2.383972 -2.088441 0
M  V30 54 H 4.893206 -3.929637 -0.043121 0
M  V30 55 H 5.611579 -2.638893 -1.039559 0
M  V30 56 H 5.875898 -2.433450 1.456027 0
M  V30 57 H 5.366573 -0.993312 0.547187 0
M  V30 58 H 3.809717 -2.946553 2.327904 0
M  V30 59 H 4.056039 -1.241319 2.623776 0
M  V30 60 H 3.796272 3.206386 4.873076 0
M  V30 61 H -0.642557 3.598393 6.151197 0
M  V30 62 H -2.784878 2.653977 5.331479 0
M  V30 63 H -5.673136 -0.952360 2.857573 0
M  V30 64 H -6.081609 0.687082 2.281612 0
M  V30 65 H -5.508164 -0.271944 -0.025319 0
M  V30 66 H -2.101188 -3.230696 1.091775 0
M  V30 67 H -1.022358 -4.491407 -0.638793 0
M  V30 68 H -1.613206 -4.305273 -2.966451 0
M  V30 69 H -4.596725 -2.398512 -3.919356 0
M  V30 70 H -3.372623 -3.632884 -4.459542 0
M  V30 71 H -1.266921 -3.030684 -5.199428 0
M  V30 72 H 0.141647 -1.338804 -6.420124 0
M  V30 73 H -4.020635 0.009535 -4.190344 0
M  V30 74 H -0.692384 0.574404 2.331398 0
M  V30 END ATOM
M  V30 BEGIN BOND
M  V30 1 1 1 2
M  V30 2 1 2 3
M  V30 3 1 3 4
M  V30 4 1 4 5
M  V30 5 1 5 6
M  V30 6 1 6 7
M  V30 7 1 7 8
M  V30 8 1 8 9
M  V30 9 1 2 10
M  V30 10 2 10 11
M  V30 11 1 11 12
M  V30 12 3 12 13
M  V30 13 1 11 14
M  V30 14 2 14 15
M  V30 15 1 15 16
M  V30 16 2 16 17
M  V30 17 1 17 18
M  V30 18 2 18 19
M  V30 19 1 19 20
M  V30 20 3 20 21
M  V30 21 1 21 22
M  V30 22 1 22 23
M  V30 23 1 23 24
M  V30 24 2 24 25
M  V30 25 1 24 26
M  V30 26 2 26 27
M  V30 27 1 27 28
M  V30 28 2 28 29
M  V30 29 1 29 30
M  V30 30 1 30 31
M  V30 31 1 31 32
M  V30 32 2 32 33
M  V30 33 1 33 34
M  V30 34 2 34 35
M  V30 35 1 35 36
M  V30 36 1 35 37
M  V30 37 1 37 38
M  V30 38 2 37 39
M  V30 39 1 30 40
M  V30 40 2 40 41
M  V30 41 1 19 42
M  V30 42 2 42 43
M  V30 43 1 9 4
M  V30 44 1 43 10
M  V30 45 1 43 16
M  V30 46 1 40 26
M  V30 47 1 39 32
M  V30 48 1 1 44
M  V30 49 1 1 45
M  V30 50 1 1 46
M  V30 51 1 3 47
M  V30 52 1 3 48
M  V30 53 1 4 49
M  V30 54 1 5 50
M  V30 55 1 5 51
M  V30 56 1 6 52
M  V30 57 1 6 53
M  V30 58 1 7 54
M  V30 59 1 7 55
M  V30 60 1 8 56
M  V30 61 1 8 57
M  V30 62 1 9 58
M  V30 63 1 9 59
M  V30 64 1 14 60
M  V30 65 1 17 61
M  V30 66 1 18 62
M  V30 67 1 22 63
M  V30 68 1 22 64
M  V30 69 1 23 65
M  V30 70 1 27 66
M  V30 71 1 28 67
M  V30 72 1 29 68
M  V30 73 1 31 69
M  V30 74 1 31 70
M  V30 75 1 33 71
M  V30 76 1 34 72
M  V30 77 1 39 73
M  V30 78 1 42 74
M  V30 END BOND
M  V30 END CTAB
M  END
>  <Dataset>  (446) 
ChEMBL_Kinases

>  <Ligand_Instance>  (446) 
nan

>  <PDB_ID>  (446) 
nan

>  <Standardized_SMILES>  (446) 
CN(CC1CCCCC1)c1c(C#N)cnc2ccc(C#CCNC(=O)c3cccn(Cc4ccc(F)c(F)c4)c3=O)cc12

>  <Name>  (446) 
nan

>  <Pocket>  (446) 
nan

>  <ATP_Site>  (446) 
nan

>  <Peripheral>  (446) 
nan

>  <Num_H_Atoms_ProtBoundConf>  (446) 
nan

>  <Num_Resolved_Atoms>  (446) 
nan

>  <Num_Not_Resolved_Atoms>  (446) 
nan

$$$$
CHEMBL3640531
     RDKit          3D

  0  0  0  0  0  0  0  0  0  0999 V3000
M  V30 BEGIN CTAB
M  V30 COUNTS 68 72 0 0 0
M  V30 BEGIN ATOM
M  V30 1 C -0.546918 2.358922 -1.464084 0
M  V30 2 N -0.390495 1.696972 -2.764138 0
M  V30 3 C -1.651099 1.208815 -3.312733 0
M  V30 4 C -1.493130 0.545906 -4.619932 0
M  V30 5 C -1.249215 -0.829798 -4.671766 0
M  V30 6 C -1.104163 -1.434765 -5.902759 0
M  V30 7 C -1.188813 -0.742263 -7.098309 0
M  V30 8 C -1.430956 0.627648 -7.071509 0
M  V30 9 C -1.572423 1.210140 -5.827319 0
M  V30 10 C 0.858710 1.545309 -3.423143 0
M  V30 11 C 1.366293 2.486243 -4.316107 0
M  V30 12 C 0.586397 3.667574 -4.583147 0
M  V30 13 N -0.044886 4.617087 -4.781554 0
M  V30 14 C 2.598787 2.266571 -4.922116 0
M  V30 15 N 3.323245 1.161218 -4.669439 0
M  V30 16 C 2.872978 0.222947 -3.812699 0
M  V30 17 C 3.620483 -0.927353 -3.545568 0
M  V30 18 C 3.129973 -1.883520 -2.653170 0
M  V30 19 C 1.925578 -1.709065 -2.035943 0
M  V30 20 C 1.350711 -2.643534 -1.106825 0
M  V30 21 C 0.877226 -3.420499 -0.309136 0
M  V30 22 C 0.310926 -4.363747 0.687895 0
M  V30 23 N -0.183558 -3.638501 1.841521 0
M  V30 24 C -0.779683 -4.285168 2.952856 0
M  V30 25 O -0.793813 -5.538342 2.750381 0
M  V30 26 C -1.305893 -3.665162 4.154116 0
M  V30 27 C -1.838156 -4.557200 5.085065 0
M  V30 28 C -2.375751 -4.123578 6.273375 0
M  V30 29 C -2.417322 -2.786910 6.607741 0
M  V30 30 N -1.898072 -1.950084 5.693634 0
M  V30 31 C -1.919980 -0.535432 6.004276 0
M  V30 32 C -0.693816 -0.108826 6.722160 0
M  V30 33 C 0.473749 0.353554 6.149611 0
M  V30 34 C 1.560574 0.725842 6.907080 0
M  V30 35 C 1.545604 0.658558 8.278022 0
M  V30 36 F 2.665385 1.049329 8.908112 0
M  V30 37 C 0.375719 0.195114 8.855990 0
M  V30 38 F 0.394869 0.140327 10.225271 0
M  V30 39 C -0.712572 -0.178214 8.108753 0
M  V30 40 C -1.368352 -2.343615 4.528812 0
M  V30 41 O -0.895128 -1.544000 3.702624 0
M  V30 42 C 1.231422 -0.552807 -2.338895 0
M  V30 43 C 1.652609 0.434136 -3.208648 0
M  V30 44 H 0.389652 2.794154 -1.112732 0
M  V30 45 H -1.393829 3.046870 -1.557105 0
M  V30 46 H -0.886158 1.584342 -0.718200 0
M  V30 47 H -2.310275 2.119062 -3.388690 0
M  V30 48 H -2.111351 0.570611 -2.539763 0
M  V30 49 H -1.176302 -1.406660 -3.751951 0
M  V30 50 H -0.913160 -2.504130 -5.982861 0
M  V30 51 H -1.080367 -1.183398 -8.077598 0
M  V30 52 H -1.512577 1.245915 -7.946593 0
M  V30 53 H -1.762981 2.271523 -5.724261 0
M  V30 54 H 2.981079 3.017828 -5.621172 0
M  V30 55 H 4.584659 -1.083864 -4.029317 0
M  V30 56 H 3.695671 -2.790825 -2.428305 0
M  V30 57 H -0.558527 -4.923414 0.261589 0
M  V30 58 H 1.138391 -5.030234 0.947228 0
M  V30 59 H -0.098079 -2.600322 1.855907 0
M  V30 60 H -1.848509 -5.640844 4.904897 0
M  V30 61 H -2.778254 -4.846979 6.967904 0
M  V30 62 H -2.851708 -2.501871 7.555753 0
M  V30 63 H -2.805937 -0.288682 6.627959 0
M  V30 64 H -1.979379 0.010354 5.041099 0
M  V30 65 H 0.479254 0.404537 5.070084 0
M  V30 66 H 2.415009 1.071015 6.334707 0
M  V30 67 H -1.564281 -0.522826 8.696278 0
M  V30 68 H 0.263693 -0.402853 -1.848446 0
M  V30 END ATOM
M  V30 BEGIN BOND
M  V30 1 1 1 2
M  V30 2 1 2 3
M  V30 3 1 3 4
M  V30 4 2 4 5
M  V30 5 1 5 6
M  V30 6 2 6 7
M  V30 7 1 7 8
M  V30 8 2 8 9
M  V30 9 1 2 10
M  V30 10 2 10 11
M  V30 11 1 11 12
M  V30 12 3 12 13
M  V30 13 1 11 14
M  V30 14 2 14 15
M  V30 15 1 15 16
M  V30 16 2 16 17
M  V30 17 1 17 18
M  V30 18 2 18 19
M  V30 19 1 19 20
M  V30 20 3 20 21
M  V30 21 1 21 22
M  V30 22 1 22 23
M  V30 23 1 23 24
M  V30 24 2 24 25
M  V30 25 1 24 26
M  V30 26 2 26 27
M  V30 27 1 27 28
M  V30 28 2 28 29
M  V30 29 1 29 30
M  V30 30 1 30 31
M  V30 31 1 31 32
M  V30 32 2 32 33
M  V30 33 1 33 34
M  V30 34 2 34 35
M  V30 35 1 35 36
M  V30 36 1 35 37
M  V30 37 1 37 38
M  V30 38 2 37 39
M  V30 39 1 30 40
M  V30 40 2 40 41
M  V30 41 1 19 42
M  V30 42 2 42 43
M  V30 43 1 9 4
M  V30 44 1 43 10
M  V30 45 1 43 16
M  V30 46 1 40 26
M  V30 47 1 39 32
M  V30 48 1 1 44
M  V30 49 1 1 45
M  V30 50 1 1 46
M  V30 51 1 3 47
M  V30 52 1 3 48
M  V30 53 1 5 49
M  V30 54 1 6 50
M  V30 55 1 7 51
M  V30 56 1 8 52
M  V30 57 1 9 53
M  V30 58 1 14 54
M  V30 59 1 17 55
M  V30 60 1 18 56
M  V30 61 1 22 57
M  V30 62 1 22 58
M  V30 63 1 23 59
M  V30 64 1 27 60
M  V30 65 1 28 61
M  V30 66 1 29 62
M  V30 67 1 31 63
M  V30 68 1 31 64
M  V30 69 1 33 65
M  V30 70 1 34 66
M  V30 71 1 39 67
M  V30 72 1 42 68
M  V30 END BOND
M  V30 END CTAB
M  END
>  <Dataset>  (447) 
ChEMBL_Kinases

>  <Ligand_Instance>  (447) 
nan

>  <PDB_ID>  (447) 
nan

>  <Standardized_SMILES>  (447) 
CN(Cc1ccccc1)c1c(C#N)cnc2ccc(C#CCNC(=O)c3cccn(Cc4ccc(F)c(F)c4)c3=O)cc12

>  <Name>  (447) 
nan

>  <Pocket>  (447) 
nan

>  <ATP_Site>  (447) 
nan

>  <Peripheral>  (447) 
nan

>  <Num_H_Atoms_ProtBoundConf>  (447) 
nan

>  <Num_Resolved_Atoms>  (447) 
nan

>  <Num_Not_Resolved_Atoms>  (447) 
nan

$$$$
CHEMBL3640530
     RDKit          3D

  0  0  0  0  0  0  0  0  0  0999 V3000
M  V30 BEGIN CTAB
M  V30 COUNTS 71 75 0 0 0
M  V30 BEGIN ATOM
M  V30 1 N 6.493013 -0.550553 3.490416 0
M  V30 2 C 5.764913 0.332991 3.314714 0
M  V30 3 C 4.844413 1.418541 3.080842 0
M  V30 4 C 5.089342 2.552111 3.848073 0
M  V30 5 N 4.281554 3.615556 3.697153 0
M  V30 6 C 3.262491 3.611211 2.838379 0
M  V30 7 C 2.404736 4.669988 2.621840 0
M  V30 8 C 1.363518 4.631515 1.705824 0
M  V30 9 C 1.176313 3.463235 0.967515 0
M  V30 10 C 0.092852 3.460688 0.028516 0
M  V30 11 C -0.800665 3.462676 -0.772830 0
M  V30 12 C -1.880125 3.484320 -1.763956 0
M  V30 13 N -2.543935 2.200369 -1.870662 0
M  V30 14 C -3.165059 1.685586 -0.701253 0
M  V30 15 O -2.991911 2.519653 0.253050 0
M  V30 16 C -3.885427 0.432546 -0.560307 0
M  V30 17 C -4.381437 0.207407 0.730377 0
M  V30 18 C -5.085507 -0.939557 1.020179 0
M  V30 19 C -5.334450 -1.908003 0.073310 0
M  V30 20 N -4.847677 -1.662908 -1.148337 0
M  V30 21 C -5.070296 -2.633108 -2.189314 0
M  V30 22 C -3.947586 -3.622386 -2.197621 0
M  V30 23 C -2.786542 -3.551958 -2.930853 0
M  V30 24 C -1.828663 -4.528342 -2.849138 0
M  V30 25 C -1.971205 -5.627891 -2.034927 0
M  V30 26 F -0.959487 -6.520543 -2.040631 0
M  V30 27 C -3.134479 -5.711936 -1.291317 0
M  V30 28 F -3.250137 -6.807236 -0.495806 0
M  V30 29 C -4.082001 -4.739406 -1.376692 0
M  V30 30 C -4.159582 -0.560891 -1.467022 0
M  V30 31 O -3.712334 -0.341415 -2.601028 0
M  V30 32 C 2.011424 2.393144 1.159866 0
M  V30 33 C 3.021793 2.489097 2.079761 0
M  V30 34 C 3.787055 1.345601 2.157901 0
M  V30 35 N 3.737413 0.099609 1.499243 0
M  V30 36 C 3.235796 -1.196860 1.627518 0
M  V30 37 C 1.839277 -1.557253 1.782464 0
M  V30 38 C 0.815692 -1.246799 0.778885 0
M  V30 39 C 1.129251 -1.825033 -0.594649 0
M  V30 40 C 1.637317 -3.238616 -0.472426 0
M  V30 41 C 1.345317 -3.856319 0.850459 0
M  V30 42 C 1.706255 -3.066357 2.061947 0
M  V30 43 H 5.899362 2.610554 4.556936 0
M  V30 44 H 2.546641 5.574933 3.190698 0
M  V30 45 H 0.741352 5.523348 1.610024 0
M  V30 46 H -1.456846 3.778143 -2.749136 0
M  V30 47 H -2.647344 4.242805 -1.450446 0
M  V30 48 H -2.592823 1.641251 -2.737836 0
M  V30 49 H -4.232837 0.923218 1.552350 0
M  V30 50 H -5.455942 -1.086034 2.024457 0
M  V30 51 H -5.884102 -2.828408 0.253265 0
M  V30 52 H -5.141086 -2.130733 -3.191423 0
M  V30 53 H -6.011761 -3.177397 -1.953544 0
M  V30 54 H -2.685008 -2.692319 -3.562522 0
M  V30 55 H -0.962028 -4.357475 -3.474385 0
M  V30 56 H -4.960285 -4.870479 -0.770435 0
M  V30 57 H 1.853349 1.511475 0.564913 0
M  V30 58 H 4.306966 0.423491 0.655792 0
M  V30 59 H 3.849294 -1.686452 2.464433 0
M  V30 60 H 3.638149 -1.796418 0.741035 0
M  V30 61 H 1.476120 -1.101217 2.763465 0
M  V30 62 H 0.424013 -0.255341 0.668882 0
M  V30 63 H -0.109644 -1.854479 1.077926 0
M  V30 64 H 0.239185 -1.826471 -1.243837 0
M  V30 65 H 1.913602 -1.231578 -1.104922 0
M  V30 66 H 1.065803 -3.852764 -1.231514 0
M  V30 67 H 2.686139 -3.332602 -0.796276 0
M  V30 68 H 1.883225 -4.853080 0.845254 0
M  V30 69 H 0.269548 -4.137381 0.955025 0
M  V30 70 H 1.039081 -3.266471 2.928964 0
M  V30 71 H 2.723924 -3.404021 2.372994 0
M  V30 END ATOM
M  V30 BEGIN BOND
M  V30 1 3 1 2
M  V30 2 1 2 3
M  V30 3 2 3 4
M  V30 4 1 4 5
M  V30 5 2 5 6
M  V30 6 1 6 7
M  V30 7 2 7 8
M  V30 8 1 8 9
M  V30 9 1 9 10
M  V30 10 3 10 11
M  V30 11 1 11 12
M  V30 12 1 12 13
M  V30 13 1 13 14
M  V30 14 2 14 15
M  V30 15 1 14 16
M  V30 16 2 16 17
M  V30 17 1 17 18
M  V30 18 2 18 19
M  V30 19 1 19 20
M  V30 20 1 20 21
M  V30 21 1 21 22
M  V30 22 2 22 23
M  V30 23 1 23 24
M  V30 24 2 24 25
M  V30 25 1 25 26
M  V30 26 1 25 27
M  V30 27 1 27 28
M  V30 28 2 27 29
M  V30 29 1 20 30
M  V30 30 2 30 31
M  V30 31 2 9 32
M  V30 32 1 32 33
M  V30 33 2 33 34
M  V30 34 1 34 35
M  V30 35 1 35 36
M  V30 36 1 36 37
M  V30 37 1 37 38
M  V30 38 1 38 39
M  V30 39 1 39 40
M  V30 40 1 40 41
M  V30 41 1 41 42
M  V30 42 1 34 3
M  V30 43 1 42 37
M  V30 44 1 33 6
M  V30 45 1 30 16
M  V30 46 1 29 22
M  V30 47 1 4 43
M  V30 48 1 7 44
M  V30 49 1 8 45
M  V30 50 1 12 46
M  V30 51 1 12 47
M  V30 52 1 13 48
M  V30 53 1 17 49
M  V30 54 1 18 50
M  V30 55 1 19 51
M  V30 56 1 21 52
M  V30 57 1 21 53
M  V30 58 1 23 54
M  V30 59 1 24 55
M  V30 60 1 29 56
M  V30 61 1 32 57
M  V30 62 1 35 58
M  V30 63 1 36 59
M  V30 64 1 36 60
M  V30 65 1 37 61
M  V30 66 1 38 62
M  V30 67 1 38 63
M  V30 68 1 39 64
M  V30 69 1 39 65
M  V30 70 1 40 66
M  V30 71 1 40 67
M  V30 72 1 41 68
M  V30 73 1 41 69
M  V30 74 1 42 70
M  V30 75 1 42 71
M  V30 END BOND
M  V30 END CTAB
M  END
>  <Dataset>  (448) 
ChEMBL_Kinases

>  <Ligand_Instance>  (448) 
nan

>  <PDB_ID>  (448) 
nan

>  <Standardized_SMILES>  (448) 
N#Cc1cnc2ccc(C#CCNC(=O)c3cccn(Cc4ccc(F)c(F)c4)c3=O)cc2c1NCC1CCCCC1

>  <Name>  (448) 
nan

>  <Pocket>  (448) 
nan

>  <ATP_Site>  (448) 
nan

>  <Peripheral>  (448) 
nan

>  <Num_H_Atoms_ProtBoundConf>  (448) 
nan

>  <Num_Resolved_Atoms>  (448) 
nan

>  <Num_Not_Resolved_Atoms>  (448) 
nan

$$$$
CHEMBL364053
     RDKit          3D

  0  0  0  0  0  0  0  0  0  0999 V3000
M  V30 BEGIN CTAB
M  V30 COUNTS 41 44 0 0 0
M  V30 BEGIN ATOM
M  V30 1 N 2.240247 3.737335 2.720229 0
M  V30 2 C 1.802316 2.897094 2.018339 0
M  V30 3 C 1.286999 1.890925 1.150972 0
M  V30 4 C 2.126726 1.323248 0.282872 0
M  V30 5 N 1.844673 0.304434 -0.672389 0
M  V30 6 C 2.978893 -0.127206 -1.394753 0
M  V30 7 C 2.914609 -1.138019 -2.349847 0
M  V30 8 C 4.119710 -1.497660 -2.975615 0
M  V30 9 C 5.296033 -0.872099 -2.648761 0
M  V30 10 C 5.359488 0.137627 -1.696452 0
M  V30 11 C 4.153980 0.464395 -1.103004 0
M  V30 12 S 3.865858 1.723394 0.135802 0
M  V30 13 C -0.125803 1.526734 1.210639 0
M  V30 14 C -1.002986 2.392632 1.883342 0
M  V30 15 C -2.351969 2.183798 2.007016 0
M  V30 16 N -2.916944 1.086410 1.463132 0
M  V30 17 C -2.098090 0.221577 0.801845 0
M  V30 18 N -2.279371 -1.011540 0.086609 0
M  V30 19 C -2.807027 -2.274460 0.634118 0
M  V30 20 C -2.107519 -2.569555 1.892999 0
M  V30 21 C -2.825174 -2.022973 2.954882 0
M  V30 22 C -2.369778 -2.143972 4.274306 0
M  V30 23 C -1.177106 -2.830663 4.488818 0
M  V30 24 C -0.525574 -3.342176 3.392229 0
M  V30 25 C -0.937996 -3.243819 2.081910 0
M  V30 26 N -0.818343 0.517707 0.741600 0
M  V30 27 H 0.849327 -0.035821 -0.757870 0
M  V30 28 H 2.046285 -1.711676 -2.688136 0
M  V30 29 H 4.163308 -2.282947 -3.735986 0
M  V30 30 H 6.245429 -1.152166 -3.129669 0
M  V30 31 H 6.253572 0.646099 -1.418880 0
M  V30 32 H -0.689472 3.317933 2.375747 0
M  V30 33 H -3.024740 2.843576 2.522326 0
M  V30 34 H -2.025753 -1.045668 -0.952501 0
M  V30 35 H -2.545788 -3.113961 -0.074100 0
M  V30 36 H -3.889736 -2.239675 0.672217 0
M  V30 37 H -3.751284 -1.474092 2.940456 0
M  V30 38 H -2.856609 -1.748193 5.148047 0
M  V30 39 H -0.803379 -2.936075 5.497139 0
M  V30 40 H 0.403509 -3.871282 3.567989 0
M  V30 41 H -0.467686 -3.625267 1.207468 0
M  V30 END ATOM
M  V30 BEGIN BOND
M  V30 1 3 1 2
M  V30 2 1 2 3
M  V30 3 2 3 4
M  V30 4 1 4 5
M  V30 5 1 5 6
M  V30 6 2 6 7
M  V30 7 1 7 8
M  V30 8 2 8 9
M  V30 9 1 9 10
M  V30 10 2 10 11
M  V30 11 1 11 12
M  V30 12 1 3 13
M  V30 13 2 13 14
M  V30 14 1 14 15
M  V30 15 2 15 16
M  V30 16 1 16 17
M  V30 17 1 17 18
M  V30 18 1 18 19
M  V30 19 1 19 20
M  V30 20 2 20 21
M  V30 21 1 21 22
M  V30 22 2 22 23
M  V30 23 1 23 24
M  V30 24 2 24 25
M  V30 25 2 17 26
M  V30 26 1 12 4
M  V30 27 1 26 13
M  V30 28 1 11 6
M  V30 29 1 25 20
M  V30 30 1 5 27
M  V30 31 1 7 28
M  V30 32 1 8 29
M  V30 33 1 9 30
M  V30 34 1 10 31
M  V30 35 1 14 32
M  V30 36 1 15 33
M  V30 37 1 18 34
M  V30 38 1 19 35
M  V30 39 1 19 36
M  V30 40 1 21 37
M  V30 41 1 22 38
M  V30 42 1 23 39
M  V30 43 1 24 40
M  V30 44 1 25 41
M  V30 END BOND
M  V30 END CTAB
M  END
>  <Dataset>  (449) 
ChEMBL_Kinases

>  <Ligand_Instance>  (449) 
nan

>  <PDB_ID>  (449) 
nan

>  <Standardized_SMILES>  (449) 
N#C/C(=C1/Nc2ccccc2S1)c1ccnc(NCc2ccccc2)n1

>  <Name>  (449) 
nan

>  <Pocket>  (449) 
nan

>  <ATP_Site>  (449) 
nan

>  <Peripheral>  (449) 
nan

>  <Num_H_Atoms_ProtBoundConf>  (449) 
nan

>  <Num_Resolved_Atoms>  (449) 
nan

>  <Num_Not_Resolved_Atoms>  (449) 
nan

$$$$
CHEMBL3640529
     RDKit          3D

  0  0  0  0  0  0  0  0  0  0999 V3000
M  V30 BEGIN CTAB
M  V30 COUNTS 68 72 0 0 0
M  V30 BEGIN ATOM
M  V30 1 N 2.653249 -3.646409 4.118742 0
M  V30 2 C 2.894606 -2.880382 3.268652 0
M  V30 3 C 3.199937 -1.934769 2.203272 0
M  V30 4 C 4.393727 -1.946024 1.520071 0
M  V30 5 N 4.641912 -1.033978 0.533784 0
M  V30 6 C 3.738181 -0.107164 0.194928 0
M  V30 7 C 4.064135 0.761831 -0.799122 0
M  V30 8 C 3.124690 1.717539 -1.161602 0
M  V30 9 C 1.904925 1.708790 -0.462665 0
M  V30 10 C 0.946664 2.617053 -1.022805 0
M  V30 11 C 0.144236 3.372630 -1.513416 0
M  V30 12 C -0.884483 4.320296 -2.165169 0
M  V30 13 N -1.095715 3.468725 -3.435816 0
M  V30 14 C -1.552062 2.219802 -3.825037 0
M  V30 15 O -1.823570 2.222113 -2.514150 0
M  V30 16 C -2.183528 1.027980 -3.324080 0
M  V30 17 C -1.758854 0.566585 -4.679397 0
M  V30 18 C -1.946389 -0.719869 -5.307500 0
M  V30 19 C -2.627531 -1.663918 -4.523142 0
M  V30 20 N -3.041415 -1.300511 -3.275261 0
M  V30 21 C -3.710549 -2.099908 -2.287975 0
M  V30 22 C -2.804962 -3.010147 -1.586911 0
M  V30 23 C -2.914034 -4.348421 -2.052570 0
M  V30 24 C -2.151410 -5.416513 -1.563254 0
M  V30 25 C -1.210614 -5.198754 -0.553224 0
M  V30 26 F -0.510034 -6.254324 -0.126372 0
M  V30 27 C -1.116325 -3.904611 -0.114841 0
M  V30 28 F -0.187816 -3.699752 0.838693 0
M  V30 29 C -1.863382 -2.873144 -0.597421 0
M  V30 30 C -2.749635 -0.077345 -2.936174 0
M  V30 31 O -3.067406 0.439237 -1.778390 0
M  V30 32 C 1.554747 0.858158 0.535687 0
M  V30 33 C 2.557609 -0.077268 0.844205 0
M  V30 34 C 2.245205 -0.986379 1.875585 0
M  V30 35 N 0.997357 -0.933472 2.541115 0
M  V30 36 C -0.348999 -1.210990 2.820794 0
M  V30 37 C -0.933920 -0.358398 3.930138 0
M  V30 38 C -0.142826 -0.421409 5.192472 0
M  V30 39 C 0.779758 0.646364 5.303268 0
M  V30 40 C 1.548748 0.574993 6.435188 0
M  V30 41 C 1.551610 -0.345134 7.438248 0
M  V30 42 C 0.603756 -1.341263 7.206306 0
M  V30 43 C -0.237886 -1.417962 6.138867 0
M  V30 44 H 5.117326 -2.701875 1.791319 0
M  V30 45 H 5.037780 0.723191 -1.318894 0
M  V30 46 H 3.388089 2.385219 -1.949815 0
M  V30 47 H -0.354554 5.196656 -2.445447 0
M  V30 48 H -1.781061 4.282170 -1.621080 0
M  V30 49 H -1.018998 3.418959 -4.543449 0
M  V30 50 H -1.221206 0.897345 -5.632139 0
M  V30 51 H -1.774618 -1.319825 -6.204141 0
M  V30 52 H -2.935498 -2.686789 -4.666091 0
M  V30 53 H -4.243365 -1.500251 -1.505413 0
M  V30 54 H -4.472278 -2.705553 -2.860231 0
M  V30 55 H -3.603566 -4.669425 -2.833632 0
M  V30 56 H -2.270869 -6.415600 -1.955426 0
M  V30 57 H -1.791272 -1.853090 -0.252756 0
M  V30 58 H 0.608978 0.894048 1.042290 0
M  V30 59 H 1.417552 -0.252109 3.241211 0
M  V30 60 H -0.924750 -0.977285 1.857246 0
M  V30 61 H -0.589948 -2.309130 3.008567 0
M  V30 62 H -1.992454 -0.736490 4.081136 0
M  V30 63 H -1.024260 0.678175 3.561909 0
M  V30 64 H 0.910687 1.466065 4.622836 0
M  V30 65 H 2.272824 1.391979 6.551296 0
M  V30 66 H 2.195910 -0.379971 8.347576 0
M  V30 67 H 0.519767 -2.146229 7.957783 0
M  V30 68 H -0.969142 -2.174921 5.926393 0
M  V30 END ATOM
M  V30 BEGIN BOND
M  V30 1 3 1 2
M  V30 2 1 2 3
M  V30 3 2 3 4
M  V30 4 1 4 5
M  V30 5 2 5 6
M  V30 6 1 6 7
M  V30 7 2 7 8
M  V30 8 1 8 9
M  V30 9 1 9 10
M  V30 10 3 10 11
M  V30 11 1 11 12
M  V30 12 1 12 13
M  V30 13 1 13 14
M  V30 14 2 14 15
M  V30 15 1 14 16
M  V30 16 2 16 17
M  V30 17 1 17 18
M  V30 18 2 18 19
M  V30 19 1 19 20
M  V30 20 1 20 21
M  V30 21 1 21 22
M  V30 22 2 22 23
M  V30 23 1 23 24
M  V30 24 2 24 25
M  V30 25 1 25 26
M  V30 26 1 25 27
M  V30 27 1 27 28
M  V30 28 2 27 29
M  V30 29 1 20 30
M  V30 30 2 30 31
M  V30 31 2 9 32
M  V30 32 1 32 33
M  V30 33 2 33 34
M  V30 34 1 34 35
M  V30 35 1 35 36
M  V30 36 1 36 37
M  V30 37 1 37 38
M  V30 38 2 38 39
M  V30 39 1 39 40
M  V30 40 2 40 41
M  V30 41 1 41 42
M  V30 42 2 42 43
M  V30 43 1 34 3
M  V30 44 1 43 38
M  V30 45 1 33 6
M  V30 46 1 30 16
M  V30 47 1 29 22
M  V30 48 1 4 44
M  V30 49 1 7 45
M  V30 50 1 8 46
M  V30 51 1 12 47
M  V30 52 1 12 48
M  V30 53 1 13 49
M  V30 54 1 17 50
M  V30 55 1 18 51
M  V30 56 1 19 52
M  V30 57 1 21 53
M  V30 58 1 21 54
M  V30 59 1 23 55
M  V30 60 1 24 56
M  V30 61 1 29 57
M  V30 62 1 32 58
M  V30 63 1 35 59
M  V30 64 1 36 60
M  V30 65 1 36 61
M  V30 66 1 37 62
M  V30 67 1 37 63
M  V30 68 1 39 64
M  V30 69 1 40 65
M  V30 70 1 41 66
M  V30 71 1 42 67
M  V30 72 1 43 68
M  V30 END BOND
M  V30 END CTAB
M  END
>  <Dataset>  (450) 
ChEMBL_Kinases

>  <Ligand_Instance>  (450) 
nan

>  <PDB_ID>  (450) 
nan

>  <Standardized_SMILES>  (450) 
N#Cc1cnc2ccc(C#CCNC(=O)c3cccn(Cc4ccc(F)c(F)c4)c3=O)cc2c1NCCc1ccccc1

>  <Name>  (450) 
nan

>  <Pocket>  (450) 
nan

>  <ATP_Site>  (450) 
nan

>  <Peripheral>  (450) 
nan

>  <Num_H_Atoms_ProtBoundConf>  (450) 
nan

>  <Num_Resolved_Atoms>  (450) 
nan

>  <Num_Not_Resolved_Atoms>  (450) 
nan

$$$$
CHEMBL3640528
     RDKit          3D

  0  0  0  0  0  0  0  0  0  0999 V3000
M  V30 BEGIN CTAB
M  V30 COUNTS 71 75 0 0 0
M  V30 BEGIN ATOM
M  V30 1 C 2.856751 -1.474623 0.937537 0
M  V30 2 N 3.394602 -0.128222 0.999898 0
M  V30 3 C 4.171665 0.263532 -0.149404 0
M  V30 4 C 5.528622 0.095714 -0.327178 0
M  V30 5 C 6.227992 -0.543056 0.749843 0
M  V30 6 N 6.796658 -1.049608 1.626050 0
M  V30 7 C 6.124294 0.529582 -1.485682 0
M  V30 8 N 5.380840 1.116388 -2.441895 0
M  V30 9 C 4.056599 1.305001 -2.321497 0
M  V30 10 C 3.322884 1.912805 -3.326481 0
M  V30 11 C 1.963372 2.097861 -3.184836 0
M  V30 12 C 1.308879 1.677936 -2.032816 0
M  V30 13 C -0.106792 1.855861 -1.852960 0
M  V30 14 C -1.304122 1.986100 -1.707939 0
M  V30 15 C -2.773392 2.126946 -1.548133 0
M  V30 16 N -3.418440 0.844403 -1.549471 0
M  V30 17 C -4.815132 0.651812 -1.418059 0
M  V30 18 O -5.387653 1.786568 -1.301244 0
M  V30 19 C -5.539692 -0.606067 -1.409996 0
M  V30 20 C -6.924832 -0.467670 -1.264582 0
M  V30 21 C -7.758915 -1.561956 -1.237001 0
M  V30 22 C -7.271001 -2.845077 -1.351126 0
M  V30 23 N -5.938170 -2.951069 -1.489725 0
M  V30 24 C -5.392134 -4.272480 -1.609706 0
M  V30 25 C -5.043286 -4.853696 -0.275905 0
M  V30 26 C -3.803115 -4.740355 0.338795 0
M  V30 27 C -3.569504 -5.301514 1.561941 0
M  V30 28 C -4.584104 -5.998799 2.208300 0
M  V30 29 F -4.374850 -6.563829 3.423378 0
M  V30 30 C -5.835255 -6.121387 1.603677 0
M  V30 31 F -6.817083 -6.806494 2.248678 0
M  V30 32 C -6.071236 -5.550397 0.360219 0
M  V30 33 C -5.098488 -1.904403 -1.520336 0
M  V30 34 O -3.860104 -2.014143 -1.650079 0
M  V30 35 C 2.090108 1.076930 -1.061160 0
M  V30 36 C 3.450241 0.870967 -1.158561 0
M  V30 37 C 3.070273 0.621736 2.201470 0
M  V30 38 C 3.590003 -0.053365 3.425198 0
M  V30 39 C 3.797192 0.856821 4.607219 0
M  V30 40 C 4.715763 1.997280 4.327889 0
M  V30 41 C 4.788767 2.342983 2.855182 0
M  V30 42 C 3.482512 2.055681 2.157877 0
M  V30 43 H 3.451432 -2.179887 1.565230 0
M  V30 44 H 1.839318 -1.440338 1.361067 0
M  V30 45 H 2.851672 -1.893742 -0.098808 0
M  V30 46 H 7.194830 0.359368 -1.544327 0
M  V30 47 H 3.834226 2.240391 -4.225459 0
M  V30 48 H 1.393682 2.568529 -3.962038 0
M  V30 49 H -3.096567 2.818880 -2.333558 0
M  V30 50 H -3.004917 2.609465 -0.561822 0
M  V30 51 H -2.816917 -0.000233 -1.653746 0
M  V30 52 H -7.401271 0.505717 -1.167112 0
M  V30 53 H -8.824122 -1.421629 -1.123226 0
M  V30 54 H -7.889977 -3.734412 -1.334781 0
M  V30 55 H -4.451309 -4.242126 -2.196043 0
M  V30 56 H -6.129935 -4.937108 -2.120924 0
M  V30 57 H -3.040858 -4.193706 -0.191216 0
M  V30 58 H -2.587841 -5.190355 2.007819 0
M  V30 59 H -7.054840 -5.662945 -0.083558 0
M  V30 60 H 1.583098 0.756025 -0.178580 0
M  V30 61 H 1.943507 0.611090 2.315232 0
M  V30 62 H 4.504470 -0.639662 3.197087 0
M  V30 63 H 2.852554 -0.828932 3.781647 0
M  V30 64 H 2.854822 1.218910 5.014674 0
M  V30 65 H 4.279976 0.222989 5.399549 0
M  V30 66 H 4.333478 2.899095 4.849012 0
M  V30 67 H 5.731679 1.837952 4.741821 0
M  V30 68 H 5.008143 3.414446 2.675785 0
M  V30 69 H 5.597610 1.773635 2.360001 0
M  V30 70 H 2.718543 2.660976 2.685773 0
M  V30 71 H 3.532071 2.473477 1.132728 0
M  V30 END ATOM
M  V30 BEGIN BOND
M  V30 1 1 1 2
M  V30 2 1 2 3
M  V30 3 2 3 4
M  V30 4 1 4 5
M  V30 5 3 5 6
M  V30 6 1 4 7
M  V30 7 2 7 8
M  V30 8 1 8 9
M  V30 9 2 9 10
M  V30 10 1 10 11
M  V30 11 2 11 12
M  V30 12 1 12 13
M  V30 13 3 13 14
M  V30 14 1 14 15
M  V30 15 1 15 16
M  V30 16 1 16 17
M  V30 17 2 17 18
M  V30 18 1 17 19
M  V30 19 2 19 20
M  V30 20 1 20 21
M  V30 21 2 21 22
M  V30 22 1 22 23
M  V30 23 1 23 24
M  V30 24 1 24 25
M  V30 25 2 25 26
M  V30 26 1 26 27
M  V30 27 2 27 28
M  V30 28 1 28 29
M  V30 29 1 28 30
M  V30 30 1 30 31
M  V30 31 2 30 32
M  V30 32 1 23 33
M  V30 33 2 33 34
M  V30 34 1 12 35
M  V30 35 2 35 36
M  V30 36 1 2 37
M  V30 37 1 37 38
M  V30 38 1 38 39
M  V30 39 1 39 40
M  V30 40 1 40 41
M  V30 41 1 41 42
M  V30 42 1 36 3
M  V30 43 1 42 37
M  V30 44 1 36 9
M  V30 45 1 33 19
M  V30 46 1 32 25
M  V30 47 1 1 43
M  V30 48 1 1 44
M  V30 49 1 1 45
M  V30 50 1 7 46
M  V30 51 1 10 47
M  V30 52 1 11 48
M  V30 53 1 15 49
M  V30 54 1 15 50
M  V30 55 1 16 51
M  V30 56 1 20 52
M  V30 57 1 21 53
M  V30 58 1 22 54
M  V30 59 1 24 55
M  V30 60 1 24 56
M  V30 61 1 26 57
M  V30 62 1 27 58
M  V30 63 1 32 59
M  V30 64 1 35 60
M  V30 65 1 37 61
M  V30 66 1 38 62
M  V30 67 1 38 63
M  V30 68 1 39 64
M  V30 69 1 39 65
M  V30 70 1 40 66
M  V30 71 1 40 67
M  V30 72 1 41 68
M  V30 73 1 41 69
M  V30 74 1 42 70
M  V30 75 1 42 71
M  V30 END BOND
M  V30 END CTAB
M  END
>  <Dataset>  (451) 
ChEMBL_Kinases

>  <Ligand_Instance>  (451) 
nan

>  <PDB_ID>  (451) 
nan

>  <Standardized_SMILES>  (451) 
CN(c1c(C#N)cnc2ccc(C#CCNC(=O)c3cccn(Cc4ccc(F)c(F)c4)c3=O)cc12)C1CCCCC1

>  <Name>  (451) 
nan

>  <Pocket>  (451) 
nan

>  <ATP_Site>  (451) 
nan

>  <Peripheral>  (451) 
nan

>  <Num_H_Atoms_ProtBoundConf>  (451) 
nan

>  <Num_Resolved_Atoms>  (451) 
nan

>  <Num_Not_Resolved_Atoms>  (451) 
nan

$$$$
CHEMBL3640527
     RDKit          3D

  0  0  0  0  0  0  0  0  0  0999 V3000
M  V30 BEGIN CTAB
M  V30 COUNTS 58 61 0 0 0
M  V30 BEGIN ATOM
M  V30 1 C 3.738887 -0.798305 0.101398 0
M  V30 2 N 4.134443 0.278052 1.007207 0
M  V30 3 C 4.705362 -0.293395 2.209598 0
M  V30 4 C 4.070349 1.703341 0.939497 0
M  V30 5 C 5.145505 2.362605 0.397288 0
M  V30 6 C 6.300430 1.660065 -0.088746 0
M  V30 7 N 7.234041 1.083758 -0.476175 0
M  V30 8 C 5.094488 3.744888 0.326451 0
M  V30 9 N 4.020656 4.458280 0.774279 0
M  V30 10 C 2.951352 3.815274 1.312675 0
M  V30 11 C 1.872617 4.553150 1.761114 0
M  V30 12 C 0.796427 3.854820 2.306497 0
M  V30 13 C 0.830959 2.460862 2.385758 0
M  V30 14 C -0.271341 1.726603 2.945732 0
M  V30 15 C -1.195825 1.095804 3.400480 0
M  V30 16 C -2.335199 0.312111 3.935129 0
M  V30 17 N -2.711482 -0.734333 3.004016 0
M  V30 18 C -3.095148 -0.168281 1.758845 0
M  V30 19 O -2.992189 1.088693 1.837695 0
M  V30 20 C -3.538413 -0.869375 0.565796 0
M  V30 21 C -3.848970 -0.034520 -0.510401 0
M  V30 22 C -4.282673 -0.558249 -1.707104 0
M  V30 23 C -4.435848 -1.905883 -1.919042 0
M  V30 24 N -4.129114 -2.681130 -0.865060 0
M  V30 25 C -4.262642 -4.116681 -1.003391 0
M  V30 26 C -3.017550 -4.769399 -1.495650 0
M  V30 27 C -1.985141 -5.267988 -0.730497 0
M  V30 28 C -0.883810 -5.850551 -1.318636 0
M  V30 29 C -0.743560 -5.971006 -2.675425 0
M  V30 30 F 0.352416 -6.549316 -3.222520 0
M  V30 31 C -1.760947 -5.480909 -3.463729 0
M  V30 32 F -1.614026 -5.604054 -4.800205 0
M  V30 33 C -2.864761 -4.897275 -2.880723 0
M  V30 34 C -3.704202 -2.198696 0.312972 0
M  V30 35 O -3.425863 -2.951039 1.278357 0
M  V30 36 C 1.911036 1.750339 1.934822 0
M  V30 37 C 2.980310 2.433719 1.393659 0
M  V30 38 H 4.675392 -1.376097 -0.105575 0
M  V30 39 H 3.033183 -1.478280 0.611567 0
M  V30 40 H 3.279100 -0.420426 -0.830984 0
M  V30 41 H 4.986675 0.452554 2.956704 0
M  V30 42 H 5.527005 -1.011517 1.957830 0
M  V30 43 H 3.907474 -0.937480 2.658926 0
M  V30 44 H 5.947292 4.285099 -0.104822 0
M  V30 45 H 1.850465 5.637224 1.697289 0
M  V30 46 H -0.067384 4.356561 2.671700 0
M  V30 47 H -2.015375 -0.116914 4.893660 0
M  V30 48 H -3.164230 1.035288 4.069445 0
M  V30 49 H -2.741266 -1.771662 3.103242 0
M  V30 50 H -3.760410 1.055050 -0.444121 0
M  V30 51 H -4.514012 0.118250 -2.518763 0
M  V30 52 H -4.771505 -2.369566 -2.834596 0
M  V30 53 H -5.072544 -4.382415 -1.714965 0
M  V30 54 H -4.490387 -4.542684 -0.004414 0
M  V30 55 H -2.105349 -5.168492 0.333496 0
M  V30 56 H -0.130668 -6.210186 -0.646633 0
M  V30 57 H -3.622661 -4.536323 -3.583299 0
M  V30 58 H 1.953242 0.662183 1.989623 0
M  V30 END ATOM
M  V30 BEGIN BOND
M  V30 1 1 1 2
M  V30 2 1 2 3
M  V30 3 1 2 4
M  V30 4 2 4 5
M  V30 5 1 5 6
M  V30 6 3 6 7
M  V30 7 1 5 8
M  V30 8 2 8 9
M  V30 9 1 9 10
M  V30 10 2 10 11
M  V30 11 1 11 12
M  V30 12 2 12 13
M  V30 13 1 13 14
M  V30 14 3 14 15
M  V30 15 1 15 16
M  V30 16 1 16 17
M  V30 17 1 17 18
M  V30 18 2 18 19
M  V30 19 1 18 20
M  V30 20 2 20 21
M  V30 21 1 21 22
M  V30 22 2 22 23
M  V30 23 1 23 24
M  V30 24 1 24 25
M  V30 25 1 25 26
M  V30 26 2 26 27
M  V30 27 1 27 28
M  V30 28 2 28 29
M  V30 29 1 29 30
M  V30 30 1 29 31
M  V30 31 1 31 32
M  V30 32 2 31 33
M  V30 33 1 24 34
M  V30 34 2 34 35
M  V30 35 1 13 36
M  V30 36 2 36 37
M  V30 37 1 37 4
M  V30 38 1 37 10
M  V30 39 1 34 20
M  V30 40 1 33 26
M  V30 41 1 1 38
M  V30 42 1 1 39
M  V30 43 1 1 40
M  V30 44 1 3 41
M  V30 45 1 3 42
M  V30 46 1 3 43
M  V30 47 1 8 44
M  V30 48 1 11 45
M  V30 49 1 12 46
M  V30 50 1 16 47
M  V30 51 1 16 48
M  V30 52 1 17 49
M  V30 53 1 21 50
M  V30 54 1 22 51
M  V30 55 1 23 52
M  V30 56 1 25 53
M  V30 57 1 25 54
M  V30 58 1 27 55
M  V30 59 1 28 56
M  V30 60 1 33 57
M  V30 61 1 36 58
M  V30 END BOND
M  V30 END CTAB
M  END
>  <Dataset>  (452) 
ChEMBL_Kinases

>  <Ligand_Instance>  (452) 
nan

>  <PDB_ID>  (452) 
nan

>  <Standardized_SMILES>  (452) 
CN(C)c1c(C#N)cnc2ccc(C#CCNC(=O)c3cccn(Cc4ccc(F)c(F)c4)c3=O)cc12

>  <Name>  (452) 
nan

>  <Pocket>  (452) 
nan

>  <ATP_Site>  (452) 
nan

>  <Peripheral>  (452) 
nan

>  <Num_H_Atoms_ProtBoundConf>  (452) 
nan

>  <Num_Resolved_Atoms>  (452) 
nan

>  <Num_Not_Resolved_Atoms>  (452) 
nan

$$$$
CHEMBL3640526
     RDKit          3D

  0  0  0  0  0  0  0  0  0  0999 V3000
M  V30 BEGIN CTAB
M  V30 COUNTS 58 62 0 0 0
M  V30 BEGIN ATOM
M  V30 1 C 3.734017 0.690535 -0.854320 0
M  V30 2 C 4.123073 0.394780 0.537103 0
M  V30 3 N 4.376020 -0.800171 1.099732 0
M  V30 4 N 4.687781 -0.580413 2.370529 0
M  V30 5 C 4.650683 0.743562 2.679849 0
M  V30 6 C 4.284534 1.381977 1.493167 0
M  V30 7 C 4.131887 2.843928 1.406379 0
M  V30 8 C 5.124560 3.768707 1.075752 0
M  V30 9 C 4.802071 5.096823 1.043435 0
M  V30 10 N 3.551150 5.510198 1.324624 0
M  V30 11 C 2.556982 4.660882 1.649155 0
M  V30 12 C 1.298946 5.157452 1.925002 0
M  V30 13 C 0.273469 4.271830 2.260567 0
M  V30 14 C 0.541465 2.912757 2.309332 0
M  V30 15 C -0.470507 1.948385 2.648202 0
M  V30 16 C -1.308595 1.122506 2.930792 0
M  V30 17 C -2.322157 0.091957 3.268936 0
M  V30 18 N -2.243855 -1.018589 2.344641 0
M  V30 19 C -3.115673 -2.130653 2.465192 0
M  V30 20 O -3.883666 -1.924917 3.465955 0
M  V30 21 C -3.146486 -3.303797 1.613775 0
M  V30 22 C -4.128645 -4.226920 1.998489 0
M  V30 23 N -4.299698 -5.372370 1.322430 0
M  V30 24 C -3.562492 -5.709863 0.256099 0
M  V30 25 N -2.629697 -4.837829 -0.112833 0
M  V30 26 C -1.786556 -5.118649 -1.253916 0
M  V30 27 C -2.398317 -4.595179 -2.492366 0
M  V30 28 C -2.239410 -3.355499 -3.072861 0
M  V30 29 C -2.878876 -3.010507 -4.233923 0
M  V30 30 C -3.726391 -3.901497 -4.888784 0
M  V30 31 F -4.290323 -3.437294 -6.017577 0
M  V30 32 C -3.889169 -5.139269 -4.315225 0
M  V30 33 F -4.727079 -5.971232 -4.994760 0
M  V30 34 C -3.243234 -5.485940 -3.143590 0
M  V30 35 C -2.404856 -3.676882 0.515726 0
M  V30 36 O -1.539970 -2.820311 0.210021 0
M  V30 37 C 1.812518 2.455309 2.026834 0
M  V30 38 C 2.855372 3.314504 1.689138 0
M  V30 39 H 2.624657 0.677408 -0.913099 0
M  V30 40 H 4.053499 1.689328 -1.190926 0
M  V30 41 H 4.132624 -0.083823 -1.561858 0
M  V30 42 H 4.939373 -1.324212 3.081851 0
M  V30 43 H 4.872374 1.142302 3.666214 0
M  V30 44 H 6.092239 3.308154 0.870309 0
M  V30 45 H 5.602799 5.775038 0.782542 0
M  V30 46 H 1.107070 6.202724 1.883889 0
M  V30 47 H -0.723438 4.626296 2.482511 0
M  V30 48 H -2.141545 -0.197632 4.310964 0
M  V30 49 H -3.332940 0.554169 3.140797 0
M  V30 50 H -1.538403 -1.003723 1.579218 0
M  V30 51 H -4.813453 -4.120916 2.832431 0
M  V30 52 H -3.656289 -6.616076 -0.324487 0
M  V30 53 H -1.580566 -6.205110 -1.349477 0
M  V30 54 H -0.790520 -4.650043 -1.112742 0
M  V30 55 H -1.574619 -2.695624 -2.534154 0
M  V30 56 H -2.668327 -1.995959 -4.591292 0
M  V30 57 H -3.439173 -6.472740 -2.783055 0
M  V30 58 H 2.010375 1.404280 2.066930 0
M  V30 END ATOM
M  V30 BEGIN BOND
M  V30 1 1 1 2
M  V30 2 2 2 3
M  V30 3 1 3 4
M  V30 4 1 4 5
M  V30 5 2 5 6
M  V30 6 1 6 7
M  V30 7 2 7 8
M  V30 8 1 8 9
M  V30 9 2 9 10
M  V30 10 1 10 11
M  V30 11 2 11 12
M  V30 12 1 12 13
M  V30 13 2 13 14
M  V30 14 1 14 15
M  V30 15 3 15 16
M  V30 16 1 16 17
M  V30 17 1 17 18
M  V30 18 1 18 19
M  V30 19 2 19 20
M  V30 20 1 19 21
M  V30 21 2 21 22
M  V30 22 1 22 23
M  V30 23 2 23 24
M  V30 24 1 24 25
M  V30 25 1 25 26
M  V30 26 1 26 27
M  V30 27 2 27 28
M  V30 28 1 28 29
M  V30 29 2 29 30
M  V30 30 1 30 31
M  V30 31 1 30 32
M  V30 32 1 32 33
M  V30 33 2 32 34
M  V30 34 1 25 35
M  V30 35 2 35 36
M  V30 36 1 14 37
M  V30 37 2 37 38
M  V30 38 1 6 2
M  V30 39 1 38 7
M  V30 40 1 38 11
M  V30 41 1 35 21
M  V30 42 1 34 27
M  V30 43 1 1 39
M  V30 44 1 1 40
M  V30 45 1 1 41
M  V30 46 1 4 42
M  V30 47 1 5 43
M  V30 48 1 8 44
M  V30 49 1 9 45
M  V30 50 1 12 46
M  V30 51 1 13 47
M  V30 52 1 17 48
M  V30 53 1 17 49
M  V30 54 1 18 50
M  V30 55 1 22 51
M  V30 56 1 24 52
M  V30 57 1 26 53
M  V30 58 1 26 54
M  V30 59 1 28 55
M  V30 60 1 29 56
M  V30 61 1 34 57
M  V30 62 1 37 58
M  V30 END BOND
M  V30 END CTAB
M  END
>  <Dataset>  (453) 
ChEMBL_Kinases

>  <Ligand_Instance>  (453) 
nan

>  <PDB_ID>  (453) 
nan

>  <Standardized_SMILES>  (453) 
Cc1n[nH]cc1-c1ccnc2ccc(C#CCNC(=O)c3cncn(Cc4ccc(F)c(F)c4)c3=O)cc12

>  <Name>  (453) 
nan

>  <Pocket>  (453) 
nan

>  <ATP_Site>  (453) 
nan

>  <Peripheral>  (453) 
nan

>  <Num_H_Atoms_ProtBoundConf>  (453) 
nan

>  <Num_Resolved_Atoms>  (453) 
nan

>  <Num_Not_Resolved_Atoms>  (453) 
nan

$$$$
CHEMBL3640525
     RDKit          3D

  0  0  0  0  0  0  0  0  0  0999 V3000
M  V30 BEGIN CTAB
M  V30 COUNTS 51 54 0 0 0
M  V30 BEGIN ATOM
M  V30 1 C 1.486701 -2.576243 2.271784 0
M  V30 2 C 2.599269 -2.160176 3.149451 0
M  V30 3 C 3.114187 -3.021844 4.119713 0
M  V30 4 C 4.167565 -2.664624 4.966899 0
M  V30 5 N 4.726622 -1.422026 4.852266 0
M  V30 6 C 4.261979 -0.560199 3.931907 0
M  V30 7 C 4.831684 0.716354 3.812613 0
M  V30 8 C 4.327986 1.593444 2.850620 0
M  V30 9 C 3.281818 1.253955 2.002336 0
M  V30 10 C 2.729678 2.122819 1.002033 0
M  V30 11 C 2.255262 2.856126 0.175286 0
M  V30 12 C 1.649365 3.762046 -0.828160 0
M  V30 13 N 0.832970 2.991513 -1.788279 0
M  V30 14 C -0.178342 2.297430 -1.207417 0
M  V30 15 O -0.413402 2.296765 0.060474 0
M  V30 16 C -1.288849 1.461679 -1.087776 0
M  V30 17 C -1.277549 1.358815 -2.591408 0
M  V30 18 N -2.100524 0.667695 -3.481825 0
M  V30 19 C -3.123497 -0.069659 -2.936883 0
M  V30 20 N -3.229552 -0.052798 -1.610420 0
M  V30 21 C -4.167287 -0.727111 -0.764008 0
M  V30 22 C -3.745614 -2.100364 -0.389978 0
M  V30 23 C -4.195781 -3.167023 -1.179182 0
M  V30 24 C -3.903642 -4.497887 -0.982610 0
M  V30 25 C -3.086246 -4.808057 0.099176 0
M  V30 26 F -2.820793 -6.145224 0.262401 0
M  V30 27 C -2.615023 -3.799129 0.909871 0
M  V30 28 F -1.831465 -4.129860 1.941108 0
M  V30 29 C -2.942017 -2.486515 0.662826 0
M  V30 30 C -2.333948 0.675153 -0.975192 0
M  V30 31 O -2.252083 0.832479 0.315438 0
M  V30 32 C 2.753320 -0.034357 2.167727 0
M  V30 33 C 3.221658 -0.930122 3.104643 0
M  V30 34 H 1.835250 -2.872367 1.256071 0
M  V30 35 H 1.049412 -3.510949 2.715166 0
M  V30 36 H 0.646408 -1.843120 2.226939 0
M  V30 37 H 2.729402 -4.018157 4.274435 0
M  V30 38 H 4.544235 -3.343579 5.705331 0
M  V30 39 H 5.649240 1.023413 4.456224 0
M  V30 40 H 4.742749 2.605652 2.714879 0
M  V30 41 H 1.028767 4.524052 -0.363252 0
M  V30 42 H 2.495551 4.129402 -1.433316 0
M  V30 43 H 0.716035 2.754572 -2.776888 0
M  V30 44 H -0.717018 1.715231 -3.531098 0
M  V30 45 H -3.915630 -0.700395 -3.301401 0
M  V30 46 H -4.398263 -0.138123 0.141410 0
M  V30 47 H -5.128633 -0.812528 -1.330944 0
M  V30 48 H -4.824215 -2.933256 -2.013547 0
M  V30 49 H -4.298281 -5.252679 -1.643680 0
M  V30 50 H -2.580908 -1.689077 1.288366 0
M  V30 51 H 1.939155 -0.297855 1.504530 0
M  V30 END ATOM
M  V30 BEGIN BOND
M  V30 1 1 1 2
M  V30 2 2 2 3
M  V30 3 1 3 4
M  V30 4 2 4 5
M  V30 5 1 5 6
M  V30 6 2 6 7
M  V30 7 1 7 8
M  V30 8 2 8 9
M  V30 9 1 9 10
M  V30 10 3 10 11
M  V30 11 1 11 12
M  V30 12 1 12 13
M  V30 13 1 13 14
M  V30 14 2 14 15
M  V30 15 1 14 16
M  V30 16 2 16 17
M  V30 17 1 17 18
M  V30 18 2 18 19
M  V30 19 1 19 20
M  V30 20 1 20 21
M  V30 21 1 21 22
M  V30 22 2 22 23
M  V30 23 1 23 24
M  V30 24 2 24 25
M  V30 25 1 25 26
M  V30 26 1 25 27
M  V30 27 1 27 28
M  V30 28 2 27 29
M  V30 29 1 20 30
M  V30 30 2 30 31
M  V30 31 1 9 32
M  V30 32 2 32 33
M  V30 33 1 33 2
M  V30 34 1 33 6
M  V30 35 1 30 16
M  V30 36 1 29 22
M  V30 37 1 1 34
M  V30 38 1 1 35
M  V30 39 1 1 36
M  V30 40 1 3 37
M  V30 41 1 4 38
M  V30 42 1 7 39
M  V30 43 1 8 40
M  V30 44 1 12 41
M  V30 45 1 12 42
M  V30 46 1 13 43
M  V30 47 1 17 44
M  V30 48 1 19 45
M  V30 49 1 21 46
M  V30 50 1 21 47
M  V30 51 1 23 48
M  V30 52 1 24 49
M  V30 53 1 29 50
M  V30 54 1 32 51
M  V30 END BOND
M  V30 END CTAB
M  END
>  <Dataset>  (454) 
ChEMBL_Kinases

>  <Ligand_Instance>  (454) 
nan

>  <PDB_ID>  (454) 
nan

>  <Standardized_SMILES>  (454) 
Cc1ccnc2ccc(C#CCNC(=O)c3cncn(Cc4ccc(F)c(F)c4)c3=O)cc12

>  <Name>  (454) 
nan

>  <Pocket>  (454) 
nan

>  <ATP_Site>  (454) 
nan

>  <Peripheral>  (454) 
nan

>  <Num_H_Atoms_ProtBoundConf>  (454) 
nan

>  <Num_Resolved_Atoms>  (454) 
nan

>  <Num_Not_Resolved_Atoms>  (454) 
nan

$$$$
CHEMBL3640524
     RDKit          3D

  0  0  0  0  0  0  0  0  0  0999 V3000
M  V30 BEGIN CTAB
M  V30 COUNTS 61 65 0 0 0
M  V30 BEGIN ATOM
M  V30 1 O 2.038611 -3.739874 4.541077 0
M  V30 2 C 1.986538 -3.638914 3.267679 0
M  V30 3 N 1.889798 -2.277022 2.927783 0
M  V30 4 C 1.859833 -1.230251 3.903057 0
M  V30 5 C 1.754524 0.103334 3.278669 0
M  V30 6 C 1.668821 1.183581 2.752953 0
M  V30 7 C 1.541154 2.482660 2.112556 0
M  V30 8 C 2.653959 3.314617 2.274164 0
M  V30 9 C 2.543993 4.549404 1.671200 0
M  V30 10 C 1.426143 4.930056 0.965588 0
M  V30 11 N 1.240502 6.129136 0.392719 0
M  V30 12 C 0.131238 6.494445 -0.258275 0
M  V30 13 C -0.915081 5.637341 -0.384812 0
M  V30 14 C -0.841835 4.351919 0.169606 0
M  V30 15 C -2.027363 3.575213 -0.035147 0
M  V30 16 C -2.385966 2.310834 -0.067866 0
M  V30 17 C -3.566887 1.439144 -0.263473 0
M  V30 18 C -4.585453 2.263254 -0.990397 0
M  V30 19 N -4.160877 3.610395 -1.226189 0
M  V30 20 C -3.355698 4.192804 -0.235327 0
M  V30 21 C 0.338810 4.111846 0.806934 0
M  V30 22 C 0.446415 2.886989 1.407628 0
M  V30 23 C 2.024081 -4.772321 2.358852 0
M  V30 24 C 2.124097 -6.010627 3.006252 0
M  V30 25 N 2.169597 -7.151735 2.306974 0
M  V30 26 C 2.124378 -7.197518 0.971842 0
M  V30 27 N 2.028534 -6.016203 0.341768 0
M  V30 28 C 1.972563 -5.961592 -1.103374 0
M  V30 29 C 0.580185 -6.025000 -1.624557 0
M  V30 30 C 0.075327 -7.297652 -1.886275 0
M  V30 31 C -1.198666 -7.493176 -2.370614 0
M  V30 32 C -2.035081 -6.426950 -2.618858 0
M  V30 33 F -3.294121 -6.562729 -3.093984 0
M  V30 34 C -1.536950 -5.159065 -2.360018 0
M  V30 35 F -2.317090 -4.053010 -2.585426 0
M  V30 36 C -0.266636 -4.970899 -1.877450 0
M  V30 37 C 1.978790 -4.839243 0.985619 0
M  V30 38 O 1.889928 -3.724948 0.433820 0
M  V30 39 H 1.836975 -2.005500 1.925297 0
M  V30 40 H 2.694154 -1.220670 4.617294 0
M  V30 41 H 0.917123 -1.320957 4.518987 0
M  V30 42 H 3.565808 3.126804 2.794329 0
M  V30 43 H 3.333579 5.284471 1.722705 0
M  V30 44 H 0.238797 7.500781 -0.619949 0
M  V30 45 H -1.674541 6.171253 -0.957803 0
M  V30 46 H -1.554593 1.632700 0.019883 0
M  V30 47 H -3.999657 1.118012 0.723601 0
M  V30 48 H -3.341530 0.539665 -0.863554 0
M  V30 49 H -5.564169 2.238484 -0.448313 0
M  V30 50 H -4.795130 1.787205 -1.966909 0
M  V30 51 H -3.764248 3.680149 -2.188408 0
M  V30 52 H -3.243487 5.266228 -0.396900 0
M  V30 53 H -3.913127 4.111772 0.746864 0
M  V30 54 H -0.306184 2.141556 1.433093 0
M  V30 55 H 2.170160 -6.120789 4.094151 0
M  V30 56 H 2.155897 -8.075316 0.343996 0
M  V30 57 H 2.461391 -5.030953 -1.448110 0
M  V30 58 H 2.554723 -6.815027 -1.540337 0
M  V30 59 H 0.647058 -8.208885 -1.727348 0
M  V30 60 H -1.585401 -8.483029 -2.571832 0
M  V30 61 H 0.138473 -3.996812 -1.670006 0
M  V30 END ATOM
M  V30 BEGIN BOND
M  V30 1 2 1 2
M  V30 2 1 2 3
M  V30 3 1 3 4
M  V30 4 1 4 5
M  V30 5 3 5 6
M  V30 6 1 6 7
M  V30 7 2 7 8
M  V30 8 1 8 9
M  V30 9 2 9 10
M  V30 10 1 10 11
M  V30 11 2 11 12
M  V30 12 1 12 13
M  V30 13 2 13 14
M  V30 14 1 14 15
M  V30 15 2 15 16
M  V30 16 1 16 17
M  V30 17 1 17 18
M  V30 18 1 18 19
M  V30 19 1 19 20
M  V30 20 1 14 21
M  V30 21 2 21 22
M  V30 22 1 2 23
M  V30 23 2 23 24
M  V30 24 1 24 25
M  V30 25 2 25 26
M  V30 26 1 26 27
M  V30 27 1 27 28
M  V30 28 1 28 29
M  V30 29 2 29 30
M  V30 30 1 30 31
M  V30 31 2 31 32
M  V30 32 1 32 33
M  V30 33 1 32 34
M  V30 34 1 34 35
M  V30 35 2 34 36
M  V30 36 1 27 37
M  V30 37 2 37 38
M  V30 38 1 22 7
M  V30 39 1 37 23
M  V30 40 1 21 10
M  V30 41 1 36 29
M  V30 42 1 20 15
M  V30 43 1 3 39
M  V30 44 1 4 40
M  V30 45 1 4 41
M  V30 46 1 8 42
M  V30 47 1 9 43
M  V30 48 1 12 44
M  V30 49 1 13 45
M  V30 50 1 16 46
M  V30 51 1 17 47
M  V30 52 1 17 48
M  V30 53 1 18 49
M  V30 54 1 18 50
M  V30 55 1 19 51
M  V30 56 1 20 52
M  V30 57 1 20 53
M  V30 58 1 22 54
M  V30 59 1 24 55
M  V30 60 1 26 56
M  V30 61 1 28 57
M  V30 62 1 28 58
M  V30 63 1 30 59
M  V30 64 1 31 60
M  V30 65 1 36 61
M  V30 END BOND
M  V30 END CTAB
M  END
>  <Dataset>  (455) 
ChEMBL_Kinases

>  <Ligand_Instance>  (455) 
nan

>  <PDB_ID>  (455) 
nan

>  <Standardized_SMILES>  (455) 
O=C(NCC#Cc1ccc2nccc(C3=CCCNC3)c2c1)c1cncn(Cc2ccc(F)c(F)c2)c1=O

>  <Name>  (455) 
nan

>  <Pocket>  (455) 
nan

>  <ATP_Site>  (455) 
nan

>  <Peripheral>  (455) 
nan

>  <Num_H_Atoms_ProtBoundConf>  (455) 
nan

>  <Num_Resolved_Atoms>  (455) 
nan

>  <Num_Not_Resolved_Atoms>  (455) 
nan

$$$$
CHEMBL3641879
     RDKit          3D

  0  0  0  0  0  0  0  0  0  0999 V3000
M  V30 BEGIN CTAB
M  V30 COUNTS 55 57 0 0 0
M  V30 BEGIN ATOM
M  V30 1 C 3.447639 5.393546 0.773879 0
M  V30 2 N 2.835527 5.036062 -0.490541 0
M  V30 3 C 1.993675 3.955074 -0.850005 0
M  V30 4 N 1.652881 3.055713 0.080769 0
M  V30 5 C 0.855803 2.013709 -0.215356 0
M  V30 6 N 0.515006 1.081287 0.800846 0
M  V30 7 C -0.287318 -0.088613 0.757714 0
M  V30 8 C -0.893646 -0.508565 -0.407019 0
M  V30 9 C -1.684049 -1.632276 -0.525798 0
M  V30 10 C -1.895370 -2.407377 0.594948 0
M  V30 11 C -2.712074 -3.612716 0.574299 0
M  V30 12 O -3.809443 -3.557987 1.197002 0
M  V30 13 N -2.229751 -4.762025 -0.136406 0
M  V30 14 C -0.970666 -4.835032 -0.857562 0
M  V30 15 C -0.871337 -6.292925 -1.321050 0
M  V30 16 O -1.935247 -6.620435 -2.123630 0
M  V30 17 C -3.179665 -6.382526 -1.596240 0
M  V30 18 C -3.050016 -5.961981 -0.148125 0
M  V30 19 C -1.294458 -1.997876 1.765854 0
M  V30 20 C -0.504288 -0.878404 1.893888 0
M  V30 21 O 0.101842 -0.457890 3.055893 0
M  V30 22 C 0.056990 -1.035843 4.315514 0
M  V30 23 C -0.452906 -0.034950 5.360328 0
M  V30 24 C 1.459841 -1.420606 4.811596 0
M  V30 25 N 0.431992 1.935685 -1.482863 0
M  V30 26 C 0.722038 2.785169 -2.472413 0
M  V30 27 C 1.538007 3.839469 -2.139572 0
M  V30 28 C 1.899190 4.818503 -3.181722 0
M  V30 29 F 3.296532 4.794776 -3.291967 0
M  V30 30 F 1.549836 6.081682 -2.814703 0
M  V30 31 F 1.442658 4.443241 -4.430085 0
M  V30 32 H 4.551741 5.483883 0.724281 0
M  V30 33 H 3.191041 4.706313 1.600482 0
M  V30 34 H 3.095426 6.410693 1.115117 0
M  V30 35 H 3.123916 5.752182 -1.183752 0
M  V30 36 H 0.927595 1.287618 1.759609 0
M  V30 37 H -0.806850 0.008080 -1.350548 0
M  V30 38 H -2.160699 -1.963891 -1.438137 0
M  V30 39 H -0.104840 -4.592963 -0.215504 0
M  V30 40 H -1.012840 -4.223547 -1.783316 0
M  V30 41 H 0.049626 -6.416576 -1.954825 0
M  V30 42 H -0.722535 -6.985063 -0.457588 0
M  V30 43 H -3.618985 -5.506769 -2.132022 0
M  V30 44 H -3.914825 -7.200427 -1.744599 0
M  V30 45 H -2.559756 -6.804752 0.423416 0
M  V30 46 H -4.022949 -5.817282 0.341204 0
M  V30 47 H -1.472947 -2.618299 2.631533 0
M  V30 48 H -0.598416 -1.926191 4.290974 0
M  V30 49 H -0.059874 -0.289729 6.382238 0
M  V30 50 H -0.089994 0.979153 5.109348 0
M  V30 51 H -1.569234 -0.109882 5.391164 0
M  V30 52 H 2.019636 -1.638838 3.854984 0
M  V30 53 H 1.982153 -0.587599 5.291590 0
M  V30 54 H 1.336156 -2.310799 5.435128 0
M  V30 55 H 0.353313 2.677859 -3.481003 0
M  V30 END ATOM
M  V30 BEGIN BOND
M  V30 1 1 1 2
M  V30 2 1 2 3
M  V30 3 2 3 4
M  V30 4 1 4 5
M  V30 5 1 5 6
M  V30 6 1 6 7
M  V30 7 2 7 8
M  V30 8 1 8 9
M  V30 9 2 9 10
M  V30 10 1 10 11
M  V30 11 2 11 12
M  V30 12 1 11 13
M  V30 13 1 13 14
M  V30 14 1 14 15
M  V30 15 1 15 16
M  V30 16 1 16 17
M  V30 17 1 17 18
M  V30 18 1 10 19
M  V30 19 2 19 20
M  V30 20 1 20 21
M  V30 21 1 21 22
M  V30 22 1 22 23
M  V30 23 1 22 24
M  V30 24 2 5 25
M  V30 25 1 25 26
M  V30 26 2 26 27
M  V30 27 1 27 28
M  V30 28 1 28 29
M  V30 29 1 28 30
M  V30 30 1 28 31
M  V30 31 1 27 3
M  V30 32 1 20 7
M  V30 33 1 18 13
M  V30 34 1 1 32
M  V30 35 1 1 33
M  V30 36 1 1 34
M  V30 37 1 2 35
M  V30 38 1 6 36
M  V30 39 1 8 37
M  V30 40 1 9 38
M  V30 41 1 14 39
M  V30 42 1 14 40
M  V30 43 1 15 41
M  V30 44 1 15 42
M  V30 45 1 17 43
M  V30 46 1 17 44
M  V30 47 1 18 45
M  V30 48 1 18 46
M  V30 49 1 19 47
M  V30 50 1 22 48
M  V30 51 1 23 49
M  V30 52 1 23 50
M  V30 53 1 23 51
M  V30 54 1 24 52
M  V30 55 1 24 53
M  V30 56 1 24 54
M  V30 57 1 26 55
M  V30 END BOND
M  V30 END CTAB
M  END
>  <Dataset>  (456) 
ChEMBL_Kinases

>  <Ligand_Instance>  (456) 
nan

>  <PDB_ID>  (456) 
nan

>  <Standardized_SMILES>  (456) 
CNc1nc(Nc2ccc(C(=O)N3CCOCC3)cc2OC(C)C)ncc1C(F)(F)F

>  <Name>  (456) 
nan

>  <Pocket>  (456) 
nan

>  <ATP_Site>  (456) 
nan

>  <Peripheral>  (456) 
nan

>  <Num_H_Atoms_ProtBoundConf>  (456) 
nan

>  <Num_Resolved_Atoms>  (456) 
nan

>  <Num_Not_Resolved_Atoms>  (456) 
nan

$$$$
CHEMBL3640507
     RDKit          3D

  0  0  0  0  0  0  0  0  0  0999 V3000
M  V30 BEGIN CTAB
M  V30 COUNTS 59 63 0 0 0
M  V30 BEGIN ATOM
M  V30 1 O 3.271944 -2.633989 4.812823 0
M  V30 2 C 3.606665 -1.636301 5.533350 0
M  V30 3 N 4.480612 -1.911122 6.612964 0
M  V30 4 C 4.936237 -3.274881 6.839343 0
M  V30 5 C 5.687416 -3.594923 8.052516 0
M  V30 6 C 6.454663 -3.366796 6.771573 0
M  V30 7 C 3.094753 -0.305962 5.223938 0
M  V30 8 C 3.329880 0.785744 6.030558 0
M  V30 9 N 2.880808 2.054091 5.768927 0
M  V30 10 C 2.145404 2.261021 4.627397 0
M  V30 11 C 1.670660 3.515517 4.303200 0
M  V30 12 C 0.929718 3.709045 3.131128 0
M  V30 13 C 0.663657 2.643767 2.280063 0
M  V30 14 C -0.074192 2.762602 1.054235 0
M  V30 15 C -0.678211 2.866776 0.010835 0
M  V30 16 C -1.394922 3.000405 -1.277364 0
M  V30 17 N -1.610358 1.705800 -1.894371 0
M  V30 18 C -2.345809 0.671765 -1.296936 0
M  V30 19 O -2.779878 1.050448 -0.158836 0
M  V30 20 C -2.620964 -0.645357 -1.814524 0
M  V30 21 C -3.403082 -1.482068 -1.006114 0
M  V30 22 N -3.719670 -2.726171 -1.406607 0
M  V30 23 C -3.318453 -3.243752 -2.580763 0
M  V30 24 N -2.567228 -2.459948 -3.372636 0
M  V30 25 C -2.115079 -2.992050 -4.640275 0
M  V30 26 C -3.103769 -2.682953 -5.704225 0
M  V30 27 C -3.048893 -1.560618 -6.504724 0
M  V30 28 C -4.023445 -1.369300 -7.462215 0
M  V30 29 C -5.011799 -2.322367 -7.568323 0
M  V30 30 F -5.977222 -2.119112 -8.525502 0
M  V30 31 C -5.130411 -3.475631 -6.797877 0
M  V30 32 F -6.151363 -4.330018 -7.004856 0
M  V30 33 C -4.113405 -3.606198 -5.850590 0
M  V30 34 C -2.239381 -1.222857 -3.000169 0
M  V30 35 O -1.540756 -0.509515 -3.747765 0
M  V30 36 C 1.185937 1.448562 2.707680 0
M  V30 37 C 1.920891 1.145237 3.829509 0
M  V30 38 C 2.357808 -0.136942 4.066212 0
M  V30 39 H 4.791058 -1.135553 7.236043 0
M  V30 40 H 4.464462 -4.063124 6.204035 0
M  V30 41 H 5.770493 -4.641709 8.412581 0
M  V30 42 H 5.818090 -2.832362 8.830082 0
M  V30 43 H 7.064425 -2.448969 6.680845 0
M  V30 44 H 6.930413 -4.221609 6.247358 0
M  V30 45 H 3.902894 0.682001 6.940736 0
M  V30 46 H 1.873361 4.358107 4.961157 0
M  V30 47 H 0.547262 4.687542 2.857182 0
M  V30 48 H -2.315281 3.554334 -1.073506 0
M  V30 49 H -0.766174 3.658389 -1.939743 0
M  V30 50 H -1.193754 1.539724 -2.834602 0
M  V30 51 H -3.761861 -1.116473 -0.035210 0
M  V30 52 H -3.610313 -4.247537 -2.835259 0
M  V30 53 H -1.989791 -4.093557 -4.513953 0
M  V30 54 H -1.132448 -2.509733 -4.851891 0
M  V30 55 H -2.247410 -0.851564 -6.370479 0
M  V30 56 H -4.018015 -0.502995 -8.110293 0
M  V30 57 H -4.199278 -4.517649 -5.235839 0
M  V30 58 H 0.972920 0.602194 2.031488 0
M  V30 59 H 2.119053 -0.926339 3.367237 0
M  V30 END ATOM
M  V30 BEGIN BOND
M  V30 1 2 1 2
M  V30 2 1 2 3
M  V30 3 1 3 4
M  V30 4 1 4 5
M  V30 5 1 5 6
M  V30 6 1 2 7
M  V30 7 2 7 8
M  V30 8 1 8 9
M  V30 9 2 9 10
M  V30 10 1 10 11
M  V30 11 2 11 12
M  V30 12 1 12 13
M  V30 13 1 13 14
M  V30 14 3 14 15
M  V30 15 1 15 16
M  V30 16 1 16 17
M  V30 17 1 17 18
M  V30 18 2 18 19
M  V30 19 1 18 20
M  V30 20 2 20 21
M  V30 21 1 21 22
M  V30 22 2 22 23
M  V30 23 1 23 24
M  V30 24 1 24 25
M  V30 25 1 25 26
M  V30 26 2 26 27
M  V30 27 1 27 28
M  V30 28 2 28 29
M  V30 29 1 29 30
M  V30 30 1 29 31
M  V30 31 1 31 32
M  V30 32 2 31 33
M  V30 33 1 24 34
M  V30 34 2 34 35
M  V30 35 2 13 36
M  V30 36 1 36 37
M  V30 37 2 37 38
M  V30 38 1 6 4
M  V30 39 1 38 7
M  V30 40 1 37 10
M  V30 41 1 34 20
M  V30 42 1 33 26
M  V30 43 1 3 39
M  V30 44 1 4 40
M  V30 45 1 5 41
M  V30 46 1 5 42
M  V30 47 1 6 43
M  V30 48 1 6 44
M  V30 49 1 8 45
M  V30 50 1 11 46
M  V30 51 1 12 47
M  V30 52 1 16 48
M  V30 53 1 16 49
M  V30 54 1 17 50
M  V30 55 1 21 51
M  V30 56 1 23 52
M  V30 57 1 25 53
M  V30 58 1 25 54
M  V30 59 1 27 55
M  V30 60 1 28 56
M  V30 61 1 33 57
M  V30 62 1 36 58
M  V30 63 1 38 59
M  V30 END BOND
M  V30 END CTAB
M  END
>  <Dataset>  (457) 
ChEMBL_Kinases

>  <Ligand_Instance>  (457) 
nan

>  <PDB_ID>  (457) 
nan

>  <Standardized_SMILES>  (457) 
O=C(NC1CC1)c1cnc2ccc(C#CCNC(=O)c3cncn(Cc4ccc(F)c(F)c4)c3=O)cc2c1

>  <Name>  (457) 
nan

>  <Pocket>  (457) 
nan

>  <ATP_Site>  (457) 
nan

>  <Peripheral>  (457) 
nan

>  <Num_H_Atoms_ProtBoundConf>  (457) 
nan

>  <Num_Resolved_Atoms>  (457) 
nan

>  <Num_Not_Resolved_Atoms>  (457) 
nan

$$$$
CHEMBL3640508
     RDKit          3D

  0  0  0  0  0  0  0  0  0  0999 V3000
M  V30 BEGIN CTAB
M  V30 COUNTS 70 74 0 0 0
M  V30 BEGIN ATOM
M  V30 1 C 2.843950 -3.484459 2.456670 0
M  V30 2 N 4.045558 -2.727926 2.286674 0
M  V30 3 C 4.834172 -3.066729 1.144442 0
M  V30 4 C 6.240558 -2.557819 1.321883 0
M  V30 5 C 6.281423 -1.249871 2.082526 0
M  V30 6 N 5.384917 -0.288426 1.473308 0
M  V30 7 C 5.838977 0.945404 0.931467 0
M  V30 8 O 7.067410 1.212665 0.983181 0
M  V30 9 C 4.952644 1.925746 0.314398 0
M  V30 10 C 5.530796 3.083549 -0.166766 0
M  V30 11 N 4.722262 4.011843 -0.746379 0
M  V30 12 C 3.395713 3.815344 -0.851963 0
M  V30 13 C 2.637993 4.800017 -1.451331 0
M  V30 14 C 1.272901 4.654996 -1.587805 0
M  V30 15 C 0.641025 3.500158 -1.116313 0
M  V30 16 C -0.780363 3.361610 -1.263911 0
M  V30 17 C -1.975084 3.259750 -1.399834 0
M  V30 18 C -3.426636 3.147349 -1.585816 0
M  V30 19 N -3.866521 1.780512 -1.615597 0
M  V30 20 C -3.573952 1.057593 -0.429478 0
M  V30 21 O -2.974079 1.842759 0.382285 0
M  V30 22 C -3.873886 -0.326044 -0.127379 0
M  V30 23 C -3.455834 -0.749230 1.128789 0
M  V30 24 N -3.652872 -1.999949 1.569518 0
M  V30 25 C -4.267794 -2.912271 0.814788 0
M  V30 26 N -4.686119 -2.538311 -0.406817 0
M  V30 27 C -5.360743 -3.491949 -1.264818 0
M  V30 28 C -6.823191 -3.432550 -1.008164 0
M  V30 29 C -7.304259 -4.275771 -0.003683 0
M  V30 30 C -8.633181 -4.347249 0.362024 0
M  V30 31 C -9.531534 -3.539892 -0.303766 0
M  V30 32 F -10.867925 -3.501803 -0.053637 0
M  V30 33 C -9.089757 -2.691487 -1.305232 0
M  V30 34 F -9.917543 -1.870689 -2.000965 0
M  V30 35 C -7.747401 -2.640199 -1.652293 0
M  V30 36 C -4.503442 -1.296394 -0.874170 0
M  V30 37 O -4.876494 -0.911702 -2.000468 0
M  V30 38 C 1.389417 2.492189 -0.506936 0
M  V30 39 C 2.754086 2.662808 -0.383114 0
M  V30 40 C 3.591214 1.733332 0.201501 0
M  V30 41 C 5.819313 -1.540632 3.503079 0
M  V30 42 C 4.779085 -2.612951 3.508521 0
M  V30 43 H 2.610838 -3.504019 3.549879 0
M  V30 44 H 1.985011 -3.020895 1.926216 0
M  V30 45 H 2.921518 -4.533905 2.092232 0
M  V30 46 H 4.355033 -2.614964 0.253120 0
M  V30 47 H 4.799967 -4.168940 1.017229 0
M  V30 48 H 6.791641 -2.481683 0.351494 0
M  V30 49 H 6.785141 -3.311152 1.926236 0
M  V30 50 H 7.334952 -0.903947 2.066335 0
M  V30 51 H 4.370379 -0.527645 1.440022 0
M  V30 52 H 6.589156 3.319416 -0.121501 0
M  V30 53 H 3.129254 5.700489 -1.819226 0
M  V30 54 H 0.636121 5.405541 -2.053467 0
M  V30 55 H -3.748085 3.631834 -2.541575 0
M  V30 56 H -3.871392 3.754625 -0.768366 0
M  V30 57 H -4.359613 1.273294 -2.381519 0
M  V30 58 H -2.942972 -0.089478 1.830244 0
M  V30 59 H -4.413954 -3.912807 1.193174 0
M  V30 60 H -5.147046 -3.296115 -2.337159 0
M  V30 61 H -4.989526 -4.504624 -1.044650 0
M  V30 62 H -6.626862 -4.929607 0.546287 0
M  V30 63 H -8.999764 -4.994087 1.131931 0
M  V30 64 H -7.360456 -1.998945 -2.421720 0
M  V30 65 H 0.934441 1.587997 -0.131747 0
M  V30 66 H 3.135185 0.841333 0.570586 0
M  V30 67 H 5.516910 -0.583043 3.944099 0
M  V30 68 H 6.726144 -1.972487 4.008369 0
M  V30 69 H 5.213571 -3.633351 3.708331 0
M  V30 70 H 4.071375 -2.400481 4.325233 0
M  V30 END ATOM
M  V30 BEGIN BOND
M  V30 1 1 1 2
M  V30 2 1 2 3
M  V30 3 1 3 4
M  V30 4 1 4 5
M  V30 5 1 5 6
M  V30 6 1 6 7
M  V30 7 2 7 8
M  V30 8 1 7 9
M  V30 9 2 9 10
M  V30 10 1 10 11
M  V30 11 2 11 12
M  V30 12 1 12 13
M  V30 13 2 13 14
M  V30 14 1 14 15
M  V30 15 1 15 16
M  V30 16 3 16 17
M  V30 17 1 17 18
M  V30 18 1 18 19
M  V30 19 1 19 20
M  V30 20 2 20 21
M  V30 21 1 20 22
M  V30 22 2 22 23
M  V30 23 1 23 24
M  V30 24 2 24 25
M  V30 25 1 25 26
M  V30 26 1 26 27
M  V30 27 1 27 28
M  V30 28 2 28 29
M  V30 29 1 29 30
M  V30 30 2 30 31
M  V30 31 1 31 32
M  V30 32 1 31 33
M  V30 33 1 33 34
M  V30 34 2 33 35
M  V30 35 1 26 36
M  V30 36 2 36 37
M  V30 37 2 15 38
M  V30 38 1 38 39
M  V30 39 2 39 40
M  V30 40 1 5 41
M  V30 41 1 41 42
M  V30 42 1 42 2
M  V30 43 1 40 9
M  V30 44 1 39 12
M  V30 45 1 36 22
M  V30 46 1 35 28
M  V30 47 1 1 43
M  V30 48 1 1 44
M  V30 49 1 1 45
M  V30 50 1 3 46
M  V30 51 1 3 47
M  V30 52 1 4 48
M  V30 53 1 4 49
M  V30 54 1 5 50
M  V30 55 1 6 51
M  V30 56 1 10 52
M  V30 57 1 13 53
M  V30 58 1 14 54
M  V30 59 1 18 55
M  V30 60 1 18 56
M  V30 61 1 19 57
M  V30 62 1 23 58
M  V30 63 1 25 59
M  V30 64 1 27 60
M  V30 65 1 27 61
M  V30 66 1 29 62
M  V30 67 1 30 63
M  V30 68 1 35 64
M  V30 69 1 38 65
M  V30 70 1 40 66
M  V30 71 1 41 67
M  V30 72 1 41 68
M  V30 73 1 42 69
M  V30 74 1 42 70
M  V30 END BOND
M  V30 END CTAB
M  END
>  <Dataset>  (458) 
ChEMBL_Kinases

>  <Ligand_Instance>  (458) 
nan

>  <PDB_ID>  (458) 
nan

>  <Standardized_SMILES>  (458) 
CN1CCC(NC(=O)c2cnc3ccc(C#CCNC(=O)c4cncn(Cc5ccc(F)c(F)c5)c4=O)cc3c2)CC1

>  <Name>  (458) 
nan

>  <Pocket>  (458) 
nan

>  <ATP_Site>  (458) 
nan

>  <Peripheral>  (458) 
nan

>  <Num_H_Atoms_ProtBoundConf>  (458) 
nan

>  <Num_Resolved_Atoms>  (458) 
nan

>  <Num_Not_Resolved_Atoms>  (458) 
nan

$$$$
CHEMBL3640509
     RDKit          3D

  0  0  0  0  0  0  0  0  0  0999 V3000
M  V30 BEGIN CTAB
M  V30 COUNTS 58 61 0 0 0
M  V30 BEGIN ATOM
M  V30 1 C 5.361102 -2.376158 5.299901 0
M  V30 2 C 6.361777 -2.142980 4.173257 0
M  V30 3 N 5.761567 -1.331977 3.124543 0
M  V30 4 C 6.532444 -1.000754 1.977976 0
M  V30 5 O 7.716820 -1.374158 1.824821 0
M  V30 6 C 5.960498 -0.193119 0.908265 0
M  V30 7 C 6.711547 0.175021 -0.188967 0
M  V30 8 N 6.186578 0.924739 -1.196523 0
M  V30 9 C 4.912481 1.358048 -1.199676 0
M  V30 10 C 4.361269 2.116161 -2.212113 0
M  V30 11 C 3.043410 2.544050 -2.184937 0
M  V30 12 C 2.268035 2.190605 -1.099955 0
M  V30 13 C 0.886611 2.560700 -0.947347 0
M  V30 14 C -0.283413 2.853856 -0.810039 0
M  V30 15 C -1.718713 3.190390 -0.628864 0
M  V30 16 N -2.489182 1.979308 -0.828319 0
M  V30 17 C -3.883902 1.929739 -0.727675 0
M  V30 18 O -4.317073 3.097783 -0.443073 0
M  V30 19 C -4.774413 0.795326 -0.899261 0
M  V30 20 C -6.136786 1.069246 -0.732836 0
M  V30 21 N -7.067860 0.116309 -0.861028 0
M  V30 22 C -6.748764 -1.145972 -1.154195 0
M  V30 23 N -5.456747 -1.457535 -1.323026 0
M  V30 24 C -5.085156 -2.798804 -1.635857 0
M  V30 25 C -4.827070 -3.647464 -0.436070 0
M  V30 26 C -5.832099 -4.362754 0.184306 0
M  V30 27 C -5.593378 -5.140691 1.280630 0
M  V30 28 C -4.323002 -5.246485 1.821870 0
M  V30 29 F -4.058705 -6.017031 2.915872 0
M  V30 30 C -3.298929 -4.547584 1.229257 0
M  V30 31 F -2.042229 -4.641148 1.751818 0
M  V30 32 C -3.564301 -3.760131 0.112031 0
M  V30 33 C -4.516267 -0.514083 -1.197607 0
M  V30 34 O -3.300408 -0.777180 -1.350227 0
M  V30 35 C 2.792737 1.427708 -0.063266 0
M  V30 36 C 4.118700 1.016760 -0.124666 0
M  V30 37 C 4.669012 0.257096 0.885669 0
M  V30 38 H 5.188749 -1.456661 5.885562 0
M  V30 39 H 5.660948 -3.216460 5.931854 0
M  V30 40 H 4.386410 -2.672317 4.816775 0
M  V30 41 H 7.230403 -1.607568 4.615149 0
M  V30 42 H 6.681737 -3.136085 3.847202 0
M  V30 43 H 4.774802 -1.022161 3.260134 0
M  V30 44 H 7.763483 -0.122171 -0.294038 0
M  V30 45 H 4.976351 2.389758 -3.059844 0
M  V30 46 H 2.582447 3.135356 -2.955007 0
M  V30 47 H -2.038842 3.986346 -1.299877 0
M  V30 48 H -1.936082 3.531277 0.404384 0
M  V30 49 H -1.993601 1.066124 -1.064139 0
M  V30 50 H -6.559653 2.033703 -0.494057 0
M  V30 51 H -7.491642 -1.926482 -1.260883 0
M  V30 52 H -5.915494 -3.289995 -2.198037 0
M  V30 53 H -4.156131 -2.757360 -2.255218 0
M  V30 54 H -6.845471 -4.304902 -0.211469 0
M  V30 55 H -6.374833 -5.703760 1.772203 0
M  V30 56 H -2.727821 -3.247274 -0.296857 0
M  V30 57 H 2.207637 1.138111 0.795549 0
M  V30 58 H 4.005019 0.017831 1.703189 0
M  V30 END ATOM
M  V30 BEGIN BOND
M  V30 1 1 1 2
M  V30 2 1 2 3
M  V30 3 1 3 4
M  V30 4 2 4 5
M  V30 5 1 4 6
M  V30 6 2 6 7
M  V30 7 1 7 8
M  V30 8 2 8 9
M  V30 9 1 9 10
M  V30 10 2 10 11
M  V30 11 1 11 12
M  V30 12 1 12 13
M  V30 13 3 13 14
M  V30 14 1 14 15
M  V30 15 1 15 16
M  V30 16 1 16 17
M  V30 17 2 17 18
M  V30 18 1 17 19
M  V30 19 2 19 20
M  V30 20 1 20 21
M  V30 21 2 21 22
M  V30 22 1 22 23
M  V30 23 1 23 24
M  V30 24 1 24 25
M  V30 25 2 25 26
M  V30 26 1 26 27
M  V30 27 2 27 28
M  V30 28 1 28 29
M  V30 29 1 28 30
M  V30 30 1 30 31
M  V30 31 2 30 32
M  V30 32 1 23 33
M  V30 33 2 33 34
M  V30 34 2 12 35
M  V30 35 1 35 36
M  V30 36 2 36 37
M  V30 37 1 37 6
M  V30 38 1 36 9
M  V30 39 1 33 19
M  V30 40 1 32 25
M  V30 41 1 1 38
M  V30 42 1 1 39
M  V30 43 1 1 40
M  V30 44 1 2 41
M  V30 45 1 2 42
M  V30 46 1 3 43
M  V30 47 1 7 44
M  V30 48 1 10 45
M  V30 49 1 11 46
M  V30 50 1 15 47
M  V30 51 1 15 48
M  V30 52 1 16 49
M  V30 53 1 20 50
M  V30 54 1 22 51
M  V30 55 1 24 52
M  V30 56 1 24 53
M  V30 57 1 26 54
M  V30 58 1 27 55
M  V30 59 1 32 56
M  V30 60 1 35 57
M  V30 61 1 37 58
M  V30 END BOND
M  V30 END CTAB
M  END
>  <Dataset>  (459) 
ChEMBL_Kinases

>  <Ligand_Instance>  (459) 
nan

>  <PDB_ID>  (459) 
nan

>  <Standardized_SMILES>  (459) 
CCNC(=O)c1cnc2ccc(C#CCNC(=O)c3cncn(Cc4ccc(F)c(F)c4)c3=O)cc2c1

>  <Name>  (459) 
nan

>  <Pocket>  (459) 
nan

>  <ATP_Site>  (459) 
nan

>  <Peripheral>  (459) 
nan

>  <Num_H_Atoms_ProtBoundConf>  (459) 
nan

>  <Num_Resolved_Atoms>  (459) 
nan

>  <Num_Not_Resolved_Atoms>  (459) 
nan

$$$$
CHEMBL3640510
     RDKit          3D

  0  0  0  0  0  0  0  0  0  0999 V3000
M  V30 BEGIN CTAB
M  V30 COUNTS 61 64 0 0 0
M  V30 BEGIN ATOM
M  V30 1 C 5.005652 -0.535759 6.405721 0
M  V30 2 C 4.947174 -1.483535 5.249677 0
M  V30 3 C 4.135951 -2.684054 5.625810 0
M  V30 4 N 4.429975 -0.873966 4.039426 0
M  V30 5 C 5.226578 -0.803737 2.845801 0
M  V30 6 O 6.398373 -1.263096 2.792519 0
M  V30 7 C 4.704383 -0.189524 1.628898 0
M  V30 8 C 5.491391 -0.175479 0.493206 0
M  V30 9 N 5.101905 0.368877 -0.696235 0
M  V30 10 C 3.864715 0.942563 -0.805244 0
M  V30 11 C 3.442821 1.495733 -1.988789 0
M  V30 12 C 2.176806 2.064023 -2.053551 0
M  V30 13 C 1.357365 2.063931 -0.918060 0
M  V30 14 C 0.066084 2.669967 -1.073549 0
M  V30 15 C -1.043727 3.180177 -1.189707 0
M  V30 16 C -2.359286 3.797338 -1.332546 0
M  V30 17 N -3.314403 2.899793 -2.014066 0
M  V30 18 C -3.496057 1.726465 -1.341401 0
M  V30 19 O -2.919979 1.408857 -0.250982 0
M  V30 20 C -4.017364 0.440105 -1.074108 0
M  V30 21 C -4.853532 0.608298 -2.315097 0
M  V30 22 N -5.786206 -0.233386 -2.931417 0
M  V30 23 C -5.995566 -1.431848 -2.315579 0
M  V30 24 N -5.303145 -1.693931 -1.196553 0
M  V30 25 C -5.325775 -2.858315 -0.375525 0
M  V30 26 C -4.340745 -3.887320 -0.838934 0
M  V30 27 C -3.032276 -4.022866 -0.429225 0
M  V30 28 C -2.225023 -5.018356 -0.936550 0
M  V30 29 C -2.688902 -5.925154 -1.878930 0
M  V30 30 F -1.941956 -6.920846 -2.415631 0
M  V30 31 C -4.006072 -5.852538 -2.344596 0
M  V30 32 F -4.578371 -6.669137 -3.248954 0
M  V30 33 C -4.762842 -4.818312 -1.784287 0
M  V30 34 C -4.503630 -0.707685 -0.865820 0
M  V30 35 O -3.739083 -0.781149 0.211329 0
M  V30 36 C 1.783390 1.501329 0.290727 0
M  V30 37 C 3.055223 0.944373 0.309780 0
M  V30 38 C 3.456661 0.389398 1.519091 0
M  V30 39 H 4.401887 -0.931600 7.249491 0
M  V30 40 H 4.531687 0.451588 6.155984 0
M  V30 41 H 6.044465 -0.408384 6.815456 0
M  V30 42 H 5.990567 -1.814279 5.021291 0
M  V30 43 H 4.172140 -3.512191 4.895597 0
M  V30 44 H 4.407201 -3.023539 6.666222 0
M  V30 45 H 3.067423 -2.353379 5.713851 0
M  V30 46 H 3.462312 -0.493204 4.080137 0
M  V30 47 H 6.505884 -0.605193 0.446747 0
M  V30 48 H 4.069752 1.503000 -2.879023 0
M  V30 49 H 1.834802 2.499864 -2.978330 0
M  V30 50 H -2.265234 4.656441 -2.024307 0
M  V30 51 H -2.770099 4.117338 -0.339458 0
M  V30 52 H -3.931511 2.795862 -2.835538 0
M  V30 53 H -5.096799 1.337411 -3.187862 0
M  V30 54 H -6.629075 -2.303899 -2.510028 0
M  V30 55 H -5.148633 -2.631795 0.687038 0
M  V30 56 H -6.330253 -3.364617 -0.418132 0
M  V30 57 H -2.689485 -3.312353 0.303687 0
M  V30 58 H -1.204971 -5.111271 -0.608295 0
M  V30 59 H -5.793341 -4.748206 -2.136230 0
M  V30 60 H 1.120605 1.524567 1.135731 0
M  V30 61 H 2.812354 0.395987 2.384753 0
M  V30 END ATOM
M  V30 BEGIN BOND
M  V30 1 1 1 2
M  V30 2 1 2 3
M  V30 3 1 2 4
M  V30 4 1 4 5
M  V30 5 2 5 6
M  V30 6 1 5 7
M  V30 7 2 7 8
M  V30 8 1 8 9
M  V30 9 2 9 10
M  V30 10 1 10 11
M  V30 11 2 11 12
M  V30 12 1 12 13
M  V30 13 1 13 14
M  V30 14 3 14 15
M  V30 15 1 15 16
M  V30 16 1 16 17
M  V30 17 1 17 18
M  V30 18 2 18 19
M  V30 19 1 18 20
M  V30 20 2 20 21
M  V30 21 1 21 22
M  V30 22 2 22 23
M  V30 23 1 23 24
M  V30 24 1 24 25
M  V30 25 1 25 26
M  V30 26 2 26 27
M  V30 27 1 27 28
M  V30 28 2 28 29
M  V30 29 1 29 30
M  V30 30 1 29 31
M  V30 31 1 31 32
M  V30 32 2 31 33
M  V30 33 1 24 34
M  V30 34 2 34 35
M  V30 35 2 13 36
M  V30 36 1 36 37
M  V30 37 2 37 38
M  V30 38 1 38 7
M  V30 39 1 37 10
M  V30 40 1 34 20
M  V30 41 1 33 26
M  V30 42 1 1 39
M  V30 43 1 1 40
M  V30 44 1 1 41
M  V30 45 1 2 42
M  V30 46 1 3 43
M  V30 47 1 3 44
M  V30 48 1 3 45
M  V30 49 1 4 46
M  V30 50 1 8 47
M  V30 51 1 11 48
M  V30 52 1 12 49
M  V30 53 1 16 50
M  V30 54 1 16 51
M  V30 55 1 17 52
M  V30 56 1 21 53
M  V30 57 1 23 54
M  V30 58 1 25 55
M  V30 59 1 25 56
M  V30 60 1 27 57
M  V30 61 1 28 58
M  V30 62 1 33 59
M  V30 63 1 36 60
M  V30 64 1 38 61
M  V30 END BOND
M  V30 END CTAB
M  END
>  <Dataset>  (460) 
ChEMBL_Kinases

>  <Ligand_Instance>  (460) 
nan

>  <PDB_ID>  (460) 
nan

>  <Standardized_SMILES>  (460) 
CC(C)NC(=O)c1cnc2ccc(C#CCNC(=O)c3cncn(Cc4ccc(F)c(F)c4)c3=O)cc2c1

>  <Name>  (460) 
nan

>  <Pocket>  (460) 
nan

>  <ATP_Site>  (460) 
nan

>  <Peripheral>  (460) 
nan

>  <Num_H_Atoms_ProtBoundConf>  (460) 
nan

>  <Num_Resolved_Atoms>  (460) 
nan

>  <Num_Not_Resolved_Atoms>  (460) 
nan

$$$$
CHEMBL3640511
     RDKit          3D

  0  0  0  0  0  0  0  0  0  0999 V3000
M  V30 BEGIN CTAB
M  V30 COUNTS 70 74 0 0 0
M  V30 BEGIN ATOM
M  V30 1 C 2.196685 -2.549984 3.230537 0
M  V30 2 C 3.459383 -1.774390 3.414729 0
M  V30 3 N 4.644357 -2.610691 3.452661 0
M  V30 4 C 4.890862 -3.205212 2.171877 0
M  V30 5 C 5.169526 -2.201784 1.072247 0
M  V30 6 N 5.937237 -1.116201 1.691196 0
M  V30 7 C 6.047667 0.287212 1.382221 0
M  V30 8 O 6.754187 1.120884 2.007287 0
M  V30 9 C 5.424687 1.091602 0.340475 0
M  V30 10 C 6.136465 1.820045 -0.600474 0
M  V30 11 N 5.539265 2.564299 -1.566521 0
M  V30 12 C 4.191792 2.629072 -1.655188 0
M  V30 13 C 3.543583 3.370551 -2.620357 0
M  V30 14 C 2.164663 3.382525 -2.643052 0
M  V30 15 C 1.370687 2.682716 -1.739923 0
M  V30 16 C -0.071254 2.738825 -1.831372 0
M  V30 17 C -1.271270 2.779075 -1.927508 0
M  V30 18 C -2.733469 2.817204 -2.068213 0
M  V30 19 N -3.362423 1.566102 -1.778121 0
M  V30 20 C -3.262300 0.935097 -0.510856 0
M  V30 21 O -2.551108 1.659781 0.268238 0
M  V30 22 C -3.827877 -0.322919 -0.052583 0
M  V30 23 C -3.570934 -0.675005 1.256728 0
M  V30 24 N -4.069185 -1.821418 1.750570 0
M  V30 25 C -4.825272 -2.680627 1.039923 0
M  V30 26 N -5.088484 -2.346644 -0.256809 0
M  V30 27 C -5.891194 -3.250050 -1.049882 0
M  V30 28 C -7.313404 -2.857975 -0.892399 0
M  V30 29 C -8.105108 -3.334657 0.135858 0
M  V30 30 C -9.422383 -2.943818 0.236180 0
M  V30 31 C -10.023735 -2.076927 -0.653607 0
M  V30 32 F -11.319010 -1.678736 -0.574085 0
M  V30 33 C -9.252101 -1.574078 -1.707308 0
M  V30 34 F -9.807599 -0.721007 -2.599181 0
M  V30 35 C -7.930066 -1.994305 -1.770910 0
M  V30 36 C -4.601693 -1.218405 -0.752888 0
M  V30 37 O -4.848956 -0.925541 -1.938391 0
M  V30 38 C 2.017005 1.941395 -0.774637 0
M  V30 39 C 3.416186 1.930963 -0.753702 0
M  V30 40 C 4.039215 1.180386 0.220720 0
M  V30 41 C 6.733428 -1.533905 2.823917 0
M  V30 42 C 5.776981 -1.866715 3.962629 0
M  V30 43 H 1.421255 -2.162538 3.921608 0
M  V30 44 H 2.315327 -3.624752 3.441101 0
M  V30 45 H 1.773707 -2.463278 2.199283 0
M  V30 46 H 3.556762 -1.032630 2.607732 0
M  V30 47 H 3.416797 -1.259915 4.395608 0
M  V30 48 H 5.730600 -3.928186 2.252302 0
M  V30 49 H 3.990363 -3.814034 1.928355 0
M  V30 50 H 4.225539 -1.875112 0.638095 0
M  V30 51 H 5.863245 -2.665353 0.339428 0
M  V30 52 H 7.217102 1.795533 -0.566805 0
M  V30 53 H 4.143423 3.920191 -3.330539 0
M  V30 54 H 1.725964 3.987229 -3.429319 0
M  V30 55 H -3.070086 3.651703 -1.426574 0
M  V30 56 H -3.019253 3.118535 -3.103752 0
M  V30 57 H -3.927774 1.065605 -2.499686 0
M  V30 58 H -2.993548 -0.131195 1.985064 0
M  V30 59 H -5.216285 -3.599565 1.457208 0
M  V30 60 H -5.589848 -3.055341 -2.114661 0
M  V30 61 H -5.722495 -4.304502 -0.768886 0
M  V30 62 H -7.666043 -4.018342 0.857386 0
M  V30 63 H -10.061215 -3.312418 1.043472 0
M  V30 64 H -7.405895 -1.561465 -2.617257 0
M  V30 65 H 1.417458 1.395634 -0.069671 0
M  V30 66 H 3.435646 0.645448 0.912344 0
M  V30 67 H 7.234945 -2.503775 2.531967 0
M  V30 68 H 7.499906 -0.815703 3.136386 0
M  V30 69 H 5.404822 -0.902225 4.365133 0
M  V30 70 H 6.276315 -2.400614 4.793157 0
M  V30 END ATOM
M  V30 BEGIN BOND
M  V30 1 1 1 2
M  V30 2 1 2 3
M  V30 3 1 3 4
M  V30 4 1 4 5
M  V30 5 1 5 6
M  V30 6 1 6 7
M  V30 7 2 7 8
M  V30 8 1 7 9
M  V30 9 2 9 10
M  V30 10 1 10 11
M  V30 11 2 11 12
M  V30 12 1 12 13
M  V30 13 2 13 14
M  V30 14 1 14 15
M  V30 15 1 15 16
M  V30 16 3 16 17
M  V30 17 1 17 18
M  V30 18 1 18 19
M  V30 19 1 19 20
M  V30 20 2 20 21
M  V30 21 1 20 22
M  V30 22 2 22 23
M  V30 23 1 23 24
M  V30 24 2 24 25
M  V30 25 1 25 26
M  V30 26 1 26 27
M  V30 27 1 27 28
M  V30 28 2 28 29
M  V30 29 1 29 30
M  V30 30 2 30 31
M  V30 31 1 31 32
M  V30 32 1 31 33
M  V30 33 1 33 34
M  V30 34 2 33 35
M  V30 35 1 26 36
M  V30 36 2 36 37
M  V30 37 2 15 38
M  V30 38 1 38 39
M  V30 39 2 39 40
M  V30 40 1 6 41
M  V30 41 1 41 42
M  V30 42 1 42 3
M  V30 43 1 40 9
M  V30 44 1 39 12
M  V30 45 1 36 22
M  V30 46 1 35 28
M  V30 47 1 1 43
M  V30 48 1 1 44
M  V30 49 1 1 45
M  V30 50 1 2 46
M  V30 51 1 2 47
M  V30 52 1 4 48
M  V30 53 1 4 49
M  V30 54 1 5 50
M  V30 55 1 5 51
M  V30 56 1 10 52
M  V30 57 1 13 53
M  V30 58 1 14 54
M  V30 59 1 18 55
M  V30 60 1 18 56
M  V30 61 1 19 57
M  V30 62 1 23 58
M  V30 63 1 25 59
M  V30 64 1 27 60
M  V30 65 1 27 61
M  V30 66 1 29 62
M  V30 67 1 30 63
M  V30 68 1 35 64
M  V30 69 1 38 65
M  V30 70 1 40 66
M  V30 71 1 41 67
M  V30 72 1 41 68
M  V30 73 1 42 69
M  V30 74 1 42 70
M  V30 END BOND
M  V30 END CTAB
M  END
>  <Dataset>  (461) 
ChEMBL_Kinases

>  <Ligand_Instance>  (461) 
nan

>  <PDB_ID>  (461) 
nan

>  <Standardized_SMILES>  (461) 
CCN1CCN(C(=O)c2cnc3ccc(C#CCNC(=O)c4cncn(Cc5ccc(F)c(F)c5)c4=O)cc3c2)CC1

>  <Name>  (461) 
nan

>  <Pocket>  (461) 
nan

>  <ATP_Site>  (461) 
nan

>  <Peripheral>  (461) 
nan

>  <Num_H_Atoms_ProtBoundConf>  (461) 
nan

>  <Num_Resolved_Atoms>  (461) 
nan

>  <Num_Not_Resolved_Atoms>  (461) 
nan

$$$$
CHEMBL3640512
     RDKit          3D

  0  0  0  0  0  0  0  0  0  0999 V3000
M  V30 BEGIN CTAB
M  V30 COUNTS 72 75 0 0 0
M  V30 BEGIN ATOM
M  V30 1 C 4.881078 2.011875 -2.472065 0
M  V30 2 N 3.863836 1.967425 -1.420041 0
M  V30 3 C 3.087216 3.208389 -1.600672 0
M  V30 4 C 2.921746 0.946048 -1.702993 0
M  V30 5 C 3.031057 -0.478635 -1.767783 0
M  V30 6 C 3.561175 -1.433920 -0.756640 0
M  V30 7 N 3.081454 -2.727417 -1.420930 0
M  V30 8 C 3.866527 -3.165100 -2.578414 0
M  V30 9 C 1.923677 -3.471613 -0.907537 0
M  V30 10 O 1.476347 -3.386708 0.322869 0
M  V30 11 C 1.438645 -4.228485 -2.085716 0
M  V30 12 C 1.002704 -4.967492 -3.197463 0
M  V30 13 N 0.083475 -4.753148 -4.143838 0
M  V30 14 C -0.704612 -3.673735 -4.172287 0
M  V30 15 C -1.720034 -3.295483 -5.010302 0
M  V30 16 C -2.429861 -2.164696 -4.873306 0
M  V30 17 C -2.271438 -1.266205 -3.938494 0
M  V30 18 C -2.761070 -0.057433 -3.310045 0
M  V30 19 C -3.147863 0.906394 -2.776903 0
M  V30 20 C -3.637350 2.117839 -2.065754 0
M  V30 21 N -3.371878 1.544573 -0.612194 0
M  V30 22 C -1.965686 1.457507 -0.407831 0
M  V30 23 O -1.301899 1.962832 -1.367689 0
M  V30 24 C -1.291437 0.870528 0.742328 0
M  V30 25 C 0.072793 1.141315 0.922932 0
M  V30 26 N 0.745818 0.736677 1.987714 0
M  V30 27 C 0.231315 0.036598 3.008754 0
M  V30 28 N -1.079867 -0.224600 2.825321 0
M  V30 29 C -1.773037 -1.094490 3.746001 0
M  V30 30 C -2.801283 -0.214554 4.405149 0
M  V30 31 C -4.128820 -0.666672 4.031639 0
M  V30 32 C -5.266439 -0.023867 4.380952 0
M  V30 33 C -5.198936 1.108352 5.121382 0
M  V30 34 F -6.328952 1.761308 5.427247 0
M  V30 35 C -3.950340 1.541629 5.481078 0
M  V30 36 F -3.798448 2.648784 6.188223 0
M  V30 37 C -2.735882 0.909254 5.144783 0
M  V30 38 C -1.780176 0.172564 1.778188 0
M  V30 39 O -3.058008 -0.066055 1.608553 0
M  V30 40 C -1.256363 -1.580363 -3.024561 0
M  V30 41 C -0.500095 -2.736757 -3.132478 0
M  V30 42 C 0.526376 -3.095987 -2.217783 0
M  V30 43 H 4.399806 2.152469 -3.429613 0
M  V30 44 H 5.465579 1.051031 -2.480773 0
M  V30 45 H 5.616596 2.817056 -2.288976 0
M  V30 46 H 2.036656 3.031371 -1.262775 0
M  V30 47 H 3.512176 4.048769 -1.073142 0
M  V30 48 H 2.997618 3.388312 -2.694637 0
M  V30 49 H 1.912631 1.352080 -1.405618 0
M  V30 50 H 2.741198 1.241296 -2.912755 0
M  V30 51 H 1.972455 -0.832447 -2.018652 0
M  V30 52 H 3.597117 -0.721618 -2.738058 0
M  V30 53 H 4.648422 -1.415816 -0.753568 0
M  V30 54 H 3.109241 -1.423971 0.222126 0
M  V30 55 H 3.154721 -3.065992 -3.463236 0
M  V30 56 H 4.249171 -4.189214 -2.486703 0
M  V30 57 H 4.714862 -2.526236 -2.815321 0
M  V30 58 H 1.688816 -5.769882 -2.979065 0
M  V30 59 H -1.958614 -3.987799 -5.763953 0
M  V30 60 H -3.261182 -1.724047 -5.440221 0
M  V30 61 H -3.043442 2.996836 -2.231569 0
M  V30 62 H -4.683089 2.185313 -2.220707 0
M  V30 63 H -4.022204 1.304643 0.162401 0
M  V30 64 H 0.720759 1.717860 0.299057 0
M  V30 65 H 0.731912 -0.332540 3.886583 0
M  V30 66 H -2.178031 -1.935129 3.201872 0
M  V30 67 H -1.099174 -1.560489 4.516954 0
M  V30 68 H -4.310425 -1.603849 3.473171 0
M  V30 69 H -6.236783 -0.495210 4.029927 0
M  V30 70 H -1.706707 1.182379 5.356747 0
M  V30 71 H -0.792524 -1.003522 -2.160578 0
M  V30 72 H 0.467916 -2.254767 -1.479611 0
M  V30 END ATOM
M  V30 BEGIN BOND
M  V30 1 1 1 2
M  V30 2 1 2 3
M  V30 3 1 2 4
M  V30 4 1 4 5
M  V30 5 1 5 6
M  V30 6 1 6 7
M  V30 7 1 7 8
M  V30 8 1 7 9
M  V30 9 2 9 10
M  V30 10 1 9 11
M  V30 11 2 11 12
M  V30 12 1 12 13
M  V30 13 2 13 14
M  V30 14 1 14 15
M  V30 15 2 15 16
M  V30 16 1 16 17
M  V30 17 1 17 18
M  V30 18 3 18 19
M  V30 19 1 19 20
M  V30 20 1 20 21
M  V30 21 1 21 22
M  V30 22 2 22 23
M  V30 23 1 22 24
M  V30 24 2 24 25
M  V30 25 1 25 26
M  V30 26 2 26 27
M  V30 27 1 27 28
M  V30 28 1 28 29
M  V30 29 1 29 30
M  V30 30 2 30 31
M  V30 31 1 31 32
M  V30 32 2 32 33
M  V30 33 1 33 34
M  V30 34 1 33 35
M  V30 35 1 35 36
M  V30 36 2 35 37
M  V30 37 1 28 38
M  V30 38 2 38 39
M  V30 39 2 17 40
M  V30 40 1 40 41
M  V30 41 2 41 42
M  V30 42 1 42 11
M  V30 43 1 41 14
M  V30 44 1 38 24
M  V30 45 1 37 30
M  V30 46 1 1 43
M  V30 47 1 1 44
M  V30 48 1 1 45
M  V30 49 1 3 46
M  V30 50 1 3 47
M  V30 51 1 3 48
M  V30 52 1 4 49
M  V30 53 1 4 50
M  V30 54 1 5 51
M  V30 55 1 5 52
M  V30 56 1 6 53
M  V30 57 1 6 54
M  V30 58 1 8 55
M  V30 59 1 8 56
M  V30 60 1 8 57
M  V30 61 1 12 58
M  V30 62 1 15 59
M  V30 63 1 16 60
M  V30 64 1 20 61
M  V30 65 1 20 62
M  V30 66 1 21 63
M  V30 67 1 25 64
M  V30 68 1 27 65
M  V30 69 1 29 66
M  V30 70 1 29 67
M  V30 71 1 31 68
M  V30 72 1 32 69
M  V30 73 1 37 70
M  V30 74 1 40 71
M  V30 75 1 42 72
M  V30 END BOND
M  V30 END CTAB
M  END
>  <Dataset>  (462) 
ChEMBL_Kinases

>  <Ligand_Instance>  (462) 
nan

>  <PDB_ID>  (462) 
nan

>  <Standardized_SMILES>  (462) 
CN(C)CCCN(C)C(=O)c1cnc2ccc(C#CCNC(=O)c3cncn(Cc4ccc(F)c(F)c4)c3=O)cc2c1

>  <Name>  (462) 
nan

>  <Pocket>  (462) 
nan

>  <ATP_Site>  (462) 
nan

>  <Peripheral>  (462) 
nan

>  <Num_H_Atoms_ProtBoundConf>  (462) 
nan

>  <Num_Resolved_Atoms>  (462) 
nan

>  <Num_Not_Resolved_Atoms>  (462) 
nan

$$$$
CHEMBL3640513
     RDKit          3D

  0  0  0  0  0  0  0  0  0  0999 V3000
M  V30 BEGIN CTAB
M  V30 COUNTS 70 74 0 0 0
M  V30 BEGIN ATOM
M  V30 1 C -2.496057 -0.637281 -4.810964 0
M  V30 2 N -1.129900 -1.098302 -4.668392 0
M  V30 3 C -1.060163 -2.516097 -4.550251 0
M  V30 4 C -0.564503 -3.086791 -5.858916 0
M  V30 5 C 0.881315 -2.661016 -5.979601 0
M  V30 6 C 1.043856 -1.171598 -5.773998 0
M  V30 7 N 1.868392 -0.965700 -4.629314 0
M  V30 8 C 3.160700 -0.399739 -4.493150 0
M  V30 9 O 3.762477 0.019320 -5.494513 0
M  V30 10 C 3.824458 -0.288177 -3.198209 0
M  V30 11 C 5.092097 0.260426 -3.158974 0
M  V30 12 N 5.779492 0.402225 -1.998050 0
M  V30 13 C 5.250915 0.010356 -0.820384 0
M  V30 14 C 5.947912 0.151848 0.377741 0
M  V30 15 C 5.390961 -0.257106 1.594263 0
M  V30 16 C 4.126066 -0.808053 1.582093 0
M  V30 17 C 3.433259 -1.267909 2.752060 0
M  V30 18 C 2.848796 -1.634843 3.742145 0
M  V30 19 C 2.109210 -2.076929 4.947540 0
M  V30 20 N 0.914165 -1.234986 5.012591 0
M  V30 21 C -0.014062 -1.410556 6.069336 0
M  V30 22 O 0.398919 -2.350331 6.833458 0
M  V30 23 C -1.250315 -0.694821 6.324969 0
M  V30 24 C -1.953256 -1.105786 7.463198 0
M  V30 25 N -3.111101 -0.511109 7.794925 0
M  V30 26 C -3.649946 0.486739 7.074138 0
M  V30 27 N -3.001273 0.907365 5.973667 0
M  V30 28 C -3.517322 1.976996 5.143976 0
M  V30 29 C -4.389994 1.402219 4.110712 0
M  V30 30 C -5.726096 1.258962 4.457301 0
M  V30 31 C -6.626248 0.734515 3.565798 0
M  V30 32 C -6.278842 0.329519 2.313367 0
M  V30 33 F -7.062783 -0.200447 1.344338 0
M  V30 34 C -4.961093 0.462304 1.949275 0
M  V30 35 F -4.463805 0.101938 0.734411 0
M  V30 36 C -4.052523 0.988693 2.841095 0
M  V30 37 C -1.858005 0.326576 5.638554 0
M  V30 38 O -1.228297 0.696248 4.617458 0
M  V30 39 C 3.448280 -0.941313 0.384766 0
M  V30 40 C 3.973026 -0.546716 -0.829564 0
M  V30 41 C 3.263031 -0.696345 -2.005893 0
M  V30 42 C -0.306299 -0.499820 -5.666374 0
M  V30 43 H -3.032031 -0.768667 -3.826915 0
M  V30 44 H -2.472985 0.438102 -5.063801 0
M  V30 45 H -3.019172 -1.250613 -5.590951 0
M  V30 46 H -2.111912 -2.902778 -4.433888 0
M  V30 47 H -0.452939 -2.889108 -3.701870 0
M  V30 48 H -1.149363 -2.694822 -6.690231 0
M  V30 49 H -0.560363 -4.195495 -5.864725 0
M  V30 50 H 1.432154 -3.214282 -5.196048 0
M  V30 51 H 1.207527 -2.951855 -7.001494 0
M  V30 52 H 1.561874 -0.771632 -6.682342 0
M  V30 53 H 1.352710 -1.321800 -3.794228 0
M  V30 54 H 5.647589 0.618664 -4.006345 0
M  V30 55 H 6.943804 0.586438 0.380770 0
M  V30 56 H 5.890214 -0.167075 2.536439 0
M  V30 57 H 2.718351 -1.971586 5.858959 0
M  V30 58 H 1.769875 -3.119321 4.880378 0
M  V30 59 H 0.696005 -0.493811 4.312070 0
M  V30 60 H -1.600611 -1.901376 8.107851 0
M  V30 61 H -4.585482 0.964914 7.345685 0
M  V30 62 H -4.047405 2.739408 5.751289 0
M  V30 63 H -2.638897 2.465510 4.626964 0
M  V30 64 H -6.090416 1.551335 5.423036 0
M  V30 65 H -7.694603 0.604534 3.801732 0
M  V30 66 H -3.013216 1.104735 2.579645 0
M  V30 67 H 2.453759 -1.369043 0.334533 0
M  V30 68 H 2.291596 -1.121588 -2.001231 0
M  V30 69 H -0.212931 0.592414 -5.524508 0
M  V30 70 H -0.816806 -0.650002 -6.648894 0
M  V30 END ATOM
M  V30 BEGIN BOND
M  V30 1 1 1 2
M  V30 2 1 2 3
M  V30 3 1 3 4
M  V30 4 1 4 5
M  V30 5 1 5 6
M  V30 6 1 6 7
M  V30 7 1 7 8
M  V30 8 2 8 9
M  V30 9 1 8 10
M  V30 10 2 10 11
M  V30 11 1 11 12
M  V30 12 2 12 13
M  V30 13 1 13 14
M  V30 14 2 14 15
M  V30 15 1 15 16
M  V30 16 1 16 17
M  V30 17 3 17 18
M  V30 18 1 18 19
M  V30 19 1 19 20
M  V30 20 1 20 21
M  V30 21 2 21 22
M  V30 22 1 21 23
M  V30 23 2 23 24
M  V30 24 1 24 25
M  V30 25 2 25 26
M  V30 26 1 26 27
M  V30 27 1 27 28
M  V30 28 1 28 29
M  V30 29 2 29 30
M  V30 30 1 30 31
M  V30 31 2 31 32
M  V30 32 1 32 33
M  V30 33 1 32 34
M  V30 34 1 34 35
M  V30 35 2 34 36
M  V30 36 1 27 37
M  V30 37 2 37 38
M  V30 38 2 16 39
M  V30 39 1 39 40
M  V30 40 2 40 41
M  V30 41 1 6 42
M  V30 42 1 42 2
M  V30 43 1 41 10
M  V30 44 1 40 13
M  V30 45 1 37 23
M  V30 46 1 36 29
M  V30 47 1 1 43
M  V30 48 1 1 44
M  V30 49 1 1 45
M  V30 50 1 3 46
M  V30 51 1 3 47
M  V30 52 1 4 48
M  V30 53 1 4 49
M  V30 54 1 5 50
M  V30 55 1 5 51
M  V30 56 1 6 52
M  V30 57 1 7 53
M  V30 58 1 11 54
M  V30 59 1 14 55
M  V30 60 1 15 56
M  V30 61 1 19 57
M  V30 62 1 19 58
M  V30 63 1 20 59
M  V30 64 1 24 60
M  V30 65 1 26 61
M  V30 66 1 28 62
M  V30 67 1 28 63
M  V30 68 1 30 64
M  V30 69 1 31 65
M  V30 70 1 36 66
M  V30 71 1 39 67
M  V30 72 1 41 68
M  V30 73 1 42 69
M  V30 74 1 42 70
M  V30 END BOND
M  V30 END CTAB
M  END
>  <Dataset>  (463) 
ChEMBL_Kinases

>  <Ligand_Instance>  (463) 
nan

>  <PDB_ID>  (463) 
nan

>  <Standardized_SMILES>  (463) 
CN1CCCC(NC(=O)c2cnc3ccc(C#CCNC(=O)c4cncn(Cc5ccc(F)c(F)c5)c4=O)cc3c2)C1

>  <Name>  (463) 
nan

>  <Pocket>  (463) 
nan

>  <ATP_Site>  (463) 
nan

>  <Peripheral>  (463) 
nan

>  <Num_H_Atoms_ProtBoundConf>  (463) 
nan

>  <Num_Resolved_Atoms>  (463) 
nan

>  <Num_Not_Resolved_Atoms>  (463) 
nan

$$$$
CHEMBL3640523
     RDKit          3D

  0  0  0  0  0  0  0  0  0  0999 V3000
M  V30 BEGIN CTAB
M  V30 COUNTS 61 65 0 0 0
M  V30 BEGIN ATOM
M  V30 1 O 1.076484 -1.460226 3.518546 0
M  V30 2 C 1.759779 -2.210716 2.739469 0
M  V30 3 N 3.103345 -1.786596 2.775137 0
M  V30 4 C 3.322438 -0.660938 3.653684 0
M  V30 5 C 2.536539 0.514260 3.257443 0
M  V30 6 C 1.890610 1.476361 2.920881 0
M  V30 7 C 1.092563 2.622626 2.506301 0
M  V30 8 C 1.635887 3.888479 2.757008 0
M  V30 9 C 0.873972 4.960415 2.360501 0
M  V30 10 C -0.348715 4.801985 1.754695 0
M  V30 11 N -1.108554 5.809071 1.320952 0
M  V30 12 C -2.265782 5.636784 0.713448 0
M  V30 13 C -2.788068 4.391802 0.477686 0
M  V30 14 C -2.064578 3.268439 0.898529 0
M  V30 15 C -2.723287 2.034889 0.582232 0
M  V30 16 C -2.759240 0.768542 0.892091 0
M  V30 17 C -3.411558 -0.522858 0.589696 0
M  V30 18 N -4.191875 -0.414750 -0.639948 0
M  V30 19 C -3.704916 0.756802 -1.346761 0
M  V30 20 C -3.766389 1.997290 -0.517915 0
M  V30 21 C -0.883954 3.568659 1.509912 0
M  V30 22 C -0.131562 2.495664 1.899221 0
M  V30 23 C 1.181041 -3.303573 1.973094 0
M  V30 24 C -0.197189 -3.467474 2.159460 0
M  V30 25 N -0.868583 -4.436798 1.516532 0
M  V30 26 C -0.277558 -5.296421 0.669535 0
M  V30 27 N 1.044430 -5.147914 0.483524 0
M  V30 28 C 1.746391 -6.038416 -0.414605 0
M  V30 29 C 1.790126 -5.545662 -1.811108 0
M  V30 30 C 0.760283 -5.912563 -2.644433 0
M  V30 31 C 0.689627 -5.513510 -3.975309 0
M  V30 32 C 1.693763 -4.707359 -4.509014 0
M  V30 33 F 1.671213 -4.291549 -5.800084 0
M  V30 34 C 2.734937 -4.335105 -3.670514 0
M  V30 35 F 3.749704 -3.550109 -4.120370 0
M  V30 36 C 2.776484 -4.747820 -2.353322 0
M  V30 37 C 1.760642 -4.196271 1.101418 0
M  V30 38 O 2.991157 -4.032266 0.949487 0
M  V30 39 H 3.794859 -2.301190 2.188224 0
M  V30 40 H 4.371153 -0.361505 3.725571 0
M  V30 41 H 2.998783 -0.898256 4.705889 0
M  V30 42 H 2.589297 4.081595 3.229120 0
M  V30 43 H 1.189928 5.994920 2.500808 0
M  V30 44 H -2.735145 6.567143 0.435993 0
M  V30 45 H -3.749172 4.481760 -0.027987 0
M  V30 46 H -2.118475 0.549471 1.722977 0
M  V30 47 H -2.654835 -1.309519 0.381017 0
M  V30 48 H -4.091192 -0.764172 1.430070 0
M  V30 49 H -5.177724 -0.239284 -0.350135 0
M  V30 50 H -2.686818 0.619367 -1.735655 0
M  V30 51 H -4.361910 0.919941 -2.224253 0
M  V30 52 H -3.563125 2.873681 -1.172277 0
M  V30 53 H -4.743199 2.144514 -0.030760 0
M  V30 54 H -0.409565 1.504426 1.736822 0
M  V30 55 H -0.832997 -2.882503 2.790230 0
M  V30 56 H -0.765077 -6.090888 0.128033 0
M  V30 57 H 2.794030 -6.133539 -0.065882 0
M  V30 58 H 1.316785 -7.074604 -0.361231 0
M  V30 59 H -0.074812 -6.522847 -2.381347 0
M  V30 60 H -0.095722 -5.774625 -4.666248 0
M  V30 61 H 3.587511 -4.457676 -1.700648 0
M  V30 END ATOM
M  V30 BEGIN BOND
M  V30 1 2 1 2
M  V30 2 1 2 3
M  V30 3 1 3 4
M  V30 4 1 4 5
M  V30 5 3 5 6
M  V30 6 1 6 7
M  V30 7 2 7 8
M  V30 8 1 8 9
M  V30 9 2 9 10
M  V30 10 1 10 11
M  V30 11 2 11 12
M  V30 12 1 12 13
M  V30 13 2 13 14
M  V30 14 1 14 15
M  V30 15 2 15 16
M  V30 16 1 16 17
M  V30 17 1 17 18
M  V30 18 1 18 19
M  V30 19 1 19 20
M  V30 20 1 14 21
M  V30 21 2 21 22
M  V30 22 1 2 23
M  V30 23 2 23 24
M  V30 24 1 24 25
M  V30 25 2 25 26
M  V30 26 1 26 27
M  V30 27 1 27 28
M  V30 28 1 28 29
M  V30 29 2 29 30
M  V30 30 1 30 31
M  V30 31 2 31 32
M  V30 32 1 32 33
M  V30 33 1 32 34
M  V30 34 1 34 35
M  V30 35 2 34 36
M  V30 36 1 27 37
M  V30 37 2 37 38
M  V30 38 1 22 7
M  V30 39 1 37 23
M  V30 40 1 21 10
M  V30 41 1 36 29
M  V30 42 1 20 15
M  V30 43 1 3 39
M  V30 44 1 4 40
M  V30 45 1 4 41
M  V30 46 1 8 42
M  V30 47 1 9 43
M  V30 48 1 12 44
M  V30 49 1 13 45
M  V30 50 1 16 46
M  V30 51 1 17 47
M  V30 52 1 17 48
M  V30 53 1 18 49
M  V30 54 1 19 50
M  V30 55 1 19 51
M  V30 56 1 20 52
M  V30 57 1 20 53
M  V30 58 1 22 54
M  V30 59 1 24 55
M  V30 60 1 26 56
M  V30 61 1 28 57
M  V30 62 1 28 58
M  V30 63 1 30 59
M  V30 64 1 31 60
M  V30 65 1 36 61
M  V30 END BOND
M  V30 END CTAB
M  END
>  <Dataset>  (464) 
ChEMBL_Kinases

>  <Ligand_Instance>  (464) 
nan

>  <PDB_ID>  (464) 
nan

>  <Standardized_SMILES>  (464) 
O=C(NCC#Cc1ccc2nccc(C3=CCNCC3)c2c1)c1cncn(Cc2ccc(F)c(F)c2)c1=O

>  <Name>  (464) 
nan

>  <Pocket>  (464) 
nan

>  <ATP_Site>  (464) 
nan

>  <Peripheral>  (464) 
nan

>  <Num_H_Atoms_ProtBoundConf>  (464) 
nan

>  <Num_Resolved_Atoms>  (464) 
nan

>  <Num_Not_Resolved_Atoms>  (464) 
nan

$$$$
CHEMBL3640515
     RDKit          3D

  0  0  0  0  0  0  0  0  0  0999 V3000
M  V30 BEGIN CTAB
M  V30 COUNTS 63 67 0 0 0
M  V30 BEGIN ATOM
M  V30 1 O 3.014396 -1.953306 5.786198 0
M  V30 2 C 2.468741 -1.748378 4.626603 0
M  V30 3 N 3.373124 -2.317113 3.795595 0
M  V30 4 C 4.383740 -2.936960 3.094874 0
M  V30 5 C 4.123778 -2.903331 1.628649 0
M  V30 6 C 3.902523 -2.857921 0.448853 0
M  V30 7 C 3.623860 -2.789038 -0.954613 0
M  V30 8 C 4.483089 -3.165433 -1.941216 0
M  V30 9 C 4.060306 -3.031761 -3.250632 0
M  V30 10 C 2.810110 -2.535052 -3.562270 0
M  V30 11 N 2.384786 -2.400954 -4.823442 0
M  V30 12 C 1.167885 -1.918964 -5.169053 0
M  V30 13 C 0.272765 -1.526484 -4.204002 0
M  V30 14 C -1.050471 -1.016138 -4.515667 0
M  V30 15 O -0.888862 -0.371268 -5.615432 0
M  V30 16 N -2.344343 -1.065037 -3.938530 0
M  V30 17 C -2.950677 -1.661109 -2.740662 0
M  V30 18 C -3.766635 -2.846100 -3.222511 0
M  V30 19 O -4.271609 -2.608871 -4.476277 0
M  V30 20 C -4.583277 -1.288554 -4.751106 0
M  V30 21 C -3.395839 -0.364819 -4.685696 0
M  V30 22 C 0.641051 -1.634305 -2.849618 0
M  V30 23 C 1.896208 -2.135095 -2.574721 0
M  V30 24 C 2.362438 -2.286465 -1.273687 0
M  V30 25 C 1.259724 -1.058844 4.768767 0
M  V30 26 C 0.761620 -1.303774 3.355088 0
M  V30 27 N -0.445906 -0.872952 2.785211 0
M  V30 28 C -1.249180 -0.132253 3.668959 0
M  V30 29 N -0.869312 0.156939 5.021540 0
M  V30 30 C -1.936267 0.904026 5.421522 0
M  V30 31 C -1.934235 2.344868 4.980077 0
M  V30 32 C -1.240045 3.290897 5.747249 0
M  V30 33 C -1.193687 4.626566 5.401693 0
M  V30 34 C -1.808835 5.108318 4.308611 0
M  V30 35 F -1.764840 6.408452 3.973511 0
M  V30 36 C -2.482720 4.180973 3.566935 0
M  V30 37 F -3.143340 4.563298 2.420400 0
M  V30 38 C -2.596228 2.840253 3.812461 0
M  V30 39 C 0.177490 -0.441854 4.894446 0
M  V30 40 O 0.611290 -0.212389 6.165334 0
M  V30 41 H 2.859595 -1.983379 2.924693 0
M  V30 42 H 4.503832 -4.012339 3.420452 0
M  V30 43 H 5.416719 -2.517976 3.253767 0
M  V30 44 H 5.412553 -3.521290 -1.573147 0
M  V30 45 H 4.752380 -3.328368 -4.009065 0
M  V30 46 H 0.913774 -1.843000 -6.228825 0
M  V30 47 H -2.218567 -2.001760 -2.001619 0
M  V30 48 H -3.611979 -0.902132 -2.285133 0
M  V30 49 H -4.518708 -3.061625 -2.442646 0
M  V30 50 H -3.026742 -3.706459 -3.217098 0
M  V30 51 H -5.367635 -0.966969 -4.009813 0
M  V30 52 H -5.089122 -1.255271 -5.740647 0
M  V30 53 H -3.691597 0.515190 -4.049036 0
M  V30 54 H -3.058056 -0.030943 -5.687169 0
M  V30 55 H 0.036708 -1.355477 -2.021391 0
M  V30 56 H 1.651721 -1.970458 -0.515773 0
M  V30 57 H 1.114753 -1.851349 2.391750 0
M  V30 58 H -2.151179 0.092745 3.024856 0
M  V30 59 H -2.008788 0.947585 6.578414 0
M  V30 60 H -2.924624 0.494557 5.152779 0
M  V30 61 H -0.743485 2.904735 6.629292 0
M  V30 62 H -0.623896 5.225687 6.092457 0
M  V30 63 H -3.145738 2.155661 3.209752 0
M  V30 END ATOM
M  V30 BEGIN BOND
M  V30 1 2 1 2
M  V30 2 1 2 3
M  V30 3 1 3 4
M  V30 4 1 4 5
M  V30 5 3 5 6
M  V30 6 1 6 7
M  V30 7 2 7 8
M  V30 8 1 8 9
M  V30 9 2 9 10
M  V30 10 1 10 11
M  V30 11 2 11 12
M  V30 12 1 12 13
M  V30 13 1 13 14
M  V30 14 2 14 15
M  V30 15 1 14 16
M  V30 16 1 16 17
M  V30 17 1 17 18
M  V30 18 1 18 19
M  V30 19 1 19 20
M  V30 20 1 20 21
M  V30 21 2 13 22
M  V30 22 1 22 23
M  V30 23 2 23 24
M  V30 24 1 2 25
M  V30 25 2 25 26
M  V30 26 1 26 27
M  V30 27 2 27 28
M  V30 28 1 28 29
M  V30 29 1 29 30
M  V30 30 1 30 31
M  V30 31 2 31 32
M  V30 32 1 32 33
M  V30 33 2 33 34
M  V30 34 1 34 35
M  V30 35 1 34 36
M  V30 36 1 36 37
M  V30 37 2 36 38
M  V30 38 1 29 39
M  V30 39 2 39 40
M  V30 40 1 24 7
M  V30 41 1 39 25
M  V30 42 1 23 10
M  V30 43 1 38 31
M  V30 44 1 21 16
M  V30 45 1 3 41
M  V30 46 1 4 42
M  V30 47 1 4 43
M  V30 48 1 8 44
M  V30 49 1 9 45
M  V30 50 1 12 46
M  V30 51 1 17 47
M  V30 52 1 17 48
M  V30 53 1 18 49
M  V30 54 1 18 50
M  V30 55 1 20 51
M  V30 56 1 20 52
M  V30 57 1 21 53
M  V30 58 1 21 54
M  V30 59 1 22 55
M  V30 60 1 24 56
M  V30 61 1 26 57
M  V30 62 1 28 58
M  V30 63 1 30 59
M  V30 64 1 30 60
M  V30 65 1 32 61
M  V30 66 1 33 62
M  V30 67 1 38 63
M  V30 END BOND
M  V30 END CTAB
M  END
>  <Dataset>  (465) 
ChEMBL_Kinases

>  <Ligand_Instance>  (465) 
nan

>  <PDB_ID>  (465) 
nan

>  <Standardized_SMILES>  (465) 
O=C(NCC#Cc1ccc2ncc(C(=O)N3CCOCC3)cc2c1)c1cncn(Cc2ccc(F)c(F)c2)c1=O

>  <Name>  (465) 
nan

>  <Pocket>  (465) 
nan

>  <ATP_Site>  (465) 
nan

>  <Peripheral>  (465) 
nan

>  <Num_H_Atoms_ProtBoundConf>  (465) 
nan

>  <Num_Resolved_Atoms>  (465) 
nan

>  <Num_Not_Resolved_Atoms>  (465) 
nan

$$$$
CHEMBL3640516
     RDKit          3D

  0  0  0  0  0  0  0  0  0  0999 V3000
M  V30 BEGIN CTAB
M  V30 COUNTS 64 68 0 0 0
M  V30 BEGIN ATOM
M  V30 1 O 2.949000 -3.581422 5.837406 0
M  V30 2 C 2.727240 -2.864684 4.835657 0
M  V30 3 N 3.800402 -3.078714 3.894617 0
M  V30 4 C 4.927115 -3.313595 2.925382 0
M  V30 5 C 4.525789 -2.562113 1.706040 0
M  V30 6 C 4.182813 -1.966645 0.728962 0
M  V30 7 C 3.755762 -1.252181 -0.421119 0
M  V30 8 C 4.337846 -0.395085 -1.278947 0
M  V30 9 C 3.558997 0.185911 -2.271906 0
M  V30 10 C 2.212349 -0.046460 -2.454532 0
M  V30 11 N 1.557797 0.594879 -3.422022 0
M  V30 12 C 0.242657 0.459495 -3.648015 0
M  V30 13 C -0.359310 -0.403021 -2.785184 0
M  V30 14 C -1.752582 -0.716199 -2.750807 0
M  V30 15 O -2.524018 -1.533687 -2.308463 0
M  V30 16 N -3.150935 -0.913393 -2.790862 0
M  V30 17 C -3.793927 -2.042955 -2.157689 0
M  V30 18 C -4.988969 -2.509534 -2.933520 0
M  V30 19 N -5.888855 -1.488349 -3.342680 0
M  V30 20 C -5.424579 -0.133224 -3.137965 0
M  V30 21 C -3.993382 0.089361 -3.492875 0
M  V30 22 C 0.245209 -1.112006 -1.755720 0
M  V30 23 C 1.596754 -0.919273 -1.589598 0
M  V30 24 C 2.385627 -1.501593 -0.594472 0
M  V30 25 C 1.630764 -2.058651 4.813370 0
M  V30 26 C 1.151438 -2.684158 3.506107 0
M  V30 27 N 0.104273 -2.501256 2.576366 0
M  V30 28 C -0.759553 -1.492009 2.860732 0
M  V30 29 N -0.498112 -0.803470 3.973368 0
M  V30 30 C -1.227000 0.409575 4.317823 0
M  V30 31 C -0.612432 1.519778 3.492474 0
M  V30 32 C -1.137939 1.565785 2.188739 0
M  V30 33 C -0.619600 2.490292 1.306212 0
M  V30 34 C 0.381997 3.366577 1.632508 0
M  V30 35 F 0.906821 4.266797 0.786435 0
M  V30 36 C 0.917309 3.341784 2.912615 0
M  V30 37 F 1.889542 4.144955 3.404496 0
M  V30 38 C 0.379497 2.407853 3.777815 0
M  V30 39 C 0.563948 -1.215614 4.648073 0
M  V30 40 O 0.977740 -0.662963 5.764819 0
M  V30 41 H 3.388457 -2.330022 3.236873 0
M  V30 42 H 5.819493 -2.817993 3.354999 0
M  V30 43 H 5.035322 -4.357413 2.731013 0
M  V30 44 H 5.366943 -0.309618 -1.016107 0
M  V30 45 H 4.134023 0.866391 -2.905501 0
M  V30 46 H -0.343887 0.951751 -4.402539 0
M  V30 47 H -3.939374 -1.910736 -1.087976 0
M  V30 48 H -3.080167 -2.937917 -2.232975 0
M  V30 49 H -5.544790 -3.230627 -2.271396 0
M  V30 50 H -4.626267 -3.099450 -3.799880 0
M  V30 51 H -6.816936 -1.569764 -2.859704 0
M  V30 52 H -6.050225 0.498440 -3.825497 0
M  V30 53 H -5.690664 0.219864 -2.128576 0
M  V30 54 H -3.681676 1.064719 -3.069372 0
M  V30 55 H -3.787283 0.112601 -4.565430 0
M  V30 56 H -0.214915 -1.806267 -1.061895 0
M  V30 57 H 1.730855 -2.171976 -0.004212 0
M  V30 58 H 1.541857 -3.552950 2.851880 0
M  V30 59 H -1.619026 -1.166628 2.324255 0
M  V30 60 H -2.257137 0.247359 3.986775 0
M  V30 61 H -1.202743 0.666769 5.384868 0
M  V30 62 H -1.942415 1.001583 1.679109 0
M  V30 63 H -0.931699 2.599993 0.271518 0
M  V30 64 H 0.745226 2.355721 4.789845 0
M  V30 END ATOM
M  V30 BEGIN BOND
M  V30 1 2 1 2
M  V30 2 1 2 3
M  V30 3 1 3 4
M  V30 4 1 4 5
M  V30 5 3 5 6
M  V30 6 1 6 7
M  V30 7 2 7 8
M  V30 8 1 8 9
M  V30 9 2 9 10
M  V30 10 1 10 11
M  V30 11 2 11 12
M  V30 12 1 12 13
M  V30 13 1 13 14
M  V30 14 2 14 15
M  V30 15 1 14 16
M  V30 16 1 16 17
M  V30 17 1 17 18
M  V30 18 1 18 19
M  V30 19 1 19 20
M  V30 20 1 20 21
M  V30 21 2 13 22
M  V30 22 1 22 23
M  V30 23 2 23 24
M  V30 24 1 2 25
M  V30 25 2 25 26
M  V30 26 1 26 27
M  V30 27 2 27 28
M  V30 28 1 28 29
M  V30 29 1 29 30
M  V30 30 1 30 31
M  V30 31 2 31 32
M  V30 32 1 32 33
M  V30 33 2 33 34
M  V30 34 1 34 35
M  V30 35 1 34 36
M  V30 36 1 36 37
M  V30 37 2 36 38
M  V30 38 1 29 39
M  V30 39 2 39 40
M  V30 40 1 24 7
M  V30 41 1 39 25
M  V30 42 1 23 10
M  V30 43 1 38 31
M  V30 44 1 21 16
M  V30 45 1 3 41
M  V30 46 1 4 42
M  V30 47 1 4 43
M  V30 48 1 8 44
M  V30 49 1 9 45
M  V30 50 1 12 46
M  V30 51 1 17 47
M  V30 52 1 17 48
M  V30 53 1 18 49
M  V30 54 1 18 50
M  V30 55 1 19 51
M  V30 56 1 20 52
M  V30 57 1 20 53
M  V30 58 1 21 54
M  V30 59 1 21 55
M  V30 60 1 22 56
M  V30 61 1 24 57
M  V30 62 1 26 58
M  V30 63 1 28 59
M  V30 64 1 30 60
M  V30 65 1 30 61
M  V30 66 1 32 62
M  V30 67 1 33 63
M  V30 68 1 38 64
M  V30 END BOND
M  V30 END CTAB
M  END
>  <Dataset>  (466) 
ChEMBL_Kinases

>  <Ligand_Instance>  (466) 
nan

>  <PDB_ID>  (466) 
nan

>  <Standardized_SMILES>  (466) 
O=C(NCC#Cc1ccc2ncc(C(=O)N3CCNCC3)cc2c1)c1cncn(Cc2ccc(F)c(F)c2)c1=O

>  <Name>  (466) 
nan

>  <Pocket>  (466) 
nan

>  <ATP_Site>  (466) 
nan

>  <Peripheral>  (466) 
nan

>  <Num_H_Atoms_ProtBoundConf>  (466) 
nan

>  <Num_Resolved_Atoms>  (466) 
nan

>  <Num_Not_Resolved_Atoms>  (466) 
nan

$$$$
CHEMBL3640517
     RDKit          3D

  0  0  0  0  0  0  0  0  0  0999 V3000
M  V30 BEGIN CTAB
M  V30 COUNTS 67 71 0 0 0
M  V30 BEGIN ATOM
M  V30 1 C 2.598719 -2.110475 5.756249 0
M  V30 2 N 2.294281 -1.996177 4.351203 0
M  V30 3 C 1.419072 -0.880518 4.069320 0
M  V30 4 C 2.156060 0.449188 4.243673 0
M  V30 5 N 3.397102 0.461525 3.524172 0
M  V30 6 C 3.794507 1.479409 2.609227 0
M  V30 7 O 4.922334 1.414734 2.017029 0
M  V30 8 C 2.930626 2.620389 2.319016 0
M  V30 9 C 3.049442 3.952939 2.642425 0
M  V30 10 N 2.130902 4.862069 2.272280 0
M  V30 11 C 1.028569 4.550391 1.560885 0
M  V30 12 C 0.091212 5.482723 1.180583 0
M  V30 13 C -1.029888 5.147822 0.450106 0
M  V30 14 C -1.174712 3.820803 0.111355 0
M  V30 15 C -2.274220 3.291215 -0.651586 0
M  V30 16 C -3.192749 2.837835 -1.313539 0
M  V30 17 C -4.294679 2.277863 -2.138510 0
M  V30 18 N -3.727553 1.286575 -3.081351 0
M  V30 19 C -3.096951 0.242514 -2.460559 0
M  V30 20 O -2.974335 0.073337 -1.202265 0
M  V30 21 C -2.394019 -0.940037 -2.379739 0
M  V30 22 C -2.403716 -1.012043 -3.886158 0
M  V30 23 N -1.880787 -1.946678 -4.777318 0
M  V30 24 C -1.220386 -3.030758 -4.260067 0
M  V30 25 N -1.151318 -3.069494 -2.922527 0
M  V30 26 C -0.521035 -4.072603 -2.095242 0
M  V30 27 C -1.455168 -5.174499 -1.745738 0
M  V30 28 C -2.300647 -5.273066 -0.663599 0
M  V30 29 C -3.103663 -6.390453 -0.496605 0
M  V30 30 C -3.094717 -7.457353 -1.404237 0
M  V30 31 F -3.895759 -8.531179 -1.203195 0
M  V30 32 C -2.246666 -7.351778 -2.483465 0
M  V30 33 F -2.216777 -8.372653 -3.381471 0
M  V30 34 C -1.442135 -6.230865 -2.651061 0
M  V30 35 C -1.721637 -2.071201 -2.302577 0
M  V30 36 O -1.753967 -1.941396 -0.991019 0
M  V30 37 C -0.235995 2.871212 0.489267 0
M  V30 38 C 0.886291 3.202912 1.220234 0
M  V30 39 C 1.804271 2.228466 1.578019 0
M  V30 40 C 4.267396 -0.655134 3.767823 0
M  V30 41 C 3.457987 -1.919734 3.524198 0
M  V30 42 H 3.344454 -1.388454 6.104935 0
M  V30 43 H 2.965136 -3.132481 5.996637 0
M  V30 44 H 1.657665 -1.934318 6.329783 0
M  V30 45 H 1.055120 -0.962324 3.032597 0
M  V30 46 H 0.572191 -0.930469 4.760758 0
M  V30 47 H 2.304909 0.528004 5.357261 0
M  V30 48 H 1.511169 1.267397 3.912727 0
M  V30 49 H 3.941089 4.149903 3.206042 0
M  V30 50 H 0.215232 6.520015 1.452390 0
M  V30 51 H -1.798359 5.831848 0.121346 0
M  V30 52 H -4.665692 3.107037 -2.731317 0
M  V30 53 H -5.062795 1.792466 -1.510304 0
M  V30 54 H -3.625928 1.082605 -4.092883 0
M  V30 55 H -2.768014 -0.452332 -4.827554 0
M  V30 56 H -0.717819 -3.902916 -4.632957 0
M  V30 57 H -0.192305 -3.631436 -1.132397 0
M  V30 58 H 0.373957 -4.479925 -2.627591 0
M  V30 59 H -2.277007 -4.432445 0.005020 0
M  V30 60 H -3.749668 -6.395736 0.383275 0
M  V30 61 H -0.810886 -6.249392 -3.532697 0
M  V30 62 H -0.333103 1.824689 0.232578 0
M  V30 63 H 1.607061 1.190965 1.260583 0
M  V30 64 H 5.102786 -0.702349 3.021228 0
M  V30 65 H 4.732738 -0.633974 4.766594 0
M  V30 66 H 4.095719 -2.823522 3.585434 0
M  V30 67 H 3.107819 -1.868900 2.468054 0
M  V30 END ATOM
M  V30 BEGIN BOND
M  V30 1 1 1 2
M  V30 2 1 2 3
M  V30 3 1 3 4
M  V30 4 1 4 5
M  V30 5 1 5 6
M  V30 6 2 6 7
M  V30 7 1 6 8
M  V30 8 2 8 9
M  V30 9 1 9 10
M  V30 10 2 10 11
M  V30 11 1 11 12
M  V30 12 2 12 13
M  V30 13 1 13 14
M  V30 14 1 14 15
M  V30 15 3 15 16
M  V30 16 1 16 17
M  V30 17 1 17 18
M  V30 18 1 18 19
M  V30 19 2 19 20
M  V30 20 1 19 21
M  V30 21 2 21 22
M  V30 22 1 22 23
M  V30 23 2 23 24
M  V30 24 1 24 25
M  V30 25 1 25 26
M  V30 26 1 26 27
M  V30 27 2 27 28
M  V30 28 1 28 29
M  V30 29 2 29 30
M  V30 30 1 30 31
M  V30 31 1 30 32
M  V30 32 1 32 33
M  V30 33 2 32 34
M  V30 34 1 25 35
M  V30 35 2 35 36
M  V30 36 2 14 37
M  V30 37 1 37 38
M  V30 38 2 38 39
M  V30 39 1 5 40
M  V30 40 1 40 41
M  V30 41 1 41 2
M  V30 42 1 39 8
M  V30 43 1 38 11
M  V30 44 1 35 21
M  V30 45 1 34 27
M  V30 46 1 1 42
M  V30 47 1 1 43
M  V30 48 1 1 44
M  V30 49 1 3 45
M  V30 50 1 3 46
M  V30 51 1 4 47
M  V30 52 1 4 48
M  V30 53 1 9 49
M  V30 54 1 12 50
M  V30 55 1 13 51
M  V30 56 1 17 52
M  V30 57 1 17 53
M  V30 58 1 18 54
M  V30 59 1 22 55
M  V30 60 1 24 56
M  V30 61 1 26 57
M  V30 62 1 26 58
M  V30 63 1 28 59
M  V30 64 1 29 60
M  V30 65 1 34 61
M  V30 66 1 37 62
M  V30 67 1 39 63
M  V30 68 1 40 64
M  V30 69 1 40 65
M  V30 70 1 41 66
M  V30 71 1 41 67
M  V30 END BOND
M  V30 END CTAB
M  END
>  <Dataset>  (467) 
ChEMBL_Kinases

>  <Ligand_Instance>  (467) 
nan

>  <PDB_ID>  (467) 
nan

>  <Standardized_SMILES>  (467) 
CN1CCN(C(=O)c2cnc3ccc(C#CCNC(=O)c4cncn(Cc5ccc(F)c(F)c5)c4=O)cc3c2)CC1

>  <Name>  (467) 
nan

>  <Pocket>  (467) 
nan

>  <ATP_Site>  (467) 
nan

>  <Peripheral>  (467) 
nan

>  <Num_H_Atoms_ProtBoundConf>  (467) 
nan

>  <Num_Resolved_Atoms>  (467) 
nan

>  <Num_Not_Resolved_Atoms>  (467) 
nan

$$$$
CHEMBL3640518
     RDKit          3D

  0  0  0  0  0  0  0  0  0  0999 V3000
M  V30 BEGIN CTAB
M  V30 COUNTS 74 78 0 0 0
M  V30 BEGIN ATOM
M  V30 1 C 0.541960 -6.506272 0.917470 0
M  V30 2 O 1.081547 -6.703187 -0.325468 0
M  V30 3 C 1.143822 -5.449361 -0.969111 0
M  V30 4 C 1.768697 -5.609840 -2.337377 0
M  V30 5 N 1.826381 -4.357328 -2.997593 0
M  V30 6 C 2.317630 -4.488830 -4.379819 0
M  V30 7 C 2.646485 -3.140477 -4.949122 0
M  V30 8 N 1.862826 -2.118843 -4.245191 0
M  V30 9 C 0.977663 -1.267208 -4.975716 0
M  V30 10 O 1.011096 -1.577668 -6.183670 0
M  V30 11 C 0.213595 -0.232427 -4.299921 0
M  V30 12 C 0.711148 0.966710 -4.759011 0
M  V30 13 N 0.235902 2.187410 -4.341301 0
M  V30 14 C -0.784489 2.181117 -3.419411 0
M  V30 15 C -1.269000 3.419613 -2.972187 0
M  V30 16 C -2.293822 3.450851 -2.019492 0
M  V30 17 C -2.737221 2.195453 -1.604045 0
M  V30 18 C -3.756764 2.211740 -0.573064 0
M  V30 19 C -4.606712 2.215171 0.314195 0
M  V30 20 C -5.594838 2.214067 1.383624 0
M  V30 21 N -4.955438 2.213486 2.669762 0
M  V30 22 C -4.557358 2.207955 3.964257 0
M  V30 23 O -5.631950 2.178089 4.666147 0
M  V30 24 C -3.320577 2.231881 4.622018 0
M  V30 25 C -3.304683 2.341210 6.052429 0
M  V30 26 N -2.104908 2.415742 6.734261 0
M  V30 27 C -0.903685 2.383980 6.064686 0
M  V30 28 N -0.776446 2.274058 4.636226 0
M  V30 29 C 0.513893 2.221133 4.097091 0
M  V30 30 C 1.125462 0.839491 4.128457 0
M  V30 31 C 0.912926 -0.146949 3.161479 0
M  V30 32 C 1.557925 -1.340335 3.366082 0
M  V30 33 C 2.390224 -1.661830 4.422660 0
M  V30 34 F 2.993088 -2.869624 4.570300 0
M  V30 35 C 2.597873 -0.668384 5.386835 0
M  V30 36 F 3.415185 -0.930518 6.442314 0
M  V30 37 C 1.954560 0.519211 5.183423 0
M  V30 38 C -2.000543 2.255149 4.647424 0
M  V30 39 O -1.930129 2.148976 3.249467 0
M  V30 40 C -2.294889 0.959122 -2.017587 0
M  V30 41 C -1.285777 0.989553 -2.955242 0
M  V30 42 C -0.811318 -0.250618 -3.373817 0
M  V30 43 C 1.996182 -2.000330 -2.785998 0
M  V30 44 C 2.614782 -3.334744 -2.331622 0
M  V30 45 H -0.472051 -6.092089 0.940915 0
M  V30 46 H 0.568109 -7.496663 1.436097 0
M  V30 47 H 1.154476 -5.817645 1.565901 0
M  V30 48 H 0.146941 -5.023422 -0.990964 0
M  V30 49 H 1.747926 -4.808449 -0.291881 0
M  V30 50 H 1.287176 -6.405429 -2.928765 0
M  V30 51 H 2.854047 -5.892162 -2.105943 0
M  V30 52 H 3.189231 -5.126818 -4.364313 0
M  V30 53 H 1.510439 -4.957432 -4.956294 0
M  V30 54 H 2.357180 -3.123592 -6.010546 0
M  V30 55 H 3.731405 -2.909986 -4.884350 0
M  V30 56 H 1.512840 1.192025 -5.483797 0
M  V30 57 H -0.874951 4.353531 -3.335087 0
M  V30 58 H -2.717172 4.357058 -1.622320 0
M  V30 59 H -6.322493 1.399402 1.264722 0
M  V30 60 H -6.238807 3.152776 1.314384 0
M  V30 61 H -3.950978 2.255731 2.281846 0
M  V30 62 H -4.261416 2.373273 6.642009 0
M  V30 63 H -0.056777 2.464665 6.816564 0
M  V30 64 H 1.213241 2.967979 4.544588 0
M  V30 65 H 0.438117 2.536281 3.008400 0
M  V30 66 H 0.271326 0.093135 2.351702 0
M  V30 67 H 1.412382 -2.150418 2.632645 0
M  V30 68 H 2.137100 1.285385 5.954047 0
M  V30 69 H -2.722598 0.041790 -1.631463 0
M  V30 70 H -1.120452 -1.217876 -3.085515 0
M  V30 71 H 2.708117 -1.215941 -2.484132 0
M  V30 72 H 1.031589 -1.886999 -2.295389 0
M  V30 73 H 3.668246 -3.375366 -2.701725 0
M  V30 74 H 2.543714 -3.354343 -1.254716 0
M  V30 END ATOM
M  V30 BEGIN BOND
M  V30 1 1 1 2
M  V30 2 1 2 3
M  V30 3 1 3 4
M  V30 4 1 4 5
M  V30 5 1 5 6
M  V30 6 1 6 7
M  V30 7 1 7 8
M  V30 8 1 8 9
M  V30 9 2 9 10
M  V30 10 1 9 11
M  V30 11 2 11 12
M  V30 12 1 12 13
M  V30 13 2 13 14
M  V30 14 1 14 15
M  V30 15 2 15 16
M  V30 16 1 16 17
M  V30 17 1 17 18
M  V30 18 3 18 19
M  V30 19 1 19 20
M  V30 20 1 20 21
M  V30 21 1 21 22
M  V30 22 2 22 23
M  V30 23 1 22 24
M  V30 24 2 24 25
M  V30 25 1 25 26
M  V30 26 2 26 27
M  V30 27 1 27 28
M  V30 28 1 28 29
M  V30 29 1 29 30
M  V30 30 2 30 31
M  V30 31 1 31 32
M  V30 32 2 32 33
M  V30 33 1 33 34
M  V30 34 1 33 35
M  V30 35 1 35 36
M  V30 36 2 35 37
M  V30 37 1 28 38
M  V30 38 2 38 39
M  V30 39 2 17 40
M  V30 40 1 40 41
M  V30 41 2 41 42
M  V30 42 1 8 43
M  V30 43 1 43 44
M  V30 44 1 44 5
M  V30 45 1 42 11
M  V30 46 1 41 14
M  V30 47 1 38 24
M  V30 48 1 37 30
M  V30 49 1 1 45
M  V30 50 1 1 46
M  V30 51 1 1 47
M  V30 52 1 3 48
M  V30 53 1 3 49
M  V30 54 1 4 50
M  V30 55 1 4 51
M  V30 56 1 6 52
M  V30 57 1 6 53
M  V30 58 1 7 54
M  V30 59 1 7 55
M  V30 60 1 12 56
M  V30 61 1 15 57
M  V30 62 1 16 58
M  V30 63 1 20 59
M  V30 64 1 20 60
M  V30 65 1 21 61
M  V30 66 1 25 62
M  V30 67 1 27 63
M  V30 68 1 29 64
M  V30 69 1 29 65
M  V30 70 1 31 66
M  V30 71 1 32 67
M  V30 72 1 37 68
M  V30 73 1 40 69
M  V30 74 1 42 70
M  V30 75 1 43 71
M  V30 76 1 43 72
M  V30 77 1 44 73
M  V30 78 1 44 74
M  V30 END BOND
M  V30 END CTAB
M  END
>  <Dataset>  (468) 
ChEMBL_Kinases

>  <Ligand_Instance>  (468) 
nan

>  <PDB_ID>  (468) 
nan

>  <Standardized_SMILES>  (468) 
COCCN1CCN(C(=O)c2cnc3ccc(C#CCNC(=O)c4cncn(Cc5ccc(F)c(F)c5)c4=O)cc3c2)CC1

>  <Name>  (468) 
nan

>  <Pocket>  (468) 
nan

>  <ATP_Site>  (468) 
nan

>  <Peripheral>  (468) 
nan

>  <Num_H_Atoms_ProtBoundConf>  (468) 
nan

>  <Num_Resolved_Atoms>  (468) 
nan

>  <Num_Not_Resolved_Atoms>  (468) 
nan

$$$$
CHEMBL3640519
     RDKit          3D

  0  0  0  0  0  0  0  0  0  0999 V3000
M  V30 BEGIN CTAB
M  V30 COUNTS 58 61 0 0 0
M  V30 BEGIN ATOM
M  V30 1 C 5.094102 0.483160 4.095930 0
M  V30 2 N 5.694018 -0.720288 3.548015 0
M  V30 3 C 6.113990 -1.844370 4.383522 0
M  V30 4 C 5.903971 -0.861623 2.148265 0
M  V30 5 O 6.413603 -1.859053 1.576473 0
M  V30 6 C 5.540573 0.166744 1.184051 0
M  V30 7 C 6.386435 0.926993 0.403472 0
M  V30 8 N 5.909502 1.847062 -0.450318 0
M  V30 9 C 4.593973 2.101687 -0.614961 0
M  V30 10 C 4.111952 3.048374 -1.494783 0
M  V30 11 C 2.749571 3.275759 -1.631327 0
M  V30 12 C 1.887499 2.525043 -0.858701 0
M  V30 13 C 0.454790 2.661869 -0.908650 0
M  V30 14 C -0.749684 2.763983 -0.933949 0
M  V30 15 C -2.230450 2.877827 -0.942322 0
M  V30 16 N -2.786161 1.546914 -1.091689 0
M  V30 17 C -4.170891 1.283235 -1.141879 0
M  V30 18 O -4.827799 2.358767 -1.040176 0
M  V30 19 C -4.848628 0.008842 -1.286159 0
M  V30 20 C -6.237259 0.023559 -1.311635 0
M  V30 21 N -6.938211 -1.115334 -1.444717 0
M  V30 22 C -6.339621 -2.313237 -1.558924 0
M  V30 23 N -4.987231 -2.391337 -1.540833 0
M  V30 24 C -4.327334 -3.655583 -1.660998 0
M  V30 25 C -4.070146 -4.346978 -0.382918 0
M  V30 26 C -2.893245 -4.156957 0.307324 0
M  V30 27 C -2.604719 -4.781573 1.510635 0
M  V30 28 C -3.530502 -5.641801 2.062808 0
M  V30 29 F -3.274644 -6.270017 3.246878 0
M  V30 30 C -4.710536 -5.847786 1.394226 0
M  V30 31 F -5.598995 -6.708038 1.977625 0
M  V30 32 C -4.976858 -5.211091 0.190560 0
M  V30 33 C -4.310590 -1.249869 -1.407833 0
M  V30 34 O -3.065200 -1.328556 -1.391834 0
M  V30 35 C 2.381676 1.578223 0.021070 0
M  V30 36 C 3.740832 1.337748 0.169783 0
M  V30 37 C 4.168682 0.371564 1.070685 0
M  V30 38 H 5.388238 1.387572 3.538899 0
M  V30 39 H 5.470544 0.594340 5.135963 0
M  V30 40 H 3.986099 0.378688 4.176749 0
M  V30 41 H 6.131786 -1.535932 5.454535 0
M  V30 42 H 7.088469 -2.257209 4.100903 0
M  V30 43 H 5.335421 -2.659872 4.345649 0
M  V30 44 H 7.439491 0.718777 0.538402 0
M  V30 45 H 4.811534 3.630290 -2.095144 0
M  V30 46 H 2.326912 4.001031 -2.302277 0
M  V30 47 H -2.570503 3.580316 -1.721461 0
M  V30 48 H -2.620740 3.273920 0.026885 0
M  V30 49 H -2.142173 0.729598 -1.168734 0
M  V30 50 H -6.824985 0.937658 -1.227537 0
M  V30 51 H -6.947047 -3.202700 -1.664717 0
M  V30 52 H -3.325651 -3.438839 -2.118014 0
M  V30 53 H -4.932904 -4.325785 -2.318397 0
M  V30 54 H -2.103909 -3.505293 -0.037400 0
M  V30 55 H -1.674861 -4.627283 2.049276 0
M  V30 56 H -5.914421 -5.400179 -0.303943 0
M  V30 57 H 1.718853 0.979966 0.635721 0
M  V30 58 H 3.437992 -0.180777 1.645192 0
M  V30 END ATOM
M  V30 BEGIN BOND
M  V30 1 1 1 2
M  V30 2 1 2 3
M  V30 3 1 2 4
M  V30 4 2 4 5
M  V30 5 1 4 6
M  V30 6 2 6 7
M  V30 7 1 7 8
M  V30 8 2 8 9
M  V30 9 1 9 10
M  V30 10 2 10 11
M  V30 11 1 11 12
M  V30 12 1 12 13
M  V30 13 3 13 14
M  V30 14 1 14 15
M  V30 15 1 15 16
M  V30 16 1 16 17
M  V30 17 2 17 18
M  V30 18 1 17 19
M  V30 19 2 19 20
M  V30 20 1 20 21
M  V30 21 2 21 22
M  V30 22 1 22 23
M  V30 23 1 23 24
M  V30 24 1 24 25
M  V30 25 2 25 26
M  V30 26 1 26 27
M  V30 27 2 27 28
M  V30 28 1 28 29
M  V30 29 1 28 30
M  V30 30 1 30 31
M  V30 31 2 30 32
M  V30 32 1 23 33
M  V30 33 2 33 34
M  V30 34 2 12 35
M  V30 35 1 35 36
M  V30 36 2 36 37
M  V30 37 1 37 6
M  V30 38 1 36 9
M  V30 39 1 33 19
M  V30 40 1 32 25
M  V30 41 1 1 38
M  V30 42 1 1 39
M  V30 43 1 1 40
M  V30 44 1 3 41
M  V30 45 1 3 42
M  V30 46 1 3 43
M  V30 47 1 7 44
M  V30 48 1 10 45
M  V30 49 1 11 46
M  V30 50 1 15 47
M  V30 51 1 15 48
M  V30 52 1 16 49
M  V30 53 1 20 50
M  V30 54 1 22 51
M  V30 55 1 24 52
M  V30 56 1 24 53
M  V30 57 1 26 54
M  V30 58 1 27 55
M  V30 59 1 32 56
M  V30 60 1 35 57
M  V30 61 1 37 58
M  V30 END BOND
M  V30 END CTAB
M  END
>  <Dataset>  (469) 
ChEMBL_Kinases

>  <Ligand_Instance>  (469) 
nan

>  <PDB_ID>  (469) 
nan

>  <Standardized_SMILES>  (469) 
CN(C)C(=O)c1cnc2ccc(C#CCNC(=O)c3cncn(Cc4ccc(F)c(F)c4)c3=O)cc2c1

>  <Name>  (469) 
nan

>  <Pocket>  (469) 
nan

>  <ATP_Site>  (469) 
nan

>  <Peripheral>  (469) 
nan

>  <Num_H_Atoms_ProtBoundConf>  (469) 
nan

>  <Num_Resolved_Atoms>  (469) 
nan

>  <Num_Not_Resolved_Atoms>  (469) 
nan

$$$$
CHEMBL3640520
     RDKit          3D

  0  0  0  0  0  0  0  0  0  0999 V3000
M  V30 BEGIN CTAB
M  V30 COUNTS 67 71 0 0 0
M  V30 BEGIN ATOM
M  V30 1 C 3.241771 -2.489411 6.936307 0
M  V30 2 N 4.427902 -2.624985 6.135755 0
M  V30 3 C 4.334210 -3.444314 4.983545 0
M  V30 4 C 5.287347 -2.892453 3.948295 0
M  V30 5 C 5.522096 -1.479936 4.352590 0
M  V30 6 N 4.918712 -0.496411 3.466864 0
M  V30 7 C 5.448079 0.754189 3.055976 0
M  V30 8 O 6.599389 1.039601 3.538087 0
M  V30 9 C 4.747858 1.658249 2.160998 0
M  V30 10 C 5.287578 2.910215 2.115716 0
M  V30 11 N 4.725697 3.849972 1.311767 0
M  V30 12 C 3.629567 3.511156 0.563500 0
M  V30 13 C 3.153710 4.544371 -0.225068 0
M  V30 14 C 2.058273 4.237007 -1.006524 0
M  V30 15 C 1.510381 2.946348 -0.956930 0
M  V30 16 C 0.393289 2.824318 -1.874734 0
M  V30 17 C -0.518969 2.721180 -2.650845 0
M  V30 18 C -1.599500 2.598702 -3.603615 0
M  V30 19 N -2.050991 1.274731 -3.729884 0
M  V30 20 C -2.631160 0.535182 -2.741632 0
M  V30 21 O -2.818181 1.065112 -1.583237 0
M  V30 22 C -3.178026 -0.681884 -2.399200 0
M  V30 23 C -2.790034 -1.373760 -3.688890 0
M  V30 24 N -3.014732 -2.681525 -4.128367 0
M  V30 25 C -3.710909 -3.519733 -3.255751 0
M  V30 26 N -4.125547 -2.996320 -2.032529 0
M  V30 27 C -4.882233 -3.700441 -1.045535 0
M  V30 28 C -6.348673 -3.560246 -1.424694 0
M  V30 29 C -7.040201 -2.516852 -0.882338 0
M  V30 30 C -8.386174 -2.269177 -1.194950 0
M  V30 31 C -8.995722 -3.149384 -2.094796 0
M  V30 32 F -10.313779 -2.940560 -2.434962 0
M  V30 33 C -8.274963 -4.191537 -2.622760 0
M  V30 34 F -8.946232 -4.985951 -3.487510 0
M  V30 35 C -6.942540 -4.429519 -2.309119 0
M  V30 36 C -3.645031 -1.852432 -2.239263 0
M  V30 37 O -4.035475 -1.281863 -1.022346 0
M  V30 38 C 2.029045 1.978256 -0.154996 0
M  V30 39 C 3.122989 2.206306 0.653440 0
M  V30 40 C 3.649869 1.236416 1.443562 0
M  V30 41 C 4.964590 -1.339867 5.755213 0
M  V30 42 H 2.372945 -2.174741 6.311165 0
M  V30 43 H 3.492468 -1.666543 7.679921 0
M  V30 44 H 3.005934 -3.407212 7.510834 0
M  V30 45 H 4.682722 -4.501449 5.171709 0
M  V30 46 H 3.316387 -3.532628 4.566821 0
M  V30 47 H 6.163606 -3.517467 3.796803 0
M  V30 48 H 4.734613 -2.845443 2.962154 0
M  V30 49 H 6.597165 -1.263377 4.423026 0
M  V30 50 H 3.978517 -0.812190 3.124399 0
M  V30 51 H 6.165980 3.236507 2.695478 0
M  V30 52 H 3.621143 5.519591 -0.217051 0
M  V30 53 H 1.710058 5.070511 -1.611104 0
M  V30 54 H -1.268051 2.943002 -4.631471 0
M  V30 55 H -2.425552 3.332109 -3.371435 0
M  V30 56 H -1.985396 0.728679 -4.607600 0
M  V30 57 H -2.225916 -1.156830 -4.697036 0
M  V30 58 H -3.948284 -4.578237 -3.488835 0
M  V30 59 H -4.668042 -4.774292 -1.026472 0
M  V30 60 H -4.778221 -3.273028 -0.026173 0
M  V30 61 H -6.652619 -1.785456 -0.168929 0
M  V30 62 H -8.938755 -1.426008 -0.754676 0
M  V30 63 H -6.391145 -5.265645 -2.740150 0
M  V30 64 H 1.530762 1.014155 -0.187648 0
M  V30 65 H 3.228465 0.259331 1.476336 0
M  V30 66 H 5.722801 -1.041235 6.484669 0
M  V30 67 H 4.165896 -0.575070 5.798901 0
M  V30 END ATOM
M  V30 BEGIN BOND
M  V30 1 1 1 2
M  V30 2 1 2 3
M  V30 3 1 3 4
M  V30 4 1 4 5
M  V30 5 1 5 6
M  V30 6 1 6 7
M  V30 7 2 7 8
M  V30 8 1 7 9
M  V30 9 2 9 10
M  V30 10 1 10 11
M  V30 11 2 11 12
M  V30 12 1 12 13
M  V30 13 2 13 14
M  V30 14 1 14 15
M  V30 15 1 15 16
M  V30 16 3 16 17
M  V30 17 1 17 18
M  V30 18 1 18 19
M  V30 19 1 19 20
M  V30 20 2 20 21
M  V30 21 1 20 22
M  V30 22 2 22 23
M  V30 23 1 23 24
M  V30 24 2 24 25
M  V30 25 1 25 26
M  V30 26 1 26 27
M  V30 27 1 27 28
M  V30 28 2 28 29
M  V30 29 1 29 30
M  V30 30 2 30 31
M  V30 31 1 31 32
M  V30 32 1 31 33
M  V30 33 1 33 34
M  V30 34 2 33 35
M  V30 35 1 26 36
M  V30 36 2 36 37
M  V30 37 2 15 38
M  V30 38 1 38 39
M  V30 39 2 39 40
M  V30 40 1 5 41
M  V30 41 1 41 2
M  V30 42 1 40 9
M  V30 43 1 39 12
M  V30 44 1 36 22
M  V30 45 1 35 28
M  V30 46 1 1 42
M  V30 47 1 1 43
M  V30 48 1 1 44
M  V30 49 1 3 45
M  V30 50 1 3 46
M  V30 51 1 4 47
M  V30 52 1 4 48
M  V30 53 1 5 49
M  V30 54 1 6 50
M  V30 55 1 10 51
M  V30 56 1 13 52
M  V30 57 1 14 53
M  V30 58 1 18 54
M  V30 59 1 18 55
M  V30 60 1 19 56
M  V30 61 1 23 57
M  V30 62 1 25 58
M  V30 63 1 27 59
M  V30 64 1 27 60
M  V30 65 1 29 61
M  V30 66 1 30 62
M  V30 67 1 35 63
M  V30 68 1 38 64
M  V30 69 1 40 65
M  V30 70 1 41 66
M  V30 71 1 41 67
M  V30 END BOND
M  V30 END CTAB
M  END
>  <Dataset>  (470) 
ChEMBL_Kinases

>  <Ligand_Instance>  (470) 
nan

>  <PDB_ID>  (470) 
nan

>  <Standardized_SMILES>  (470) 
CN1CCC(NC(=O)c2cnc3ccc(C#CCNC(=O)c4cncn(Cc5ccc(F)c(F)c5)c4=O)cc3c2)C1

>  <Name>  (470) 
nan

>  <Pocket>  (470) 
nan

>  <ATP_Site>  (470) 
nan

>  <Peripheral>  (470) 
nan

>  <Num_H_Atoms_ProtBoundConf>  (470) 
nan

>  <Num_Resolved_Atoms>  (470) 
nan

>  <Num_Not_Resolved_Atoms>  (470) 
nan

$$$$
CHEMBL3640521
     RDKit          3D

  0  0  0  0  0  0  0  0  0  0999 V3000
M  V30 BEGIN CTAB
M  V30 COUNTS 56 60 0 0 0
M  V30 BEGIN ATOM
M  V30 1 O 2.791467 -2.597400 1.860420 0
M  V30 2 C 1.675410 -3.213713 1.736982 0
M  V30 3 N 0.988375 -3.151717 2.971198 0
M  V30 4 C 1.812554 -2.402771 3.934434 0
M  V30 5 C 2.071100 -1.036430 3.462806 0
M  V30 6 C 2.274492 0.095306 3.061027 0
M  V30 7 C 2.491497 1.438901 2.586480 0
M  V30 8 C 3.736498 2.028137 2.661876 0
M  V30 9 C 3.919196 3.334144 2.193597 0
M  V30 10 C 2.862871 4.063811 1.646429 0
M  V30 11 N 3.014530 5.299848 1.194419 0
M  V30 12 C 2.000505 6.006213 0.663178 0
M  V30 13 C 0.785870 5.353516 0.620820 0
M  V30 14 C 0.536286 4.051454 1.074951 0
M  V30 15 C -0.824791 3.542903 0.954776 0
M  V30 16 C -1.764768 2.910805 1.743537 0
M  V30 17 C -2.907356 2.677435 1.005524 0
M  V30 18 N -2.698595 3.153893 -0.234618 0
M  V30 19 C -1.463976 3.673530 -0.285254 0
M  V30 20 C 1.646538 3.422958 1.598632 0
M  V30 21 C 1.430743 2.139232 2.049717 0
M  V30 22 C 1.232009 -3.856218 0.507578 0
M  V30 23 C 2.146554 -3.741538 -0.549686 0
M  V30 24 N 1.897252 -4.276199 -1.755499 0
M  V30 25 C 0.762647 -4.947462 -2.013783 0
M  V30 26 N -0.124870 -5.066677 -1.011281 0
M  V30 27 C -1.369985 -5.769568 -1.195131 0
M  V30 28 C -2.485704 -4.940935 -1.655189 0
M  V30 29 C -3.396455 -4.258063 -0.875400 0
M  V30 30 C -4.405401 -3.509539 -1.451550 0
M  V30 31 C -4.557687 -3.403651 -2.818096 0
M  V30 32 F -5.572698 -2.650114 -3.304311 0
M  V30 33 C -3.652238 -4.082708 -3.621325 0
M  V30 34 F -3.784744 -3.991452 -4.968002 0
M  V30 35 C -2.648985 -4.826873 -3.024382 0
M  V30 36 C 0.080376 -4.549986 0.208527 0
M  V30 37 O -0.707328 -4.636408 1.155882 0
M  V30 38 H 0.059174 -3.607229 3.039572 0
M  V30 39 H 2.807839 -2.880373 4.063756 0
M  V30 40 H 1.347838 -2.392275 4.940747 0
M  V30 41 H 4.581088 1.497601 3.078669 0
M  V30 42 H 4.906555 3.798721 2.254378 0
M  V30 43 H 2.072448 7.015410 0.281057 0
M  V30 44 H -0.058079 5.915127 0.189114 0
M  V30 45 H -1.499982 2.699618 2.770569 0
M  V30 46 H -3.761408 2.185182 1.461203 0
M  V30 47 H -3.433479 3.086601 -0.971479 0
M  V30 48 H -1.109368 4.114490 -1.224041 0
M  V30 49 H 0.481113 1.661200 1.998906 0
M  V30 50 H 3.102239 -3.225495 -0.478666 0
M  V30 51 H 0.507000 -5.393524 -2.946972 0
M  V30 52 H -1.178909 -6.605570 -1.915531 0
M  V30 53 H -1.650877 -6.287390 -0.248634 0
M  V30 54 H -3.266590 -4.348952 0.192919 0
M  V30 55 H -5.097440 -2.990193 -0.776629 0
M  V30 56 H -1.976846 -5.331481 -3.715377 0
M  V30 END ATOM
M  V30 BEGIN BOND
M  V30 1 2 1 2
M  V30 2 1 2 3
M  V30 3 1 3 4
M  V30 4 1 4 5
M  V30 5 3 5 6
M  V30 6 1 6 7
M  V30 7 2 7 8
M  V30 8 1 8 9
M  V30 9 2 9 10
M  V30 10 1 10 11
M  V30 11 2 11 12
M  V30 12 1 12 13
M  V30 13 2 13 14
M  V30 14 1 14 15
M  V30 15 1 15 16
M  V30 16 2 16 17
M  V30 17 1 17 18
M  V30 18 1 18 19
M  V30 19 1 14 20
M  V30 20 2 20 21
M  V30 21 1 2 22
M  V30 22 2 22 23
M  V30 23 1 23 24
M  V30 24 2 24 25
M  V30 25 1 25 26
M  V30 26 1 26 27
M  V30 27 1 27 28
M  V30 28 2 28 29
M  V30 29 1 29 30
M  V30 30 2 30 31
M  V30 31 1 31 32
M  V30 32 1 31 33
M  V30 33 1 33 34
M  V30 34 2 33 35
M  V30 35 1 26 36
M  V30 36 2 36 37
M  V30 37 1 21 7
M  V30 38 1 36 22
M  V30 39 1 20 10
M  V30 40 1 35 28
M  V30 41 2 19 15
M  V30 42 1 3 38
M  V30 43 1 4 39
M  V30 44 1 4 40
M  V30 45 1 8 41
M  V30 46 1 9 42
M  V30 47 1 12 43
M  V30 48 1 13 44
M  V30 49 1 16 45
M  V30 50 1 17 46
M  V30 51 1 18 47
M  V30 52 1 19 48
M  V30 53 1 21 49
M  V30 54 1 23 50
M  V30 55 1 25 51
M  V30 56 1 27 52
M  V30 57 1 27 53
M  V30 58 1 29 54
M  V30 59 1 30 55
M  V30 60 1 35 56
M  V30 END BOND
M  V30 END CTAB
M  END
>  <Dataset>  (471) 
ChEMBL_Kinases

>  <Ligand_Instance>  (471) 
nan

>  <PDB_ID>  (471) 
nan

>  <Standardized_SMILES>  (471) 
O=C(NCC#Cc1ccc2nccc(-c3cc[nH]c3)c2c1)c1cncn(Cc2ccc(F)c(F)c2)c1=O

>  <Name>  (471) 
nan

>  <Pocket>  (471) 
nan

>  <ATP_Site>  (471) 
nan

>  <Peripheral>  (471) 
nan

>  <Num_H_Atoms_ProtBoundConf>  (471) 
nan

>  <Num_Resolved_Atoms>  (471) 
nan

>  <Num_Not_Resolved_Atoms>  (471) 
nan

$$$$
CHEMBL3640522
     RDKit          3D

  0  0  0  0  0  0  0  0  0  0999 V3000
M  V30 BEGIN CTAB
M  V30 COUNTS 55 59 0 0 0
M  V30 BEGIN ATOM
M  V30 1 O 2.996933 -2.726068 2.935163 0
M  V30 2 C 2.178503 -2.851710 1.958175 0
M  V30 3 N 1.509007 -1.630286 1.770378 0
M  V30 4 C 2.021060 -0.688087 2.781311 0
M  V30 5 C 1.365535 0.615291 2.636511 0
M  V30 6 C 0.838724 1.696581 2.531523 0
M  V30 7 C 0.220551 2.989429 2.429284 0
M  V30 8 C 1.069420 4.073371 2.384024 0
M  V30 9 C 0.550338 5.359789 2.285858 0
M  V30 10 C -0.820007 5.561642 2.233164 0
M  V30 11 N -1.335937 6.795818 2.135135 0
M  V30 12 C -2.670129 7.003428 2.079681 0
M  V30 13 C -3.469284 5.870760 2.130290 0
M  V30 14 C -3.002009 4.551160 2.232615 0
M  V30 15 C -3.998805 3.490689 2.287059 0
M  V30 16 C -4.255287 2.385368 3.074009 0
M  V30 17 N -5.356073 1.748612 2.623775 0
M  V30 18 N -5.795532 2.423076 1.579089 0
M  V30 19 C -5.005893 3.476639 1.345788 0
M  V30 20 C -1.627219 4.446202 2.281903 0
M  V30 21 C -1.147318 3.157022 2.378739 0
M  V30 22 C 2.009814 -4.084225 1.199082 0
M  V30 23 C 2.837806 -5.128015 1.642161 0
M  V30 24 N 2.810280 -6.331893 1.051350 0
M  V30 25 C 2.006443 -6.614678 0.018491 0
M  V30 26 N 1.216530 -5.612776 -0.401609 0
M  V30 27 C 0.333506 -5.872382 -1.515243 0
M  V30 28 C 1.000120 -5.561950 -2.806077 0
M  V30 29 C 1.725002 -6.554111 -3.453256 0
M  V30 30 C 2.373953 -6.353707 -4.652576 0
M  V30 31 C 2.332317 -5.133864 -5.277571 0
M  V30 32 F 2.958742 -4.921668 -6.445211 0
M  V30 33 C 1.611683 -4.116403 -4.651791 0
M  V30 34 F 1.554720 -2.904714 -5.245419 0
M  V30 35 C 0.973864 -4.348867 -3.452836 0
M  V30 36 C 1.191651 -4.398301 0.135214 0
M  V30 37 O 0.479402 -3.459013 -0.227047 0
M  V30 38 H 0.801406 -1.563698 1.006530 0
M  V30 39 H 3.104151 -0.510938 2.674521 0
M  V30 40 H 1.852304 -1.061822 3.814815 0
M  V30 41 H 2.151511 4.008369 2.420089 0
M  V30 42 H 1.198798 6.214794 2.249414 0
M  V30 43 H -3.149223 7.966664 2.000773 0
M  V30 44 H -4.557082 6.027793 2.086013 0
M  V30 45 H -3.601454 2.162053 3.909119 0
M  V30 46 H -6.650556 2.116641 1.054536 0
M  V30 47 H -5.216170 4.145874 0.523743 0
M  V30 48 H -1.779491 2.308020 2.410868 0
M  V30 49 H 3.528692 -5.023372 2.466034 0
M  V30 50 H 1.989095 -7.577132 -0.449036 0
M  V30 51 H -0.624805 -5.321366 -1.427277 0
M  V30 52 H 0.086942 -6.961684 -1.541635 0
M  V30 53 H 1.773882 -7.540755 -2.973229 0
M  V30 54 H 2.938576 -7.130409 -5.153872 0
M  V30 55 H 0.416095 -3.552128 -2.975293 0
M  V30 END ATOM
M  V30 BEGIN BOND
M  V30 1 2 1 2
M  V30 2 1 2 3
M  V30 3 1 3 4
M  V30 4 1 4 5
M  V30 5 3 5 6
M  V30 6 1 6 7
M  V30 7 2 7 8
M  V30 8 1 8 9
M  V30 9 2 9 10
M  V30 10 1 10 11
M  V30 11 2 11 12
M  V30 12 1 12 13
M  V30 13 2 13 14
M  V30 14 1 14 15
M  V30 15 1 15 16
M  V30 16 2 16 17
M  V30 17 1 17 18
M  V30 18 1 18 19
M  V30 19 1 14 20
M  V30 20 2 20 21
M  V30 21 1 2 22
M  V30 22 2 22 23
M  V30 23 1 23 24
M  V30 24 2 24 25
M  V30 25 1 25 26
M  V30 26 1 26 27
M  V30 27 1 27 28
M  V30 28 2 28 29
M  V30 29 1 29 30
M  V30 30 2 30 31
M  V30 31 1 31 32
M  V30 32 1 31 33
M  V30 33 1 33 34
M  V30 34 2 33 35
M  V30 35 1 26 36
M  V30 36 2 36 37
M  V30 37 1 21 7
M  V30 38 1 36 22
M  V30 39 1 20 10
M  V30 40 1 35 28
M  V30 41 2 19 15
M  V30 42 1 3 38
M  V30 43 1 4 39
M  V30 44 1 4 40
M  V30 45 1 8 41
M  V30 46 1 9 42
M  V30 47 1 12 43
M  V30 48 1 13 44
M  V30 49 1 16 45
M  V30 50 1 18 46
M  V30 51 1 19 47
M  V30 52 1 21 48
M  V30 53 1 23 49
M  V30 54 1 25 50
M  V30 55 1 27 51
M  V30 56 1 27 52
M  V30 57 1 29 53
M  V30 58 1 30 54
M  V30 59 1 35 55
M  V30 END BOND
M  V30 END CTAB
M  END
>  <Dataset>  (472) 
ChEMBL_Kinases

>  <Ligand_Instance>  (472) 
nan

>  <PDB_ID>  (472) 
nan

>  <Standardized_SMILES>  (472) 
O=C(NCC#Cc1ccc2nccc(-c3cn[nH]c3)c2c1)c1cncn(Cc2ccc(F)c(F)c2)c1=O

>  <Name>  (472) 
nan

>  <Pocket>  (472) 
nan

>  <ATP_Site>  (472) 
nan

>  <Peripheral>  (472) 
nan

>  <Num_H_Atoms_ProtBoundConf>  (472) 
nan

>  <Num_Resolved_Atoms>  (472) 
nan

>  <Num_Not_Resolved_Atoms>  (472) 
nan

$$$$
CHEMBL3640514
     RDKit          3D

  0  0  0  0  0  0  0  0  0  0999 V3000
M  V30 BEGIN CTAB
M  V30 COUNTS 64 68 0 0 0
M  V30 BEGIN ATOM
M  V30 1 C 5.825545 -1.252102 1.331041 0
M  V30 2 N 7.115159 -0.719132 0.940543 0
M  V30 3 C 7.480230 0.499472 1.631190 0
M  V30 4 C 7.055082 1.330788 0.442184 0
M  V30 5 N 5.690838 1.833466 0.485279 0
M  V30 6 C 5.353378 3.177010 0.164366 0
M  V30 7 O 6.251362 3.988032 -0.174173 0
M  V30 8 C 3.986985 3.684602 0.205960 0
M  V30 9 C 3.779386 5.008076 -0.120687 0
M  V30 10 N 2.514094 5.521474 -0.094186 0
M  V30 11 C 1.438765 4.782952 0.242159 0
M  V30 12 C 0.206638 5.403121 0.235756 0
M  V30 13 C -0.898817 4.629239 0.585250 0
M  V30 14 C -0.710729 3.301218 0.915597 0
M  V30 15 C -1.920856 2.566542 1.267840 0
M  V30 16 C -2.930940 1.962493 1.544699 0
M  V30 17 C -4.165618 1.241560 1.864715 0
M  V30 18 N -4.025932 -0.198712 1.653784 0
M  V30 19 C -3.702493 -0.527512 0.308309 0
M  V30 20 O -3.622658 0.551918 -0.353898 0
M  V30 21 C -3.493373 -1.837906 -0.249590 0
M  V30 22 C -3.185954 -1.839355 -1.616287 0
M  V30 23 N -2.961488 -2.972113 -2.292700 0
M  V30 24 C -3.017711 -4.172366 -1.701704 0
M  V30 25 N -3.307352 -4.203071 -0.404944 0
M  V30 26 C -3.380332 -5.476643 0.278798 0
M  V30 27 C -4.755434 -6.035147 0.226011 0
M  V30 28 C -5.740212 -5.816323 1.155971 0
M  V30 29 C -7.006561 -6.374689 1.036993 0
M  V30 30 C -7.307295 -7.186039 -0.053955 0
M  V30 31 F -8.538318 -7.739825 -0.186858 0
M  V30 32 C -6.337376 -7.411306 -0.985133 0
M  V30 33 F -6.584628 -8.199277 -2.071382 0
M  V30 34 C -5.091390 -6.854731 -0.856802 0
M  V30 35 C -3.538932 -3.094496 0.310063 0
M  V30 36 O -3.814450 -3.086295 1.533543 0
M  V30 37 C 0.521138 2.677935 0.922923 0
M  V30 38 C 1.612425 3.454976 0.574411 0
M  V30 39 C 2.889240 2.926502 0.550450 0
M  V30 40 C 7.109528 0.016419 -0.296585 0
M  V30 41 H 5.398669 -0.700790 2.196823 0
M  V30 42 H 5.118684 -1.207423 0.474283 0
M  V30 43 H 5.960379 -2.309778 1.654575 0
M  V30 44 H 6.833078 0.693536 2.531086 0
M  V30 45 H 8.570557 0.602671 1.882359 0
M  V30 46 H 7.805804 2.086832 0.131734 0
M  V30 47 H 4.939697 1.166416 0.765489 0
M  V30 48 H 4.544326 5.710036 -0.407127 0
M  V30 49 H 0.097800 6.446317 -0.028807 0
M  V30 50 H -1.875527 5.104039 0.584660 0
M  V30 51 H -4.957327 1.624276 1.195949 0
M  V30 52 H -4.380767 1.447947 2.937574 0
M  V30 53 H -4.130133 -0.978130 2.339764 0
M  V30 54 H -3.095066 -0.972220 -2.266490 0
M  V30 55 H -2.842716 -5.106455 -2.214326 0
M  V30 56 H -2.710731 -6.198058 -0.228082 0
M  V30 57 H -3.126512 -5.355056 1.353731 0
M  V30 58 H -5.512081 -5.196682 1.990892 0
M  V30 59 H -7.756931 -6.172889 1.800367 0
M  V30 60 H -4.349759 -7.061636 -1.623223 0
M  V30 61 H 0.623439 1.642766 1.186076 0
M  V30 62 H 3.034048 1.887082 0.809385 0
M  V30 63 H 6.214645 -0.171731 -0.940333 0
M  V30 64 H 8.015949 -0.127204 -0.941594 0
M  V30 END ATOM
M  V30 BEGIN BOND
M  V30 1 1 1 2
M  V30 2 1 2 3
M  V30 3 1 3 4
M  V30 4 1 4 5
M  V30 5 1 5 6
M  V30 6 2 6 7
M  V30 7 1 6 8
M  V30 8 2 8 9
M  V30 9 1 9 10
M  V30 10 2 10 11
M  V30 11 1 11 12
M  V30 12 2 12 13
M  V30 13 1 13 14
M  V30 14 1 14 15
M  V30 15 3 15 16
M  V30 16 1 16 17
M  V30 17 1 17 18
M  V30 18 1 18 19
M  V30 19 2 19 20
M  V30 20 1 19 21
M  V30 21 2 21 22
M  V30 22 1 22 23
M  V30 23 2 23 24
M  V30 24 1 24 25
M  V30 25 1 25 26
M  V30 26 1 26 27
M  V30 27 2 27 28
M  V30 28 1 28 29
M  V30 29 2 29 30
M  V30 30 1 30 31
M  V30 31 1 30 32
M  V30 32 1 32 33
M  V30 33 2 32 34
M  V30 34 1 25 35
M  V30 35 2 35 36
M  V30 36 2 14 37
M  V30 37 1 37 38
M  V30 38 2 38 39
M  V30 39 1 4 40
M  V30 40 1 40 2
M  V30 41 1 39 8
M  V30 42 1 38 11
M  V30 43 1 35 21
M  V30 44 1 34 27
M  V30 45 1 1 41
M  V30 46 1 1 42
M  V30 47 1 1 43
M  V30 48 1 3 44
M  V30 49 1 3 45
M  V30 50 1 4 46
M  V30 51 1 5 47
M  V30 52 1 9 48
M  V30 53 1 12 49
M  V30 54 1 13 50
M  V30 55 1 17 51
M  V30 56 1 17 52
M  V30 57 1 18 53
M  V30 58 1 22 54
M  V30 59 1 24 55
M  V30 60 1 26 56
M  V30 61 1 26 57
M  V30 62 1 28 58
M  V30 63 1 29 59
M  V30 64 1 34 60
M  V30 65 1 37 61
M  V30 66 1 39 62
M  V30 67 1 40 63
M  V30 68 1 40 64
M  V30 END BOND
M  V30 END CTAB
M  END
>  <Dataset>  (473) 
ChEMBL_Kinases

>  <Ligand_Instance>  (473) 
nan

>  <PDB_ID>  (473) 
nan

>  <Standardized_SMILES>  (473) 
CN1CC(NC(=O)c2cnc3ccc(C#CCNC(=O)c4cncn(Cc5ccc(F)c(F)c5)c4=O)cc3c2)C1

>  <Name>  (473) 
nan

>  <Pocket>  (473) 
nan

>  <ATP_Site>  (473) 
nan

>  <Peripheral>  (473) 
nan

>  <Num_H_Atoms_ProtBoundConf>  (473) 
nan

>  <Num_Resolved_Atoms>  (473) 
nan

>  <Num_Not_Resolved_Atoms>  (473) 
nan

$$$$
CHEMBL3640640
     RDKit          3D

  0  0  0  0  0  0  0  0  0  0999 V3000
M  V30 BEGIN CTAB
M  V30 COUNTS 53 55 0 0 0
M  V30 BEGIN ATOM
M  V30 1 C 5.341269 -5.861308 -2.346929 0
M  V30 2 C 4.737966 -5.079992 -1.650779 0
M  V30 3 C 4.012158 -4.150281 -0.816329 0
M  V30 4 C 3.797787 -4.404937 0.530051 0
M  V30 5 C 3.087246 -3.468018 1.288015 0
M  V30 6 C 2.591843 -2.286761 0.717975 0
M  V30 7 N 1.922189 -1.561705 1.731836 0
M  V30 8 C 0.575018 -1.147735 1.767930 0
M  V30 9 C 0.033510 0.093554 1.519883 0
M  V30 10 C 0.991555 1.147605 1.231769 0
M  V30 11 O 2.221740 1.068007 1.212344 0
M  V30 12 N 0.529648 2.444349 0.929331 0
M  V30 13 O 1.166180 3.596488 0.628220 0
M  V30 14 C 1.451155 4.337419 1.771403 0
M  V30 15 C 2.101547 5.663011 1.431478 0
M  V30 16 O 2.388819 6.407575 2.569129 0
M  V30 17 C -1.316991 0.298022 1.572673 0
M  V30 18 C -2.198002 -0.745341 1.881282 0
M  V30 19 C -3.664055 -0.424645 1.911978 0
M  V30 20 N -4.258630 -0.939406 0.694079 0
M  V30 21 O -4.260773 -0.067808 -0.341746 0
M  V30 22 C -4.355646 -0.721501 -1.566632 0
M  V30 23 C -3.700886 -2.084333 -1.530389 0
M  V30 24 C -4.563831 -2.999194 -0.704311 0
M  V30 25 C -4.800033 -2.266198 0.591315 0
M  V30 26 O -5.423468 -2.663293 1.627987 0
M  V30 27 C -1.678028 -1.994306 2.133957 0
M  V30 28 F -2.514606 -3.004167 2.433225 0
M  V30 29 C -0.303622 -2.191555 2.077297 0
M  V30 30 F 0.112671 -3.473921 2.345373 0
M  V30 31 C 2.827313 -2.074090 -0.622168 0
M  V30 32 F 2.298750 -0.915330 -1.046547 0
M  V30 33 C 3.526165 -2.988985 -1.380606 0
M  V30 34 H 5.879638 -6.569408 -2.952998 0
M  V30 35 H 4.208717 -5.326378 0.880841 0
M  V30 36 H 3.013070 -3.826594 2.315543 0
M  V30 37 H 2.442031 -1.260509 2.603123 0
M  V30 38 H -0.454648 2.753739 0.884168 0
M  V30 39 H 0.499859 4.494995 2.316512 0
M  V30 40 H 2.166093 3.719891 2.356562 0
M  V30 41 H 3.064625 5.456269 0.918127 0
M  V30 42 H 1.484421 6.259116 0.735451 0
M  V30 43 H 1.925970 6.083502 3.372716 0
M  V30 44 H -1.740080 1.272239 1.377230 0
M  V30 45 H -3.838367 0.645196 2.063422 0
M  V30 46 H -4.104330 -0.996426 2.753307 0
M  V30 47 H -5.396209 -0.856816 -1.903061 0
M  V30 48 H -3.816245 -0.106156 -2.312058 0
M  V30 49 H -3.765055 -2.460863 -2.588544 0
M  V30 50 H -2.654859 -2.037356 -1.201191 0
M  V30 51 H -5.537540 -3.095929 -1.231801 0
M  V30 52 H -4.118414 -3.981348 -0.498242 0
M  V30 53 H 3.651435 -2.722366 -2.413595 0
M  V30 END ATOM
M  V30 BEGIN BOND
M  V30 1 3 1 2
M  V30 2 1 2 3
M  V30 3 2 3 4
M  V30 4 1 4 5
M  V30 5 2 5 6
M  V30 6 1 6 7
M  V30 7 1 7 8
M  V30 8 2 8 9
M  V30 9 1 9 10
M  V30 10 2 10 11
M  V30 11 1 10 12
M  V30 12 1 12 13
M  V30 13 1 13 14
M  V30 14 1 14 15
M  V30 15 1 15 16
M  V30 16 1 9 17
M  V30 17 2 17 18
M  V30 18 1 18 19
M  V30 19 1 19 20
M  V30 20 1 20 21
M  V30 21 1 21 22
M  V30 22 1 22 23
M  V30 23 1 23 24
M  V30 24 1 24 25
M  V30 25 2 25 26
M  V30 26 1 18 27
M  V30 27 1 27 28
M  V30 28 2 27 29
M  V30 29 1 29 30
M  V30 30 1 6 31
M  V30 31 1 31 32
M  V30 32 2 31 33
M  V30 33 1 33 3
M  V30 34 1 29 8
M  V30 35 1 25 20
M  V30 36 1 1 34
M  V30 37 1 4 35
M  V30 38 1 5 36
M  V30 39 1 7 37
M  V30 40 1 12 38
M  V30 41 1 14 39
M  V30 42 1 14 40
M  V30 43 1 15 41
M  V30 44 1 15 42
M  V30 45 1 16 43
M  V30 46 1 17 44
M  V30 47 1 19 45
M  V30 48 1 19 46
M  V30 49 1 22 47
M  V30 50 1 22 48
M  V30 51 1 23 49
M  V30 52 1 23 50
M  V30 53 1 24 51
M  V30 54 1 24 52
M  V30 55 1 33 53
M  V30 END BOND
M  V30 END CTAB
M  END
>  <Dataset>  (474) 
ChEMBL_Kinases

>  <Ligand_Instance>  (474) 
nan

>  <PDB_ID>  (474) 
nan

>  <Standardized_SMILES>  (474) 
C#Cc1ccc(Nc2c(C(=O)NOCCO)cc(CN3OCCCC3=O)c(F)c2F)c(F)c1

>  <Name>  (474) 
nan

>  <Pocket>  (474) 
nan

>  <ATP_Site>  (474) 
nan

>  <Peripheral>  (474) 
nan

>  <Num_H_Atoms_ProtBoundConf>  (474) 
nan

>  <Num_Resolved_Atoms>  (474) 
nan

>  <Num_Not_Resolved_Atoms>  (474) 
nan

$$$$
CHEMBL3640639
     RDKit          3D

  0  0  0  0  0  0  0  0  0  0999 V3000
M  V30 BEGIN CTAB
M  V30 COUNTS 54 56 0 0 0
M  V30 BEGIN ATOM
M  V30 1 C 2.162381 -3.744622 3.329329 0
M  V30 2 C 3.473026 -3.434475 2.638486 0
M  V30 3 C 4.627045 -3.430483 3.594305 0
M  V30 4 C 3.701291 -4.350563 1.468417 0
M  V30 5 O 3.474532 -3.679919 0.300791 0
M  V30 6 N 3.338184 -2.381306 0.544335 0
M  V30 7 C 3.257339 -1.380243 -0.502069 0
M  V30 8 C 1.845231 -1.128500 -0.938839 0
M  V30 9 C 1.218246 0.012989 -0.508829 0
M  V30 10 C -0.072242 0.229115 -0.913461 0
M  V30 11 C -0.793010 1.416526 -0.502442 0
M  V30 12 O -1.939321 1.859805 -0.721738 0
M  V30 13 N -0.155756 2.361554 0.339255 0
M  V30 14 O -0.636933 3.521296 0.835612 0
M  V30 15 C -1.256128 3.321284 2.058924 0
M  V30 16 C -1.769759 4.603637 2.672453 0
M  V30 17 O -2.701435 5.214785 1.841736 0
M  V30 18 C -0.767539 -0.633932 -1.723104 0
M  V30 19 N -2.066079 -0.571958 -2.232882 0
M  V30 20 C -3.407900 -0.846600 -1.875299 0
M  V30 21 C -4.372566 0.141360 -1.901223 0
M  V30 22 C -5.685613 -0.039414 -1.560051 0
M  V30 23 C -6.056820 -1.289647 -1.167757 0
M  V30 24 I -8.072723 -1.623726 -0.629252 0
M  V30 25 C -5.172143 -2.354688 -1.104893 0
M  V30 26 C -3.879546 -2.073141 -1.466275 0
M  V30 27 F -3.040506 -3.123568 -1.391148 0
M  V30 28 C -0.109565 -1.784734 -2.146542 0
M  V30 29 F -0.565115 -2.787287 -2.957776 0
M  V30 30 C 1.208644 -2.061491 -1.767149 0
M  V30 31 F 1.932926 -3.139649 -2.118419 0
M  V30 32 C 3.285594 -2.134289 1.945036 0
M  V30 33 O 3.114558 -1.035894 2.506777 0
M  V30 34 H 2.123643 -3.171701 4.289019 0
M  V30 35 H 1.295873 -3.450883 2.710299 0
M  V30 36 H 2.072148 -4.835065 3.509494 0
M  V30 37 H 4.639724 -4.401811 4.105561 0
M  V30 38 H 4.481142 -2.649890 4.336394 0
M  V30 39 H 5.562393 -3.338142 3.012417 0
M  V30 40 H 4.796514 -4.625402 1.493357 0
M  V30 41 H 3.132394 -5.298916 1.554278 0
M  V30 42 H 3.846255 -1.711167 -1.397042 0
M  V30 43 H 3.701579 -0.433317 -0.181375 0
M  V30 44 H 1.773534 0.679317 0.124035 0
M  V30 45 H 0.815714 2.321244 0.727583 0
M  V30 46 H -2.156870 2.677395 1.917169 0
M  V30 47 H -0.542958 2.841111 2.742847 0
M  V30 48 H -2.294466 4.344613 3.604191 0
M  V30 49 H -0.918272 5.298367 2.917702 0
M  V30 50 H -2.495777 6.191195 1.801003 0
M  V30 51 H -2.030260 -0.194133 -3.209919 0
M  V30 52 H -4.118326 1.155896 -2.211743 0
M  V30 53 H -6.406353 0.761784 -1.595082 0
M  V30 54 H -5.504967 -3.336169 -0.787798 0
M  V30 END ATOM
M  V30 BEGIN BOND
M  V30 1 1 1 2
M  V30 2 1 2 3
M  V30 3 1 2 4
M  V30 4 1 4 5
M  V30 5 1 5 6
M  V30 6 1 6 7
M  V30 7 1 7 8
M  V30 8 2 8 9
M  V30 9 1 9 10
M  V30 10 1 10 11
M  V30 11 2 11 12
M  V30 12 1 11 13
M  V30 13 1 13 14
M  V30 14 1 14 15
M  V30 15 1 15 16
M  V30 16 1 16 17
M  V30 17 2 10 18
M  V30 18 1 18 19
M  V30 19 1 19 20
M  V30 20 2 20 21
M  V30 21 1 21 22
M  V30 22 2 22 23
M  V30 23 1 23 24
M  V30 24 1 23 25
M  V30 25 2 25 26
M  V30 26 1 26 27
M  V30 27 1 18 28
M  V30 28 1 28 29
M  V30 29 2 28 30
M  V30 30 1 30 31
M  V30 31 1 6 32
M  V30 32 2 32 33
M  V30 33 1 32 2
M  V30 34 1 30 8
M  V30 35 1 26 20
M  V30 36 1 1 34
M  V30 37 1 1 35
M  V30 38 1 1 36
M  V30 39 1 3 37
M  V30 40 1 3 38
M  V30 41 1 3 39
M  V30 42 1 4 40
M  V30 43 1 4 41
M  V30 44 1 7 42
M  V30 45 1 7 43
M  V30 46 1 9 44
M  V30 47 1 13 45
M  V30 48 1 15 46
M  V30 49 1 15 47
M  V30 50 1 16 48
M  V30 51 1 16 49
M  V30 52 1 17 50
M  V30 53 1 19 51
M  V30 54 1 21 52
M  V30 55 1 22 53
M  V30 56 1 25 54
M  V30 END BOND
M  V30 END CTAB
M  END
>  <Dataset>  (475) 
ChEMBL_Kinases

>  <Ligand_Instance>  (475) 
nan

>  <PDB_ID>  (475) 
nan

>  <Standardized_SMILES>  (475) 
CC1(C)CON(Cc2cc(C(=O)NOCCO)c(Nc3ccc(I)cc3F)c(F)c2F)C1=O

>  <Name>  (475) 
nan

>  <Pocket>  (475) 
nan

>  <ATP_Site>  (475) 
nan

>  <Peripheral>  (475) 
nan

>  <Num_H_Atoms_ProtBoundConf>  (475) 
nan

>  <Num_Resolved_Atoms>  (475) 
nan

>  <Num_Not_Resolved_Atoms>  (475) 
nan

$$$$
CHEMBL3640638
     RDKit          3D

  0  0  0  0  0  0  0  0  0  0999 V3000
M  V30 BEGIN CTAB
M  V30 COUNTS 58 59 0 0 0
M  V30 BEGIN ATOM
M  V30 1 C 5.133460 -2.042512 7.175243 0
M  V30 2 C 4.656593 -1.850048 6.085669 0
M  V30 3 C 4.074782 -1.639771 4.790464 0
M  V30 4 C 4.097083 -2.563041 3.767019 0
M  V30 5 C 3.499700 -2.261194 2.541049 0
M  V30 6 C 2.868595 -1.030192 2.315299 0
M  V30 7 N 2.362606 -1.038550 0.988411 0
M  V30 8 C 0.983531 -0.862649 0.689881 0
M  V30 9 C 0.343787 0.261327 0.213225 0
M  V30 10 C 1.203525 1.397168 -0.082768 0
M  V30 11 O 2.451808 1.352158 0.044529 0
M  V30 12 N 0.773476 2.675525 -0.541959 0
M  V30 13 O 1.892224 3.450291 -0.696828 0
M  V30 14 C 2.138020 4.102450 0.494822 0
M  V30 15 C 3.405185 4.957832 0.383084 0
M  V30 16 O 3.216288 5.893820 -0.630118 0
M  V30 17 C -1.018394 0.263420 0.014144 0
M  V30 18 C -1.814966 -0.861173 0.280585 0
M  V30 19 C -3.254428 -0.658132 -0.011569 0
M  V30 20 N -3.537196 -1.275555 -1.299528 0
M  V30 21 O -3.315310 -0.361584 -2.249659 0
M  V30 22 C -3.506931 -0.713271 -3.544625 0
M  V30 23 C -3.961966 -2.621447 -1.439840 0
M  V30 24 O -4.150205 -2.902198 -2.638100 0
M  V30 25 C -4.394924 -4.008340 -1.528473 0
M  V30 26 C -4.718567 -4.429613 -2.939572 0
M  V30 27 C -3.308035 -4.976561 -1.053972 0
M  V30 28 C -1.153961 -1.967454 0.753427 0
M  V30 29 F -1.952172 -3.015980 1.006539 0
M  V30 30 C 0.208827 -1.972285 0.953917 0
M  V30 31 F 0.714889 -3.142381 1.425386 0
M  V30 32 C 2.860269 -0.126388 3.353616 0
M  V30 33 F 2.218474 1.013246 3.014557 0
M  V30 34 C 3.451833 -0.435404 4.555352 0
M  V30 35 H 5.566068 -2.216876 8.126769 0
M  V30 36 H 4.598547 -3.488444 4.007820 0
M  V30 37 H 3.620113 -3.116372 1.856363 0
M  V30 38 H 3.018696 -1.179487 0.172078 0
M  V30 39 H -0.271462 2.816146 -0.681668 0
M  V30 40 H 1.275763 4.739261 0.799067 0
M  V30 41 H 2.289241 3.407214 1.355625 0
M  V30 42 H 3.567361 5.457700 1.366183 0
M  V30 43 H 4.225227 4.237175 0.152248 0
M  V30 44 H 2.280954 6.017370 -0.890902 0
M  V30 45 H -1.435601 1.187095 -0.360735 0
M  V30 46 H -3.796061 -1.253908 0.790210 0
M  V30 47 H -3.557125 0.383751 0.010407 0
M  V30 48 H -4.544423 -0.986672 -3.827783 0
M  V30 49 H -2.792877 -1.509095 -3.851689 0
M  V30 50 H -3.263300 0.182384 -4.206265 0
M  V30 51 H -5.266062 -4.237164 -0.866053 0
M  V30 52 H -5.012347 -5.524077 -2.875489 0
M  V30 53 H -5.565211 -3.838412 -3.339721 0
M  V30 54 H -3.815424 -4.444685 -3.578777 0
M  V30 55 H -3.372821 -5.101353 0.058303 0
M  V30 56 H -2.305005 -4.605213 -1.268477 0
M  V30 57 H -3.522943 -5.962393 -1.513816 0
M  V30 58 H 3.355401 0.386689 5.264362 0
M  V30 END ATOM
M  V30 BEGIN BOND
M  V30 1 3 1 2
M  V30 2 1 2 3
M  V30 3 2 3 4
M  V30 4 1 4 5
M  V30 5 2 5 6
M  V30 6 1 6 7
M  V30 7 1 7 8
M  V30 8 2 8 9
M  V30 9 1 9 10
M  V30 10 2 10 11
M  V30 11 1 10 12
M  V30 12 1 12 13
M  V30 13 1 13 14
M  V30 14 1 14 15
M  V30 15 1 15 16
M  V30 16 1 9 17
M  V30 17 2 17 18
M  V30 18 1 18 19
M  V30 19 1 19 20
M  V30 20 1 20 21
M  V30 21 1 21 22
M  V30 22 1 20 23
M  V30 23 2 23 24
M  V30 24 1 23 25
M  V30 25 1 25 26
M  V30 26 1 25 27
M  V30 27 1 18 28
M  V30 28 1 28 29
M  V30 29 2 28 30
M  V30 30 1 30 31
M  V30 31 1 6 32
M  V30 32 1 32 33
M  V30 33 2 32 34
M  V30 34 1 34 3
M  V30 35 1 30 8
M  V30 36 1 1 35
M  V30 37 1 4 36
M  V30 38 1 5 37
M  V30 39 1 7 38
M  V30 40 1 12 39
M  V30 41 1 14 40
M  V30 42 1 14 41
M  V30 43 1 15 42
M  V30 44 1 15 43
M  V30 45 1 16 44
M  V30 46 1 17 45
M  V30 47 1 19 46
M  V30 48 1 19 47
M  V30 49 1 22 48
M  V30 50 1 22 49
M  V30 51 1 22 50
M  V30 52 1 25 51
M  V30 53 1 26 52
M  V30 54 1 26 53
M  V30 55 1 26 54
M  V30 56 1 27 55
M  V30 57 1 27 56
M  V30 58 1 27 57
M  V30 59 1 34 58
M  V30 END BOND
M  V30 END CTAB
M  END
>  <Dataset>  (476) 
ChEMBL_Kinases

>  <Ligand_Instance>  (476) 
nan

>  <PDB_ID>  (476) 
nan

>  <Standardized_SMILES>  (476) 
C#Cc1ccc(Nc2c(C(=O)NOCCO)cc(CN(OC)C(=O)C(C)C)c(F)c2F)c(F)c1

>  <Name>  (476) 
nan

>  <Pocket>  (476) 
nan

>  <ATP_Site>  (476) 
nan

>  <Peripheral>  (476) 
nan

>  <Num_H_Atoms_ProtBoundConf>  (476) 
nan

>  <Num_Resolved_Atoms>  (476) 
nan

>  <Num_Not_Resolved_Atoms>  (476) 
nan

$$$$
CHEMBL3640637
     RDKit          3D

  0  0  0  0  0  0  0  0  0  0999 V3000
M  V30 BEGIN CTAB
M  V30 COUNTS 55 56 0 0 0
M  V30 BEGIN ATOM
M  V30 1 C 5.671810 -2.577887 5.747276 0
M  V30 2 C 5.165936 -2.226906 4.701541 0
M  V30 3 C 4.546088 -1.806435 3.475631 0
M  V30 4 C 3.228962 -2.142274 3.281729 0
M  V30 5 C 2.608849 -1.742600 2.095562 0
M  V30 6 C 3.283148 -1.018836 1.111632 0
M  V30 7 N 2.587831 -0.634210 -0.091383 0
M  V30 8 C 1.226019 -1.037879 -0.172611 0
M  V30 9 C 0.173499 -0.270910 0.279528 0
M  V30 10 C 0.518073 1.017820 0.864594 0
M  V30 11 O 1.732588 1.343988 0.908238 0
M  V30 12 N -0.375270 1.980730 1.408122 0
M  V30 13 O 0.377137 3.039877 1.845243 0
M  V30 14 C 0.701709 2.795286 3.155347 0
M  V30 15 C 1.562748 3.873974 3.765974 0
M  V30 16 O 2.750574 3.941809 3.013125 0
M  V30 17 C -1.106524 -0.765312 0.148625 0
M  V30 18 C -1.431903 -1.991507 -0.409559 0
M  V30 19 C -2.890743 -2.240834 -0.429427 0
M  V30 20 N -3.516824 -1.995631 -1.705348 0
M  V30 21 O -3.876795 -0.684249 -1.704800 0
M  V30 22 C -5.122605 -0.485520 -1.164744 0
M  V30 23 C -3.728843 -2.919614 -2.753315 0
M  V30 24 O -3.370700 -4.108253 -2.583788 0
M  V30 25 C -4.301374 -2.864159 -4.099364 0
M  V30 26 C -4.785452 -1.488051 -4.492696 0
M  V30 27 C -0.358425 -2.719564 -0.844053 0
M  V30 28 F -0.662320 -3.919342 -1.379538 0
M  V30 29 C 0.936817 -2.280073 -0.740945 0
M  V30 30 F 1.898711 -3.106152 -1.211654 0
M  V30 31 C 4.609232 -0.698615 1.342334 0
M  V30 32 F 5.222474 -0.001618 0.372283 0
M  V30 33 C 5.237469 -1.086954 2.511364 0
M  V30 34 H 6.121028 -2.886192 6.650993 0
M  V30 35 H 2.683796 -2.699545 4.022539 0
M  V30 36 H 1.574326 -2.027347 1.982862 0
M  V30 37 H 3.155819 -0.093545 -0.789856 0
M  V30 38 H -1.389757 1.735483 1.385277 0
M  V30 39 H -0.262335 2.802507 3.742918 0
M  V30 40 H 1.190745 1.811269 3.304063 0
M  V30 41 H 1.824821 3.595840 4.804506 0
M  V30 42 H 1.046816 4.852283 3.771531 0
M  V30 43 H 3.501226 4.275139 3.582029 0
M  V30 44 H -1.846733 -0.054054 0.548550 0
M  V30 45 H -3.077761 -3.355343 -0.250246 0
M  V30 46 H -3.405877 -1.769390 0.425834 0
M  V30 47 H -5.881823 -0.634363 -1.954028 0
M  V30 48 H -5.250535 0.560760 -0.814881 0
M  V30 49 H -5.352907 -1.202441 -0.340765 0
M  V30 50 H -5.170083 -3.574424 -4.200361 0
M  V30 51 H -3.572724 -3.248367 -4.859212 0
M  V30 52 H -4.656341 -1.353147 -5.605140 0
M  V30 53 H -4.204967 -0.692194 -3.990271 0
M  V30 54 H -5.868679 -1.335730 -4.229451 0
M  V30 55 H 6.275133 -0.828232 2.675436 0
M  V30 END ATOM
M  V30 BEGIN BOND
M  V30 1 3 1 2
M  V30 2 1 2 3
M  V30 3 2 3 4
M  V30 4 1 4 5
M  V30 5 2 5 6
M  V30 6 1 6 7
M  V30 7 1 7 8
M  V30 8 2 8 9
M  V30 9 1 9 10
M  V30 10 2 10 11
M  V30 11 1 10 12
M  V30 12 1 12 13
M  V30 13 1 13 14
M  V30 14 1 14 15
M  V30 15 1 15 16
M  V30 16 1 9 17
M  V30 17 2 17 18
M  V30 18 1 18 19
M  V30 19 1 19 20
M  V30 20 1 20 21
M  V30 21 1 21 22
M  V30 22 1 20 23
M  V30 23 2 23 24
M  V30 24 1 23 25
M  V30 25 1 25 26
M  V30 26 1 18 27
M  V30 27 1 27 28
M  V30 28 2 27 29
M  V30 29 1 29 30
M  V30 30 1 6 31
M  V30 31 1 31 32
M  V30 32 2 31 33
M  V30 33 1 33 3
M  V30 34 1 29 8
M  V30 35 1 1 34
M  V30 36 1 4 35
M  V30 37 1 5 36
M  V30 38 1 7 37
M  V30 39 1 12 38
M  V30 40 1 14 39
M  V30 41 1 14 40
M  V30 42 1 15 41
M  V30 43 1 15 42
M  V30 44 1 16 43
M  V30 45 1 17 44
M  V30 46 1 19 45
M  V30 47 1 19 46
M  V30 48 1 22 47
M  V30 49 1 22 48
M  V30 50 1 22 49
M  V30 51 1 25 50
M  V30 52 1 25 51
M  V30 53 1 26 52
M  V30 54 1 26 53
M  V30 55 1 26 54
M  V30 56 1 33 55
M  V30 END BOND
M  V30 END CTAB
M  END
>  <Dataset>  (477) 
ChEMBL_Kinases

>  <Ligand_Instance>  (477) 
nan

>  <PDB_ID>  (477) 
nan

>  <Standardized_SMILES>  (477) 
C#Cc1ccc(Nc2c(C(=O)NOCCO)cc(CN(OC)C(=O)CC)c(F)c2F)c(F)c1

>  <Name>  (477) 
nan

>  <Pocket>  (477) 
nan

>  <ATP_Site>  (477) 
nan

>  <Peripheral>  (477) 
nan

>  <Num_H_Atoms_ProtBoundConf>  (477) 
nan

>  <Num_Resolved_Atoms>  (477) 
nan

>  <Num_Not_Resolved_Atoms>  (477) 
nan

$$$$
CHEMBL3640636
     RDKit          3D

  0  0  0  0  0  0  0  0  0  0999 V3000
M  V30 BEGIN CTAB
M  V30 COUNTS 52 53 0 0 0
M  V30 BEGIN ATOM
M  V30 1 C 2.222353 -2.701583 8.247923 0
M  V30 2 C 2.103609 -2.511115 7.062847 0
M  V30 3 C 1.962758 -2.292047 5.637943 0
M  V30 4 C 2.109585 -3.301449 4.719514 0
M  V30 5 C 1.954402 -2.989909 3.363355 0
M  V30 6 C 1.658411 -1.687489 2.958589 0
M  V30 7 N 1.560047 -1.705157 1.528192 0
M  V30 8 C 0.562429 -1.389625 0.570504 0
M  V30 9 C 0.449113 -0.251418 -0.196275 0
M  V30 10 C 1.506835 0.735511 -0.052119 0
M  V30 11 O 2.510594 0.651428 0.663567 0
M  V30 12 N 1.493687 1.967872 -0.759738 0
M  V30 13 O 2.573778 2.729119 -0.472753 0
M  V30 14 C 2.319055 3.566794 0.615237 0
M  V30 15 C 3.567032 4.396112 0.889691 0
M  V30 16 O 3.872096 5.150938 -0.223898 0
M  V30 17 C -0.604733 -0.088712 -1.063879 0
M  V30 18 C -1.556430 -1.078923 -1.165286 0
M  V30 19 C -2.687295 -0.864195 -2.120405 0
M  V30 20 N -3.603694 -1.960078 -2.132841 0
M  V30 21 O -4.668439 -2.047452 -1.334512 0
M  V30 22 C -5.825504 -1.495739 -1.847712 0
M  V30 23 C -3.481606 -3.097984 -3.011091 0
M  V30 24 C -2.409682 -3.337844 -4.039425 0
M  V30 25 O -4.255445 -4.107005 -3.078914 0
M  V30 26 C -1.466747 -2.244835 -0.400408 0
M  V30 27 F -2.414587 -3.214381 -0.511991 0
M  V30 28 C -0.391502 -2.405693 0.482351 0
M  V30 29 F -0.379108 -3.563808 1.186043 0
M  V30 30 C 1.520162 -0.712698 3.901938 0
M  V30 31 F 1.232362 0.477819 3.377604 0
M  V30 32 C 1.672384 -1.018383 5.229881 0
M  V30 33 H 2.321014 -2.858923 9.293196 0
M  V30 34 H 2.336791 -4.271891 5.120136 0
M  V30 35 H 2.102394 -3.901846 2.762339 0
M  V30 36 H 2.349563 -2.004864 0.915843 0
M  V30 37 H 0.708801 2.224902 -1.427619 0
M  V30 38 H 1.510861 4.261486 0.320333 0
M  V30 39 H 2.028178 2.990056 1.512552 0
M  V30 40 H 3.354401 5.019896 1.798401 0
M  V30 41 H 4.416106 3.737175 1.179322 0
M  V30 42 H 4.812714 5.462510 -0.189062 0
M  V30 43 H -0.704940 0.796878 -1.668423 0
M  V30 44 H -3.253821 0.042578 -1.792984 0
M  V30 45 H -2.300087 -0.614799 -3.140338 0
M  V30 46 H -6.389205 -1.051295 -0.993939 0
M  V30 47 H -5.686365 -0.710410 -2.592563 0
M  V30 48 H -6.515112 -2.257047 -2.292860 0
M  V30 49 H -2.845070 -3.460983 -5.043550 0
M  V30 50 H -1.848098 -4.246049 -3.690466 0
M  V30 51 H -1.679531 -2.503025 -4.009568 0
M  V30 52 H 1.539826 -0.158965 5.899005 0
M  V30 END ATOM
M  V30 BEGIN BOND
M  V30 1 3 1 2
M  V30 2 1 2 3
M  V30 3 2 3 4
M  V30 4 1 4 5
M  V30 5 2 5 6
M  V30 6 1 6 7
M  V30 7 1 7 8
M  V30 8 2 8 9
M  V30 9 1 9 10
M  V30 10 2 10 11
M  V30 11 1 10 12
M  V30 12 1 12 13
M  V30 13 1 13 14
M  V30 14 1 14 15
M  V30 15 1 15 16
M  V30 16 1 9 17
M  V30 17 2 17 18
M  V30 18 1 18 19
M  V30 19 1 19 20
M  V30 20 1 20 21
M  V30 21 1 21 22
M  V30 22 1 20 23
M  V30 23 1 23 24
M  V30 24 2 23 25
M  V30 25 1 18 26
M  V30 26 1 26 27
M  V30 27 2 26 28
M  V30 28 1 28 29
M  V30 29 1 6 30
M  V30 30 1 30 31
M  V30 31 2 30 32
M  V30 32 1 32 3
M  V30 33 1 28 8
M  V30 34 1 1 33
M  V30 35 1 4 34
M  V30 36 1 5 35
M  V30 37 1 7 36
M  V30 38 1 12 37
M  V30 39 1 14 38
M  V30 40 1 14 39
M  V30 41 1 15 40
M  V30 42 1 15 41
M  V30 43 1 16 42
M  V30 44 1 17 43
M  V30 45 1 19 44
M  V30 46 1 19 45
M  V30 47 1 22 46
M  V30 48 1 22 47
M  V30 49 1 22 48
M  V30 50 1 24 49
M  V30 51 1 24 50
M  V30 52 1 24 51
M  V30 53 1 32 52
M  V30 END BOND
M  V30 END CTAB
M  END
>  <Dataset>  (478) 
ChEMBL_Kinases

>  <Ligand_Instance>  (478) 
nan

>  <PDB_ID>  (478) 
nan

>  <Standardized_SMILES>  (478) 
C#Cc1ccc(Nc2c(C(=O)NOCCO)cc(CN(OC)C(C)=O)c(F)c2F)c(F)c1

>  <Name>  (478) 
nan

>  <Pocket>  (478) 
nan

>  <ATP_Site>  (478) 
nan

>  <Peripheral>  (478) 
nan

>  <Num_H_Atoms_ProtBoundConf>  (478) 
nan

>  <Num_Resolved_Atoms>  (478) 
nan

>  <Num_Not_Resolved_Atoms>  (478) 
nan

$$$$
CHEMBL3640635
     RDKit          3D

  0  0  0  0  0  0  0  0  0  0999 V3000
M  V30 BEGIN CTAB
M  V30 COUNTS 54 55 0 0 0
M  V30 BEGIN ATOM
M  V30 1 C 4.524444 -0.007601 4.440767 0
M  V30 2 O 3.668240 -1.069242 4.447154 0
M  V30 3 C 3.771713 -1.978748 3.446809 0
M  V30 4 C 3.541457 -1.471045 2.080326 0
M  V30 5 O 3.234902 -0.296094 1.761350 0
M  V30 6 N 3.592033 -2.102281 0.810989 0
M  V30 7 C 3.289064 -1.286958 -0.345289 0
M  V30 8 C 1.859167 -1.287488 -0.733515 0
M  V30 9 C 0.985201 -0.268349 -0.446084 0
M  V30 10 C -0.322510 -0.359198 -0.838351 0
M  V30 11 C -1.284859 0.690376 -0.566491 0
M  V30 12 O -2.487766 0.802419 -0.845762 0
M  V30 13 N -0.913120 1.861330 0.142413 0
M  V30 14 O -1.964973 2.730918 0.297343 0
M  V30 15 C -1.472620 3.835107 1.006373 0
M  V30 16 C -2.510095 4.895152 1.247040 0
M  V30 17 O -1.907225 5.926331 1.950674 0
M  V30 18 C -0.839015 -1.434811 -1.522607 0
M  V30 19 N -2.113557 -1.726847 -2.016416 0
M  V30 20 C -3.352287 -2.223242 -1.592513 0
M  V30 21 C -4.517025 -1.495253 -1.736497 0
M  V30 22 C -5.783123 -1.863381 -1.352538 0
M  V30 23 C -5.873055 -3.103524 -0.759620 0
M  V30 24 I -7.776272 -3.758627 -0.134400 0
M  V30 25 C -4.787018 -3.923912 -0.559726 0
M  V30 26 C -3.564485 -3.443668 -0.988331 0
M  V30 27 F -2.528733 -4.280876 -0.764957 0
M  V30 28 C 0.052215 -2.475870 -1.818181 0
M  V30 29 F -0.247122 -3.629143 -2.502963 0
M  V30 30 C 1.395862 -2.410764 -1.429333 0
M  V30 31 F 2.272841 -3.420751 -1.729359 0
M  V30 32 O 3.944259 -3.384705 1.044877 0
M  V30 33 C 2.804362 -4.120518 1.293645 0
M  V30 34 H 4.407368 0.583720 3.538066 0
M  V30 35 H 4.276453 0.601353 5.359112 0
M  V30 36 H 5.563794 -0.359379 4.611479 0
M  V30 37 H 4.810730 -2.416259 3.493319 0
M  V30 38 H 3.053511 -2.812389 3.702391 0
M  V30 39 H 3.896829 -1.579374 -1.228667 0
M  V30 40 H 3.609947 -0.227924 -0.124912 0
M  V30 41 H 1.326732 0.601727 0.080934 0
M  V30 42 H 0.050489 2.066988 0.518422 0
M  V30 43 H -1.011448 3.523583 1.967476 0
M  V30 44 H -0.687424 4.284810 0.352681 0
M  V30 45 H -3.377422 4.567460 1.816278 0
M  V30 46 H -2.852148 5.311817 0.279859 0
M  V30 47 H -1.127877 5.644262 2.489901 0
M  V30 48 H -2.158459 -1.502469 -3.028796 0
M  V30 49 H -4.465135 -0.501486 -2.211929 0
M  V30 50 H -6.637329 -1.236443 -1.501776 0
M  V30 51 H -4.907673 -4.887340 -0.091091 0
M  V30 52 H 2.594647 -4.884410 0.522503 0
M  V30 53 H 2.963489 -4.706953 2.232789 0
M  V30 54 H 1.870986 -3.513481 1.343835 0
M  V30 END ATOM
M  V30 BEGIN BOND
M  V30 1 1 1 2
M  V30 2 1 2 3
M  V30 3 1 3 4
M  V30 4 2 4 5
M  V30 5 1 4 6
M  V30 6 1 6 7
M  V30 7 1 7 8
M  V30 8 2 8 9
M  V30 9 1 9 10
M  V30 10 1 10 11
M  V30 11 2 11 12
M  V30 12 1 11 13
M  V30 13 1 13 14
M  V30 14 1 14 15
M  V30 15 1 15 16
M  V30 16 1 16 17
M  V30 17 2 10 18
M  V30 18 1 18 19
M  V30 19 1 19 20
M  V30 20 2 20 21
M  V30 21 1 21 22
M  V30 22 2 22 23
M  V30 23 1 23 24
M  V30 24 1 23 25
M  V30 25 2 25 26
M  V30 26 1 26 27
M  V30 27 1 18 28
M  V30 28 1 28 29
M  V30 29 2 28 30
M  V30 30 1 30 31
M  V30 31 1 6 32
M  V30 32 1 32 33
M  V30 33 1 30 8
M  V30 34 1 26 20
M  V30 35 1 1 34
M  V30 36 1 1 35
M  V30 37 1 1 36
M  V30 38 1 3 37
M  V30 39 1 3 38
M  V30 40 1 7 39
M  V30 41 1 7 40
M  V30 42 1 9 41
M  V30 43 1 13 42
M  V30 44 1 15 43
M  V30 45 1 15 44
M  V30 46 1 16 45
M  V30 47 1 16 46
M  V30 48 1 17 47
M  V30 49 1 19 48
M  V30 50 1 21 49
M  V30 51 1 22 50
M  V30 52 1 25 51
M  V30 53 1 33 52
M  V30 54 1 33 53
M  V30 55 1 33 54
M  V30 END BOND
M  V30 END CTAB
M  END
>  <Dataset>  (479) 
ChEMBL_Kinases

>  <Ligand_Instance>  (479) 
nan

>  <PDB_ID>  (479) 
nan

>  <Standardized_SMILES>  (479) 
COCC(=O)N(Cc1cc(C(=O)NOCCO)c(Nc2ccc(I)cc2F)c(F)c1F)OC

>  <Name>  (479) 
nan

>  <Pocket>  (479) 
nan

>  <ATP_Site>  (479) 
nan

>  <Peripheral>  (479) 
nan

>  <Num_H_Atoms_ProtBoundConf>  (479) 
nan

>  <Num_Resolved_Atoms>  (479) 
nan

>  <Num_Not_Resolved_Atoms>  (479) 
nan

$$$$
CHEMBL3640634
     RDKit          3D

  0  0  0  0  0  0  0  0  0  0999 V3000
M  V30 BEGIN CTAB
M  V30 COUNTS 51 52 0 0 0
M  V30 BEGIN ATOM
M  V30 1 C 5.019167 -2.275022 1.982994 0
M  V30 2 O 3.939314 -2.478956 1.126817 0
M  V30 3 N 3.082421 -3.408123 1.619145 0
M  V30 4 C 2.069408 -2.799725 2.458110 0
M  V30 5 C 0.864661 -2.379326 1.694550 0
M  V30 6 C 0.757533 -1.016924 1.429823 0
M  V30 7 C -0.294110 -0.464102 0.730927 0
M  V30 8 C -0.419381 0.960243 0.446947 0
M  V30 9 O -1.411067 1.361064 -0.191631 0
M  V30 10 N 0.500606 1.974739 0.834377 0
M  V30 11 O 0.040702 3.170040 0.388958 0
M  V30 12 C 0.489417 3.490185 -0.875228 0
M  V30 13 C -0.082114 4.836368 -1.339247 0
M  V30 14 O 0.333073 5.836609 -0.434030 0
M  V30 15 C -1.300160 -1.269577 0.259904 0
M  V30 16 N -2.416783 -0.776242 -0.469099 0
M  V30 17 C -3.620294 -0.359764 0.152704 0
M  V30 18 C -3.775752 -0.411259 1.515598 0
M  V30 19 C -4.964361 0.003989 2.083905 0
M  V30 20 C -6.018210 0.475998 1.324403 0
M  V30 21 I -7.828202 1.105752 2.223250 0
M  V30 22 C -5.840927 0.520358 -0.053734 0
M  V30 23 C -4.649002 0.103573 -0.620417 0
M  V30 24 F -4.575301 0.186046 -1.971012 0
M  V30 25 C -1.212951 -2.643627 0.514772 0
M  V30 26 F -2.183449 -3.458319 0.065724 0
M  V30 27 C -0.150885 -3.173337 1.216496 0
M  V30 28 F -0.048110 -4.489000 1.475879 0
M  V30 29 C 3.209724 -4.800556 1.308961 0
M  V30 30 O 2.625689 -5.905372 1.582726 0
M  V30 31 C 4.316136 -5.206496 0.406336 0
M  V30 32 O 5.077183 -4.151639 -0.028204 0
M  V30 33 H 4.763261 -1.522571 2.768504 0
M  V30 34 H 5.828901 -1.824960 1.375144 0
M  V30 35 H 5.344087 -3.180990 2.524154 0
M  V30 36 H 2.472287 -1.977066 3.055072 0
M  V30 37 H 1.749879 -3.589019 3.188679 0
M  V30 38 H 1.523149 -0.326970 1.776589 0
M  V30 39 H 1.348456 1.661752 1.375440 0
M  V30 40 H 1.593929 3.629747 -0.817955 0
M  V30 41 H 0.226126 2.726353 -1.624362 0
M  V30 42 H -1.174972 4.826989 -1.341062 0
M  V30 43 H 0.360458 5.112119 -2.308613 0
M  V30 44 H 0.078711 6.711623 -0.818393 0
M  V30 45 H -2.292641 -0.740607 -1.489997 0
M  V30 46 H -2.932742 -0.785359 2.083654 0
M  V30 47 H -5.075612 -0.041313 3.159872 0
M  V30 48 H -6.670893 0.890424 -0.631161 0
M  V30 49 H 5.003964 -5.943337 0.887536 0
M  V30 50 H 3.894574 -5.684274 -0.527457 0
M  V30 51 H 4.672806 -3.626843 -0.771690 0
M  V30 END ATOM
M  V30 BEGIN BOND
M  V30 1 1 1 2
M  V30 2 1 2 3
M  V30 3 1 3 4
M  V30 4 1 4 5
M  V30 5 2 5 6
M  V30 6 1 6 7
M  V30 7 1 7 8
M  V30 8 2 8 9
M  V30 9 1 8 10
M  V30 10 1 10 11
M  V30 11 1 11 12
M  V30 12 1 12 13
M  V30 13 1 13 14
M  V30 14 2 7 15
M  V30 15 1 15 16
M  V30 16 1 16 17
M  V30 17 2 17 18
M  V30 18 1 18 19
M  V30 19 2 19 20
M  V30 20 1 20 21
M  V30 21 1 20 22
M  V30 22 2 22 23
M  V30 23 1 23 24
M  V30 24 1 15 25
M  V30 25 1 25 26
M  V30 26 2 25 27
M  V30 27 1 27 28
M  V30 28 1 3 29
M  V30 29 2 29 30
M  V30 30 1 29 31
M  V30 31 1 31 32
M  V30 32 1 27 5
M  V30 33 1 23 17
M  V30 34 1 1 33
M  V30 35 1 1 34
M  V30 36 1 1 35
M  V30 37 1 4 36
M  V30 38 1 4 37
M  V30 39 1 6 38
M  V30 40 1 10 39
M  V30 41 1 12 40
M  V30 42 1 12 41
M  V30 43 1 13 42
M  V30 44 1 13 43
M  V30 45 1 14 44
M  V30 46 1 16 45
M  V30 47 1 18 46
M  V30 48 1 19 47
M  V30 49 1 22 48
M  V30 50 1 31 49
M  V30 51 1 31 50
M  V30 52 1 32 51
M  V30 END BOND
M  V30 END CTAB
M  END
>  <Dataset>  (480) 
ChEMBL_Kinases

>  <Ligand_Instance>  (480) 
nan

>  <PDB_ID>  (480) 
nan

>  <Standardized_SMILES>  (480) 
CON(Cc1cc(C(=O)NOCCO)c(Nc2ccc(I)cc2F)c(F)c1F)C(=O)CO

>  <Name>  (480) 
nan

>  <Pocket>  (480) 
nan

>  <ATP_Site>  (480) 
nan

>  <Peripheral>  (480) 
nan

>  <Num_H_Atoms_ProtBoundConf>  (480) 
nan

>  <Num_Resolved_Atoms>  (480) 
nan

>  <Num_Not_Resolved_Atoms>  (480) 
nan

$$$$
CHEMBL3640633
     RDKit          3D

  0  0  0  0  0  0  0  0  0  0999 V3000
M  V30 BEGIN CTAB
M  V30 COUNTS 56 57 0 0 0
M  V30 BEGIN ATOM
M  V30 1 C -1.280208 3.327321 2.502023 0
M  V30 2 O -1.533281 2.059946 1.987857 0
M  V30 3 N -1.504333 1.086175 2.904848 0
M  V30 4 C -0.207543 0.514414 3.074319 0
M  V30 5 C 0.066819 -0.631124 2.193370 0
M  V30 6 C 0.883315 -0.474426 1.092595 0
M  V30 7 C 1.195486 -1.487667 0.216818 0
M  V30 8 C 2.051732 -1.360029 -0.951184 0
M  V30 9 O 2.277417 -2.349122 -1.688573 0
M  V30 10 N 2.605848 -0.086461 -1.206642 0
M  V30 11 O 3.404455 0.574185 -2.067879 0
M  V30 12 C 4.748299 0.534922 -1.684948 0
M  V30 13 C 5.607326 1.360515 -2.638835 0
M  V30 14 O 6.916582 1.260212 -2.177292 0
M  V30 15 C 0.682540 -2.751212 0.414365 0
M  V30 16 N 0.946597 -3.862256 -0.432753 0
M  V30 17 C 0.159759 -4.205903 -1.568296 0
M  V30 18 C -0.936691 -3.434851 -1.897871 0
M  V30 19 C -1.629531 -3.852469 -3.014790 0
M  V30 20 C -1.297260 -4.949882 -3.782329 0
M  V30 21 I -2.393453 -5.538326 -5.477106 0
M  V30 22 C -0.177764 -5.698878 -3.407408 0
M  V30 23 C 0.547501 -5.315113 -2.291829 0
M  V30 24 F 1.619190 -6.089922 -1.990772 0
M  V30 25 C -0.151196 -2.943926 1.524237 0
M  V30 26 F -0.688650 -4.164523 1.774856 0
M  V30 27 C -0.449517 -1.909695 2.389128 0
M  V30 28 F -1.257588 -2.123770 3.453782 0
M  V30 29 C -2.654984 0.679090 3.625279 0
M  V30 30 O -3.237955 -0.052319 4.488443 0
M  V30 31 C -3.954320 1.350734 3.366600 0
M  V30 32 C -4.999479 0.734807 4.273099 0
M  V30 33 C -4.412703 1.058316 1.939593 0
M  V30 34 H -1.551962 3.432144 3.573057 0
M  V30 35 H -1.948552 4.022911 1.949900 0
M  V30 36 H -0.234958 3.642128 2.282646 0
M  V30 37 H -0.140346 0.230445 4.166178 0
M  V30 38 H 0.621995 1.245054 2.948095 0
M  V30 39 H 1.289886 0.493891 0.921649 0
M  V30 40 H 2.492653 0.801076 -0.673154 0
M  V30 41 H 4.923555 0.863522 -0.652301 0
M  V30 42 H 5.154373 -0.497459 -1.755471 0
M  V30 43 H 5.573419 0.897701 -3.646375 0
M  V30 44 H 5.276505 2.420420 -2.624505 0
M  V30 45 H 7.376599 2.133779 -2.274974 0
M  V30 46 H 1.774786 -4.395740 -0.133011 0
M  V30 47 H -1.231459 -2.572846 -1.328705 0
M  V30 48 H -2.497432 -3.325258 -3.359285 0
M  V30 49 H 0.099691 -6.562091 -3.995323 0
M  V30 50 H -3.886501 2.443686 3.479806 0
M  V30 51 H -4.713094 0.844372 5.326457 0
M  V30 52 H -5.081731 -0.338653 4.022343 0
M  V30 53 H -6.007998 1.157232 4.073501 0
M  V30 54 H -4.164611 -0.008514 1.770337 0
M  V30 55 H -3.926690 1.756559 1.249325 0
M  V30 56 H -5.521038 1.251013 1.859947 0
M  V30 END ATOM
M  V30 BEGIN BOND
M  V30 1 1 1 2
M  V30 2 1 2 3
M  V30 3 1 3 4
M  V30 4 1 4 5
M  V30 5 2 5 6
M  V30 6 1 6 7
M  V30 7 1 7 8
M  V30 8 2 8 9
M  V30 9 1 8 10
M  V30 10 1 10 11
M  V30 11 1 11 12
M  V30 12 1 12 13
M  V30 13 1 13 14
M  V30 14 2 7 15
M  V30 15 1 15 16
M  V30 16 1 16 17
M  V30 17 2 17 18
M  V30 18 1 18 19
M  V30 19 2 19 20
M  V30 20 1 20 21
M  V30 21 1 20 22
M  V30 22 2 22 23
M  V30 23 1 23 24
M  V30 24 1 15 25
M  V30 25 1 25 26
M  V30 26 2 25 27
M  V30 27 1 27 28
M  V30 28 1 3 29
M  V30 29 2 29 30
M  V30 30 1 29 31
M  V30 31 1 31 32
M  V30 32 1 31 33
M  V30 33 1 27 5
M  V30 34 1 23 17
M  V30 35 1 1 34
M  V30 36 1 1 35
M  V30 37 1 1 36
M  V30 38 1 4 37
M  V30 39 1 4 38
M  V30 40 1 6 39
M  V30 41 1 10 40
M  V30 42 1 12 41
M  V30 43 1 12 42
M  V30 44 1 13 43
M  V30 45 1 13 44
M  V30 46 1 14 45
M  V30 47 1 16 46
M  V30 48 1 18 47
M  V30 49 1 19 48
M  V30 50 1 22 49
M  V30 51 1 31 50
M  V30 52 1 32 51
M  V30 53 1 32 52
M  V30 54 1 32 53
M  V30 55 1 33 54
M  V30 56 1 33 55
M  V30 57 1 33 56
M  V30 END BOND
M  V30 END CTAB
M  END
>  <Dataset>  (481) 
ChEMBL_Kinases

>  <Ligand_Instance>  (481) 
nan

>  <PDB_ID>  (481) 
nan

>  <Standardized_SMILES>  (481) 
CON(Cc1cc(C(=O)NOCCO)c(Nc2ccc(I)cc2F)c(F)c1F)C(=O)C(C)C

>  <Name>  (481) 
nan

>  <Pocket>  (481) 
nan

>  <ATP_Site>  (481) 
nan

>  <Peripheral>  (481) 
nan

>  <Num_H_Atoms_ProtBoundConf>  (481) 
nan

>  <Num_Resolved_Atoms>  (481) 
nan

>  <Num_Not_Resolved_Atoms>  (481) 
nan

$$$$
CHEMBL3640632
     RDKit          3D

  0  0  0  0  0  0  0  0  0  0999 V3000
M  V30 BEGIN CTAB
M  V30 COUNTS 53 54 0 0 0
M  V30 BEGIN ATOM
M  V30 1 C 4.860512 -2.699932 3.981439 0
M  V30 2 C 3.436496 -2.637274 3.432111 0
M  V30 3 C 2.460350 -2.419172 4.506510 0
M  V30 4 O 2.606712 -3.313231 5.410083 0
M  V30 5 N 1.492829 -1.351022 4.519436 0
M  V30 6 C 1.395779 -0.378812 3.488987 0
M  V30 7 C 0.460348 -0.769240 2.398355 0
M  V30 8 C 0.346721 0.125219 1.355473 0
M  V30 9 C -0.497669 -0.155656 0.311899 0
M  V30 10 C -0.667654 0.749075 -0.809215 0
M  V30 11 O -1.361683 0.729207 -1.825227 0
M  V30 12 N 0.079585 1.952837 -0.850737 0
M  V30 13 O -0.006986 2.874657 -1.863807 0
M  V30 14 C -1.024105 3.739054 -1.467665 0
M  V30 15 C -1.238291 4.846550 -2.481124 0
M  V30 16 O -1.586719 4.376795 -3.721272 0
M  V30 17 C -1.247397 -1.307126 0.257990 0
M  V30 18 N -2.167331 -1.764696 -0.712364 0
M  V30 19 C -2.184254 -2.439672 -1.935953 0
M  V30 20 C -2.739733 -1.872326 -3.076469 0
M  V30 21 C -2.789635 -2.452636 -4.314273 0
M  V30 22 C -2.239512 -3.708357 -4.430543 0
M  V30 23 I -2.286014 -4.662043 -6.320929 0
M  V30 24 C -1.651904 -4.383011 -3.355009 0
M  V30 25 C -1.668570 -3.681515 -2.160361 0
M  V30 26 F -1.084561 -4.377171 -1.153914 0
M  V30 27 C -1.127853 -2.206126 1.313798 0
M  V30 28 F -1.738323 -3.409234 1.551265 0
M  V30 29 C -0.274721 -1.946751 2.392362 0
M  V30 30 F -0.048777 -2.711525 3.481980 0
M  V30 31 O 0.703468 -1.383430 5.610075 0
M  V30 32 C -0.220980 -0.361050 5.647090 0
M  V30 33 H 5.006593 -1.954721 4.792608 0
M  V30 34 H 5.583071 -2.536194 3.151362 0
M  V30 35 H 5.083033 -3.697518 4.423253 0
M  V30 36 H 3.388253 -1.919430 2.620248 0
M  V30 37 H 3.265704 -3.685334 3.023460 0
M  V30 38 H 1.090600 0.635585 3.865138 0
M  V30 39 H 2.423110 -0.189119 3.069196 0
M  V30 40 H 0.925133 1.035820 1.374012 0
M  V30 41 H 0.773119 2.299467 -0.148048 0
M  V30 42 H -2.007643 3.179460 -1.418124 0
M  V30 43 H -0.874751 4.125721 -0.451477 0
M  V30 44 H -2.024547 5.553228 -2.148982 0
M  V30 45 H -0.297911 5.448021 -2.588189 0
M  V30 46 H -2.345700 3.757181 -3.670641 0
M  V30 47 H -3.142292 -1.519211 -0.421473 0
M  V30 48 H -3.200526 -0.872335 -3.060318 0
M  V30 49 H -3.220003 -1.995964 -5.178696 0
M  V30 50 H -1.243180 -5.356317 -3.499542 0
M  V30 51 H -1.091367 -0.752987 6.250229 0
M  V30 52 H -0.635829 -0.087248 4.661486 0
M  V30 53 H 0.141074 0.515526 6.242107 0
M  V30 END ATOM
M  V30 BEGIN BOND
M  V30 1 1 1 2
M  V30 2 1 2 3
M  V30 3 2 3 4
M  V30 4 1 3 5
M  V30 5 1 5 6
M  V30 6 1 6 7
M  V30 7 2 7 8
M  V30 8 1 8 9
M  V30 9 1 9 10
M  V30 10 2 10 11
M  V30 11 1 10 12
M  V30 12 1 12 13
M  V30 13 1 13 14
M  V30 14 1 14 15
M  V30 15 1 15 16
M  V30 16 2 9 17
M  V30 17 1 17 18
M  V30 18 1 18 19
M  V30 19 2 19 20
M  V30 20 1 20 21
M  V30 21 2 21 22
M  V30 22 1 22 23
M  V30 23 1 22 24
M  V30 24 2 24 25
M  V30 25 1 25 26
M  V30 26 1 17 27
M  V30 27 1 27 28
M  V30 28 2 27 29
M  V30 29 1 29 30
M  V30 30 1 5 31
M  V30 31 1 31 32
M  V30 32 1 29 7
M  V30 33 1 25 19
M  V30 34 1 1 33
M  V30 35 1 1 34
M  V30 36 1 1 35
M  V30 37 1 2 36
M  V30 38 1 2 37
M  V30 39 1 6 38
M  V30 40 1 6 39
M  V30 41 1 8 40
M  V30 42 1 12 41
M  V30 43 1 14 42
M  V30 44 1 14 43
M  V30 45 1 15 44
M  V30 46 1 15 45
M  V30 47 1 16 46
M  V30 48 1 18 47
M  V30 49 1 20 48
M  V30 50 1 21 49
M  V30 51 1 24 50
M  V30 52 1 32 51
M  V30 53 1 32 52
M  V30 54 1 32 53
M  V30 END BOND
M  V30 END CTAB
M  END
>  <Dataset>  (482) 
ChEMBL_Kinases

>  <Ligand_Instance>  (482) 
nan

>  <PDB_ID>  (482) 
nan

>  <Standardized_SMILES>  (482) 
CCC(=O)N(Cc1cc(C(=O)NOCCO)c(Nc2ccc(I)cc2F)c(F)c1F)OC

>  <Name>  (482) 
nan

>  <Pocket>  (482) 
nan

>  <ATP_Site>  (482) 
nan

>  <Peripheral>  (482) 
nan

>  <Num_H_Atoms_ProtBoundConf>  (482) 
nan

>  <Num_Resolved_Atoms>  (482) 
nan

>  <Num_Not_Resolved_Atoms>  (482) 
nan

$$$$
CHEMBL3640631
     RDKit          3D

  0  0  0  0  0  0  0  0  0  0999 V3000
M  V30 BEGIN CTAB
M  V30 COUNTS 47 48 0 0 0
M  V30 BEGIN ATOM
M  V30 1 C -1.047510 -1.111492 6.147822 0
M  V30 2 O -0.039215 -1.438679 5.280115 0
M  V30 3 N -0.204134 -2.644518 4.695603 0
M  V30 4 C -1.308224 -3.503259 4.941227 0
M  V30 5 O -2.383944 -3.826469 5.480034 0
M  V30 6 C 0.760627 -3.170905 3.752122 0
M  V30 7 C 0.349078 -2.718177 2.393513 0
M  V30 8 C 1.050609 -1.665687 1.808288 0
M  V30 9 C 0.669999 -1.251907 0.559685 0
M  V30 10 C 1.379238 -0.170554 -0.097096 0
M  V30 11 O 1.264090 0.376017 -1.215668 0
M  V30 12 N 2.455037 0.507224 0.539749 0
M  V30 13 O 2.979157 1.475270 -0.235444 0
M  V30 14 C 4.013260 2.180153 0.312632 0
M  V30 15 C 4.629153 3.190637 -0.621429 0
M  V30 16 O 3.765615 4.156361 -1.072804 0
M  V30 17 C -0.360953 -1.802714 -0.162805 0
M  V30 18 N -0.859811 -1.500747 -1.427481 0
M  V30 19 C -1.748695 -0.573734 -2.033007 0
M  V30 20 C -1.361272 0.280179 -3.049167 0
M  V30 21 C -2.157667 1.211348 -3.674696 0
M  V30 22 C -3.458121 1.293877 -3.243546 0
M  V30 23 I -4.716870 2.708215 -4.173315 0
M  V30 24 C -3.928535 0.491513 -2.247203 0
M  V30 25 C -3.074682 -0.411385 -1.672649 0
M  V30 26 F -3.614043 -1.157324 -0.697981 0
M  V30 27 C -1.060456 -2.860288 0.432205 0
M  V30 28 F -2.096570 -3.595226 -0.039536 0
M  V30 29 C -0.706285 -3.317036 1.707788 0
M  V30 30 F -1.309745 -4.329608 2.372428 0
M  V30 31 H -2.028680 -1.570880 5.945106 0
M  V30 32 H -1.250190 -0.000489 6.185685 0
M  V30 33 H -0.788639 -1.363337 7.211786 0
M  V30 34 H -2.187446 -4.067964 5.206536 0
M  V30 35 H 1.760588 -2.759449 3.977936 0
M  V30 36 H 0.822814 -4.281397 3.806584 0
M  V30 37 H 1.843783 -1.244707 2.368800 0
M  V30 38 H 2.811797 0.281981 1.517603 0
M  V30 39 H 4.824927 1.505514 0.652248 0
M  V30 40 H 3.645924 2.734619 1.199536 0
M  V30 41 H 5.174714 2.735098 -1.467479 0
M  V30 42 H 5.410339 3.739591 -0.020090 0
M  V30 43 H 4.186868 5.007087 -1.285989 0
M  V30 44 H -0.414234 -2.192190 -2.087366 0
M  V30 45 H -0.329993 0.248648 -3.429860 0
M  V30 46 H -1.812578 1.851278 -4.457846 0
M  V30 47 H -4.959041 0.611239 -1.960979 0
M  V30 END ATOM
M  V30 BEGIN BOND
M  V30 1 1 1 2
M  V30 2 1 2 3
M  V30 3 1 3 4
M  V30 4 2 4 5
M  V30 5 1 3 6
M  V30 6 1 6 7
M  V30 7 2 7 8
M  V30 8 1 8 9
M  V30 9 1 9 10
M  V30 10 2 10 11
M  V30 11 1 10 12
M  V30 12 1 12 13
M  V30 13 1 13 14
M  V30 14 1 14 15
M  V30 15 1 15 16
M  V30 16 2 9 17
M  V30 17 1 17 18
M  V30 18 1 18 19
M  V30 19 2 19 20
M  V30 20 1 20 21
M  V30 21 2 21 22
M  V30 22 1 22 23
M  V30 23 1 22 24
M  V30 24 2 24 25
M  V30 25 1 25 26
M  V30 26 1 17 27
M  V30 27 1 27 28
M  V30 28 2 27 29
M  V30 29 1 29 30
M  V30 30 1 29 7
M  V30 31 1 25 19
M  V30 32 1 1 31
M  V30 33 1 1 32
M  V30 34 1 1 33
M  V30 35 1 4 34
M  V30 36 1 6 35
M  V30 37 1 6 36
M  V30 38 1 8 37
M  V30 39 1 12 38
M  V30 40 1 14 39
M  V30 41 1 14 40
M  V30 42 1 15 41
M  V30 43 1 15 42
M  V30 44 1 16 43
M  V30 45 1 18 44
M  V30 46 1 20 45
M  V30 47 1 21 46
M  V30 48 1 24 47
M  V30 END BOND
M  V30 END CTAB
M  END
>  <Dataset>  (483) 
ChEMBL_Kinases

>  <Ligand_Instance>  (483) 
nan

>  <PDB_ID>  (483) 
nan

>  <Standardized_SMILES>  (483) 
CON(C=O)Cc1cc(C(=O)NOCCO)c(Nc2ccc(I)cc2F)c(F)c1F

>  <Name>  (483) 
nan

>  <Pocket>  (483) 
nan

>  <ATP_Site>  (483) 
nan

>  <Peripheral>  (483) 
nan

>  <Num_H_Atoms_ProtBoundConf>  (483) 
nan

>  <Num_Resolved_Atoms>  (483) 
nan

>  <Num_Not_Resolved_Atoms>  (483) 
nan

$$$$
CHEMBL3640630
     RDKit          3D

  0  0  0  0  0  0  0  0  0  0999 V3000
M  V30 BEGIN CTAB
M  V30 COUNTS 53 54 0 0 0
M  V30 BEGIN ATOM
M  V30 1 C 2.113774 -3.018840 4.175033 0
M  V30 2 S 3.865351 -3.073431 3.932770 0 CHG=1 VAL=3
M  V30 3 O 4.440321 -4.645472 3.938988 0 CHG=-1 VAL=1
M  V30 4 C 4.351690 -2.287576 2.419732 0
M  V30 5 C 3.944218 -0.829710 2.395244 0
M  V30 6 O 4.334574 -0.229586 1.197940 0
M  V30 7 N 3.937950 1.055296 1.228423 0
M  V30 8 C 3.471298 1.520543 -0.039457 0
M  V30 9 C 2.299659 0.734498 -0.536296 0
M  V30 10 C 1.043046 1.269474 -0.430364 0
M  V30 11 C -0.058369 0.582560 -0.864922 0
M  V30 12 C -1.395325 1.133588 -0.774351 0
M  V30 13 O -2.508371 0.722198 -1.108209 0
M  V30 14 N -1.579978 2.402398 -0.200799 0
M  V30 15 O -2.846717 2.857575 -0.146681 0
M  V30 16 C -3.428011 2.460531 1.044241 0
M  V30 17 C -4.863686 2.962829 1.154367 0
M  V30 18 O -5.370782 2.522470 2.371957 0
M  V30 19 C 0.032073 -0.668219 -1.425336 0
M  V30 20 N -0.970827 -1.527020 -1.930476 0
M  V30 21 C -1.889334 -2.469473 -1.396819 0
M  V30 22 C -3.265718 -2.351654 -1.576227 0
M  V30 23 C -4.209890 -3.216832 -1.078382 0
M  V30 24 C -3.775091 -4.280576 -0.348380 0
M  V30 25 I -5.199587 -5.626355 0.430062 0
M  V30 26 C -2.432946 -4.476378 -0.120746 0
M  V30 27 C -1.550704 -3.563498 -0.654120 0
M  V30 28 F -0.263500 -3.834729 -0.375227 0
M  V30 29 C 1.310812 -1.228759 -1.541549 0
M  V30 30 F 1.696581 -2.430999 -2.063640 0
M  V30 31 C 2.431657 -0.533649 -1.101138 0
M  V30 32 F 3.720200 -0.990752 -1.174705 0
M  V30 33 H 1.691392 -3.992868 3.860488 0
M  V30 34 H 1.878121 -2.909858 5.265861 0
M  V30 35 H 1.602027 -2.226513 3.613858 0
M  V30 36 H 3.937150 -2.838849 1.559105 0
M  V30 37 H 5.456196 -2.355585 2.355169 0
M  V30 38 H 2.869017 -0.712719 2.554829 0
M  V30 39 H 4.491656 -0.277614 3.200038 0
M  V30 40 H 3.154356 1.157901 1.917580 0
M  V30 41 H 4.309626 1.437933 -0.775238 0
M  V30 42 H 3.168822 2.582938 0.000663 0
M  V30 43 H 0.970937 2.250402 0.009440 0
M  V30 44 H -0.845351 3.051909 0.197710 0
M  V30 45 H -3.485193 1.351855 1.157700 0
M  V30 46 H -2.896803 2.832264 1.946121 0
M  V30 47 H -4.908140 4.073353 1.062862 0
M  V30 48 H -5.464210 2.530300 0.331050 0
M  V30 49 H -5.479236 1.548372 2.323104 0
M  V30 50 H -1.159338 -1.541084 -2.963231 0
M  V30 51 H -3.674274 -1.517441 -2.157145 0
M  V30 52 H -5.263662 -3.071367 -1.251748 0
M  V30 53 H -2.151394 -5.327766 0.458452 0
M  V30 END ATOM
M  V30 BEGIN BOND
M  V30 1 1 1 2
M  V30 2 1 2 3
M  V30 3 1 2 4
M  V30 4 1 4 5
M  V30 5 1 5 6
M  V30 6 1 6 7
M  V30 7 1 7 8
M  V30 8 1 8 9
M  V30 9 2 9 10
M  V30 10 1 10 11
M  V30 11 1 11 12
M  V30 12 2 12 13
M  V30 13 1 12 14
M  V30 14 1 14 15
M  V30 15 1 15 16
M  V30 16 1 16 17
M  V30 17 1 17 18
M  V30 18 2 11 19
M  V30 19 1 19 20
M  V30 20 1 20 21
M  V30 21 2 21 22
M  V30 22 1 22 23
M  V30 23 2 23 24
M  V30 24 1 24 25
M  V30 25 1 24 26
M  V30 26 2 26 27
M  V30 27 1 27 28
M  V30 28 1 19 29
M  V30 29 1 29 30
M  V30 30 2 29 31
M  V30 31 1 31 32
M  V30 32 1 31 9
M  V30 33 1 27 21
M  V30 34 1 1 33
M  V30 35 1 1 34
M  V30 36 1 1 35
M  V30 37 1 4 36
M  V30 38 1 4 37
M  V30 39 1 5 38
M  V30 40 1 5 39
M  V30 41 1 7 40
M  V30 42 1 8 41
M  V30 43 1 8 42
M  V30 44 1 10 43
M  V30 45 1 14 44
M  V30 46 1 16 45
M  V30 47 1 16 46
M  V30 48 1 17 47
M  V30 49 1 17 48
M  V30 50 1 18 49
M  V30 51 1 20 50
M  V30 52 1 22 51
M  V30 53 1 23 52
M  V30 54 1 26 53
M  V30 END BOND
M  V30 END CTAB
M  END
>  <Dataset>  (484) 
ChEMBL_Kinases

>  <Ligand_Instance>  (484) 
nan

>  <PDB_ID>  (484) 
nan

>  <Standardized_SMILES>  (484) 
C[S+]([O-])CCONCc1cc(C(=O)NOCCO)c(Nc2ccc(I)cc2F)c(F)c1F

>  <Name>  (484) 
nan

>  <Pocket>  (484) 
nan

>  <ATP_Site>  (484) 
nan

>  <Peripheral>  (484) 
nan

>  <Num_H_Atoms_ProtBoundConf>  (484) 
nan

>  <Num_Resolved_Atoms>  (484) 
nan

>  <Num_Not_Resolved_Atoms>  (484) 
nan

$$$$
CHEMBL3640629
     RDKit          3D

  0  0  0  0  0  0  0  0  0  0999 V3000
M  V30 BEGIN CTAB
M  V30 COUNTS 55 56 0 0 0
M  V30 BEGIN ATOM
M  V30 1 C 2.651781 -0.937862 3.150703 0
M  V30 2 C 3.744735 -1.871914 2.712891 0
M  V30 3 C 4.901451 -1.936040 3.689979 0
M  V30 4 O 3.222001 -3.177350 2.609555 0
M  V30 5 C 4.242938 -1.424727 1.362668 0
M  V30 6 O 3.245552 -1.406662 0.401073 0
M  V30 7 N 3.793123 -1.012361 -0.749864 0
M  V30 8 C 3.248577 0.193628 -1.299453 0
M  V30 9 C 1.792571 -0.001283 -1.570090 0
M  V30 10 C 0.878302 0.566756 -0.711522 0
M  V30 11 C -0.458263 0.403301 -0.941597 0
M  V30 12 C -1.466890 0.982058 -0.077257 0
M  V30 13 O -2.695084 1.001302 -0.064656 0
M  V30 14 N -1.045465 1.724318 1.055380 0
M  V30 15 O -1.822713 2.327203 1.959012 0
M  V30 16 C -2.171080 1.536148 3.033722 0
M  V30 17 C -2.998640 2.257738 4.074006 0
M  V30 18 O -3.299065 1.380475 5.113808 0
M  V30 19 C -0.938504 -0.316557 -2.012342 0
M  V30 20 N -2.243730 -0.587456 -2.416438 0
M  V30 21 C -3.316326 -1.455466 -2.167644 0
M  V30 22 C -4.548779 -0.980327 -1.776350 0
M  V30 23 C -5.659255 -1.741805 -1.496744 0
M  V30 24 C -5.497485 -3.101364 -1.627708 0
M  V30 25 I -7.146815 -4.341553 -1.218631 0
M  V30 26 C -4.305941 -3.698305 -2.014562 0
M  V30 27 C -3.264520 -2.830366 -2.267241 0
M  V30 28 F -2.112674 -3.435409 -2.637291 0
M  V30 29 C -0.006175 -0.885667 -2.873415 0
M  V30 30 F -0.212296 -1.633227 -4.008442 0
M  V30 31 C 1.369141 -0.733516 -2.660200 0
M  V30 32 F 2.351337 -1.247659 -3.440084 0
M  V30 33 H 1.889248 -1.532446 3.665107 0
M  V30 34 H 3.052978 -0.142341 3.806824 0
M  V30 35 H 2.172833 -0.520036 2.243638 0
M  V30 36 H 5.861224 -1.873873 3.124138 0
M  V30 37 H 4.931180 -2.889837 4.261673 0
M  V30 38 H 4.851231 -1.127334 4.445766 0
M  V30 39 H 3.833227 -3.709433 2.033105 0
M  V30 40 H 4.640048 -0.387894 1.474439 0
M  V30 41 H 5.095932 -2.062654 1.080019 0
M  V30 42 H 3.789402 -1.800951 -1.429558 0
M  V30 43 H 3.726609 0.423746 -2.252039 0
M  V30 44 H 3.390181 1.034342 -0.588365 0
M  V30 45 H 1.267936 1.125989 0.121042 0
M  V30 46 H -0.053760 1.925194 1.374756 0
M  V30 47 H -2.792938 0.652660 2.720035 0
M  V30 48 H -1.251004 1.159279 3.523038 0
M  V30 49 H -2.441887 3.097129 4.539520 0
M  V30 50 H -3.958652 2.620799 3.661879 0
M  V30 51 H -4.255588 1.313916 5.283527 0
M  V30 52 H -2.470219 0.110770 -3.157796 0
M  V30 53 H -4.718991 0.103121 -1.663013 0
M  V30 54 H -6.607064 -1.320999 -1.192220 0
M  V30 55 H -4.238656 -4.756132 -2.099538 0
M  V30 END ATOM
M  V30 BEGIN BOND
M  V30 1 1 1 2
M  V30 2 1 2 3
M  V30 3 1 2 4
M  V30 4 1 2 5
M  V30 5 1 5 6
M  V30 6 1 6 7
M  V30 7 1 7 8
M  V30 8 1 8 9
M  V30 9 2 9 10
M  V30 10 1 10 11
M  V30 11 1 11 12
M  V30 12 2 12 13
M  V30 13 1 12 14
M  V30 14 1 14 15
M  V30 15 1 15 16
M  V30 16 1 16 17
M  V30 17 1 17 18
M  V30 18 2 11 19
M  V30 19 1 19 20
M  V30 20 1 20 21
M  V30 21 2 21 22
M  V30 22 1 22 23
M  V30 23 2 23 24
M  V30 24 1 24 25
M  V30 25 1 24 26
M  V30 26 2 26 27
M  V30 27 1 27 28
M  V30 28 1 19 29
M  V30 29 1 29 30
M  V30 30 2 29 31
M  V30 31 1 31 32
M  V30 32 1 31 9
M  V30 33 1 27 21
M  V30 34 1 1 33
M  V30 35 1 1 34
M  V30 36 1 1 35
M  V30 37 1 3 36
M  V30 38 1 3 37
M  V30 39 1 3 38
M  V30 40 1 4 39
M  V30 41 1 5 40
M  V30 42 1 5 41
M  V30 43 1 7 42
M  V30 44 1 8 43
M  V30 45 1 8 44
M  V30 46 1 10 45
M  V30 47 1 14 46
M  V30 48 1 16 47
M  V30 49 1 16 48
M  V30 50 1 17 49
M  V30 51 1 17 50
M  V30 52 1 18 51
M  V30 53 1 20 52
M  V30 54 1 22 53
M  V30 55 1 23 54
M  V30 56 1 26 55
M  V30 END BOND
M  V30 END CTAB
M  END
>  <Dataset>  (485) 
ChEMBL_Kinases

>  <Ligand_Instance>  (485) 
nan

>  <PDB_ID>  (485) 
nan

>  <Standardized_SMILES>  (485) 
CC(C)(O)CONCc1cc(C(=O)NOCCO)c(Nc2ccc(I)cc2F)c(F)c1F

>  <Name>  (485) 
nan

>  <Pocket>  (485) 
nan

>  <ATP_Site>  (485) 
nan

>  <Peripheral>  (485) 
nan

>  <Num_H_Atoms_ProtBoundConf>  (485) 
nan

>  <Num_Resolved_Atoms>  (485) 
nan

>  <Num_Not_Resolved_Atoms>  (485) 
nan

$$$$
CHEMBL3640628
     RDKit          3D

  0  0  0  0  0  0  0  0  0  0999 V3000
M  V30 BEGIN CTAB
M  V30 COUNTS 45 46 0 0 0
M  V30 BEGIN ATOM
M  V30 1 C -1.195915 -1.221136 4.897176 0
M  V30 2 O -1.708084 -2.289167 4.223737 0
M  V30 3 N -1.065466 -3.434922 4.309538 0
M  V30 4 C 0.318154 -3.457009 3.989464 0
M  V30 5 C 0.474885 -2.997847 2.568126 0
M  V30 6 C 0.936772 -1.720240 2.338561 0
M  V30 7 C 1.085763 -1.280678 1.064289 0
M  V30 8 C 1.571447 0.035525 0.754303 0
M  V30 9 O 1.808195 0.667839 -0.286628 0
M  V30 10 N 1.890941 0.914202 1.809234 0
M  V30 11 O 2.358508 2.182447 1.729092 0
M  V30 12 C 1.239373 3.014105 1.704652 0
M  V30 13 C 1.724208 4.460884 1.598615 0
M  V30 14 O 0.664216 5.359911 1.568493 0
M  V30 15 C 0.792075 -2.063674 -0.024925 0
M  V30 16 N 0.878657 -1.805993 -1.413011 0
M  V30 17 C 0.121930 -1.184306 -2.439600 0
M  V30 18 C 0.669499 -0.137257 -3.170312 0
M  V30 19 C 0.027075 0.546283 -4.177411 0
M  V30 20 C -1.255418 0.134190 -4.455565 0
M  V30 21 I -2.309155 1.136027 -5.989423 0
M  V30 22 C -1.894572 -0.890628 -3.795371 0
M  V30 23 C -1.165524 -1.502187 -2.812328 0
M  V30 24 F -1.796367 -2.506463 -2.159525 0
M  V30 25 C 0.324110 -3.360399 0.207767 0
M  V30 26 F -0.025053 -4.340491 -0.679333 0
M  V30 27 C 0.163031 -3.833812 1.515356 0
M  V30 28 F -0.280967 -5.065595 1.861522 0
M  V30 29 H -0.316412 -1.519494 5.490200 0
M  V30 30 H -1.970479 -0.897831 5.649858 0
M  V30 31 H -1.023546 -0.321321 4.274670 0
M  V30 32 H -1.623265 -4.193501 3.872844 0
M  V30 33 H 0.976710 -2.956014 4.690695 0
M  V30 34 H 0.633323 -4.541621 4.006493 0
M  V30 35 H 1.163493 -1.116201 3.200638 0
M  V30 36 H 1.821470 0.737683 2.856352 0
M  V30 37 H 0.735881 2.967491 2.713697 0
M  V30 38 H 0.502041 2.774020 0.941054 0
M  V30 39 H 2.453208 4.681880 2.396230 0
M  V30 40 H 2.273946 4.540880 0.627267 0
M  V30 41 H -0.175184 4.905897 1.824729 0
M  V30 42 H 1.761706 -2.182717 -1.810704 0
M  V30 43 H 1.694160 0.225265 -2.984112 0
M  V30 44 H 0.465917 1.348139 -4.726796 0
M  V30 45 H -2.896454 -1.185168 -4.039459 0
M  V30 END ATOM
M  V30 BEGIN BOND
M  V30 1 1 1 2
M  V30 2 1 2 3
M  V30 3 1 3 4
M  V30 4 1 4 5
M  V30 5 2 5 6
M  V30 6 1 6 7
M  V30 7 1 7 8
M  V30 8 2 8 9
M  V30 9 1 8 10
M  V30 10 1 10 11
M  V30 11 1 11 12
M  V30 12 1 12 13
M  V30 13 1 13 14
M  V30 14 2 7 15
M  V30 15 1 15 16
M  V30 16 1 16 17
M  V30 17 2 17 18
M  V30 18 1 18 19
M  V30 19 2 19 20
M  V30 20 1 20 21
M  V30 21 1 20 22
M  V30 22 2 22 23
M  V30 23 1 23 24
M  V30 24 1 15 25
M  V30 25 1 25 26
M  V30 26 2 25 27
M  V30 27 1 27 28
M  V30 28 1 27 5
M  V30 29 1 23 17
M  V30 30 1 1 29
M  V30 31 1 1 30
M  V30 32 1 1 31
M  V30 33 1 3 32
M  V30 34 1 4 33
M  V30 35 1 4 34
M  V30 36 1 6 35
M  V30 37 1 10 36
M  V30 38 1 12 37
M  V30 39 1 12 38
M  V30 40 1 13 39
M  V30 41 1 13 40
M  V30 42 1 14 41
M  V30 43 1 16 42
M  V30 44 1 18 43
M  V30 45 1 19 44
M  V30 46 1 22 45
M  V30 END BOND
M  V30 END CTAB
M  END
>  <Dataset>  (486) 
ChEMBL_Kinases

>  <Ligand_Instance>  (486) 
nan

>  <PDB_ID>  (486) 
nan

>  <Standardized_SMILES>  (486) 
CONCc1cc(C(=O)NOCCO)c(Nc2ccc(I)cc2F)c(F)c1F

>  <Name>  (486) 
nan

>  <Pocket>  (486) 
nan

>  <ATP_Site>  (486) 
nan

>  <Peripheral>  (486) 
nan

>  <Num_H_Atoms_ProtBoundConf>  (486) 
nan

>  <Num_Resolved_Atoms>  (486) 
nan

>  <Num_Not_Resolved_Atoms>  (486) 
nan

$$$$
CHEMBL3640627
     RDKit          3D

  0  0  0  0  0  0  0  0  0  0999 V3000
M  V30 BEGIN CTAB
M  V30 COUNTS 52 53 0 0 0
M  V30 BEGIN ATOM
M  V30 1 C 5.122539 -3.170160 3.569619 0
M  V30 2 N 4.761470 -1.915501 2.984593 0
M  V30 3 C 3.867835 -1.030462 3.673218 0
M  V30 4 O 3.454669 -1.456836 4.797308 0
M  V30 5 C 3.369386 0.299707 3.250946 0
M  V30 6 O 3.860067 0.706595 2.010831 0
M  V30 7 N 3.392140 1.925391 1.661847 0
M  V30 8 C 3.084034 2.022146 0.272174 0
M  V30 9 C 2.068014 1.057949 -0.155219 0
M  V30 10 C 0.737849 1.395352 -0.389453 0
M  V30 11 C -0.120514 0.392521 -0.784615 0
M  V30 12 C -1.536500 0.714709 -1.042954 0
M  V30 13 O -2.325385 -0.205702 -1.406136 0
M  V30 14 N -2.156108 1.986760 -0.930368 0
M  V30 15 O -3.467578 1.788958 -1.268845 0
M  V30 16 C -4.189240 1.473921 -0.120840 0
M  V30 17 C -5.639144 1.179573 -0.428642 0
M  V30 18 O -6.232642 2.298478 -1.021596 0
M  V30 19 C 0.223802 -0.929399 -0.970479 0
M  V30 20 N -0.691540 -1.936650 -1.378628 0
M  V30 21 C -1.511158 -2.803869 -0.604813 0
M  V30 22 C -1.450083 -2.698536 0.766254 0
M  V30 23 C -2.283612 -3.585589 1.454406 0
M  V30 24 C -3.097209 -4.489621 0.775363 0
M  V30 25 I -4.344357 -5.815254 1.839925 0
M  V30 26 C -3.103036 -4.535105 -0.601952 0
M  V30 27 C -2.287787 -3.669335 -1.340541 0
M  V30 28 F -2.273908 -3.692808 -2.692811 0
M  V30 29 C 1.557482 -1.218903 -0.725810 0
M  V30 30 F 1.917394 -2.530613 -0.906157 0
M  V30 31 C 2.490656 -0.265306 -0.323776 0
M  V30 32 F 3.745090 -0.733854 -0.135504 0
M  V30 33 H 4.333742 -3.952484 3.446347 0
M  V30 34 H 6.067592 -3.502706 3.052817 0
M  V30 35 H 5.403276 -3.025344 4.642690 0
M  V30 36 H 5.085392 -1.531687 2.059240 0
M  V30 37 H 3.635610 1.007994 4.059418 0
M  V30 38 H 2.262084 0.261030 3.173886 0
M  V30 39 H 4.044069 2.677125 1.975382 0
M  V30 40 H 4.025658 1.774081 -0.302092 0
M  V30 41 H 2.790694 3.009684 -0.070706 0
M  V30 42 H 0.456076 2.411061 -0.250545 0
M  V30 43 H -1.512636 2.775549 -0.626433 0
M  V30 44 H -4.205359 2.409037 0.511717 0
M  V30 45 H -3.748001 0.658654 0.473838 0
M  V30 46 H -5.766814 0.288639 -1.046002 0
M  V30 47 H -6.154527 1.010225 0.539587 0
M  V30 48 H -6.840484 1.952563 -1.726673 0
M  V30 49 H -0.630400 -1.901586 -2.406999 0
M  V30 50 H -0.804350 -1.981936 1.253734 0
M  V30 51 H -2.284846 -3.557181 2.538888 0
M  V30 52 H -3.735063 -5.237815 -1.141751 0
M  V30 END ATOM
M  V30 BEGIN BOND
M  V30 1 1 1 2
M  V30 2 1 2 3
M  V30 3 2 3 4
M  V30 4 1 3 5
M  V30 5 1 5 6
M  V30 6 1 6 7
M  V30 7 1 7 8
M  V30 8 1 8 9
M  V30 9 2 9 10
M  V30 10 1 10 11
M  V30 11 1 11 12
M  V30 12 2 12 13
M  V30 13 1 12 14
M  V30 14 1 14 15
M  V30 15 1 15 16
M  V30 16 1 16 17
M  V30 17 1 17 18
M  V30 18 2 11 19
M  V30 19 1 19 20
M  V30 20 1 20 21
M  V30 21 2 21 22
M  V30 22 1 22 23
M  V30 23 2 23 24
M  V30 24 1 24 25
M  V30 25 1 24 26
M  V30 26 2 26 27
M  V30 27 1 27 28
M  V30 28 1 19 29
M  V30 29 1 29 30
M  V30 30 2 29 31
M  V30 31 1 31 32
M  V30 32 1 31 9
M  V30 33 1 27 21
M  V30 34 1 1 33
M  V30 35 1 1 34
M  V30 36 1 1 35
M  V30 37 1 2 36
M  V30 38 1 5 37
M  V30 39 1 5 38
M  V30 40 1 7 39
M  V30 41 1 8 40
M  V30 42 1 8 41
M  V30 43 1 10 42
M  V30 44 1 14 43
M  V30 45 1 16 44
M  V30 46 1 16 45
M  V30 47 1 17 46
M  V30 48 1 17 47
M  V30 49 1 18 48
M  V30 50 1 20 49
M  V30 51 1 22 50
M  V30 52 1 23 51
M  V30 53 1 26 52
M  V30 END BOND
M  V30 END CTAB
M  END
>  <Dataset>  (487) 
ChEMBL_Kinases

>  <Ligand_Instance>  (487) 
nan

>  <PDB_ID>  (487) 
nan

>  <Standardized_SMILES>  (487) 
CNC(=O)CONCc1cc(C(=O)NOCCO)c(Nc2ccc(I)cc2F)c(F)c1F

>  <Name>  (487) 
nan

>  <Pocket>  (487) 
nan

>  <ATP_Site>  (487) 
nan

>  <Peripheral>  (487) 
nan

>  <Num_H_Atoms_ProtBoundConf>  (487) 
nan

>  <Num_Resolved_Atoms>  (487) 
nan

>  <Num_Not_Resolved_Atoms>  (487) 
nan

$$$$
CHEMBL3640626
     RDKit          3D

  0  0  0  0  0  0  0  0  0  0999 V3000
M  V30 BEGIN CTAB
M  V30 COUNTS 52 53 0 0 0
M  V30 BEGIN ATOM
M  V30 1 O 2.234856 -2.839689 0.338861 0
M  V30 2 C 2.099334 -1.669059 0.748817 0
M  V30 3 N 3.010076 -1.445611 1.792008 0
M  V30 4 O 3.956477 -2.147769 2.437087 0
M  V30 5 C 4.080057 -3.442651 1.961389 0
M  V30 6 C 5.151912 -4.218276 2.702490 0
M  V30 7 O 5.184843 -5.500755 2.140611 0
M  V30 8 C 1.211264 -0.602922 0.334914 0
M  V30 9 C 1.266108 0.636640 0.910923 0
M  V30 10 C 0.419549 1.632458 0.482525 0
M  V30 11 C 0.475888 2.973154 1.127533 0
M  V30 12 N -0.543228 3.216675 2.086880 0
M  V30 13 O -1.803542 3.161683 1.682270 0
M  V30 14 C -2.313668 4.434221 1.462685 0
M  V30 15 C -3.819387 4.417928 1.383511 0
M  V30 16 C -4.350815 3.542544 0.276114 0
M  V30 17 O -3.930973 2.239851 0.504166 0
M  V30 18 C -0.471763 1.339576 -0.533788 0
M  V30 19 F -1.265618 2.389723 -0.903928 0
M  V30 20 C -0.513506 0.068819 -1.109704 0
M  V30 21 F -1.444040 0.025424 -2.084350 0
M  V30 22 C 0.347392 -0.947272 -0.673749 0
M  V30 23 N 0.157745 -2.161757 -1.371450 0
M  V30 24 C -0.542538 -3.374546 -1.141215 0
M  V30 25 C 0.042754 -4.618427 -1.122294 0
M  V30 26 C -0.562491 -5.828994 -0.890924 0
M  V30 27 C -1.928903 -5.792623 -0.647134 0
M  V30 28 I -2.926390 -7.612909 -0.282800 0
M  V30 29 C -2.617470 -4.595608 -0.642972 0
M  V30 30 C -1.894219 -3.451532 -0.888765 0
M  V30 31 F -2.665402 -2.337547 -0.854593 0
M  V30 32 H 3.157842 -0.579145 2.351822 0
M  V30 33 H 4.410868 -3.434542 0.894498 0
M  V30 34 H 3.143018 -4.027922 2.113696 0
M  V30 35 H 6.161374 -3.781711 2.542748 0
M  V30 36 H 4.899676 -4.354060 3.761462 0
M  V30 37 H 6.038705 -5.690969 1.671541 0
M  V30 38 H 1.943803 0.873825 1.688936 0
M  V30 39 H 1.463678 3.047593 1.650143 0
M  V30 40 H 0.516304 3.731005 0.314104 0
M  V30 41 H -0.409593 2.549592 2.880456 0
M  V30 42 H -1.958103 4.864004 0.498603 0
M  V30 43 H -1.972226 5.151401 2.243710 0
M  V30 44 H -4.226106 5.449514 1.332373 0
M  V30 45 H -4.240509 3.992310 2.328763 0
M  V30 46 H -5.458452 3.586801 0.324705 0
M  V30 47 H -3.982495 3.933536 -0.698021 0
M  V30 48 H -4.208554 1.616522 -0.191387 0
M  V30 49 H 0.649598 -2.206621 -2.301373 0
M  V30 50 H 1.117109 -4.706431 -1.311864 0
M  V30 51 H -0.055465 -6.768344 -0.888554 0
M  V30 52 H -3.670435 -4.633651 -0.447787 0
M  V30 END ATOM
M  V30 BEGIN BOND
M  V30 1 2 1 2
M  V30 2 1 2 3
M  V30 3 1 3 4
M  V30 4 1 4 5
M  V30 5 1 5 6
M  V30 6 1 6 7
M  V30 7 1 2 8
M  V30 8 2 8 9
M  V30 9 1 9 10
M  V30 10 1 10 11
M  V30 11 1 11 12
M  V30 12 1 12 13
M  V30 13 1 13 14
M  V30 14 1 14 15
M  V30 15 1 15 16
M  V30 16 1 16 17
M  V30 17 2 10 18
M  V30 18 1 18 19
M  V30 19 1 18 20
M  V30 20 1 20 21
M  V30 21 2 20 22
M  V30 22 1 22 23
M  V30 23 1 23 24
M  V30 24 2 24 25
M  V30 25 1 25 26
M  V30 26 2 26 27
M  V30 27 1 27 28
M  V30 28 1 27 29
M  V30 29 2 29 30
M  V30 30 1 30 31
M  V30 31 1 22 8
M  V30 32 1 30 24
M  V30 33 1 3 32
M  V30 34 1 5 33
M  V30 35 1 5 34
M  V30 36 1 6 35
M  V30 37 1 6 36
M  V30 38 1 7 37
M  V30 39 1 9 38
M  V30 40 1 11 39
M  V30 41 1 11 40
M  V30 42 1 12 41
M  V30 43 1 14 42
M  V30 44 1 14 43
M  V30 45 1 15 44
M  V30 46 1 15 45
M  V30 47 1 16 46
M  V30 48 1 16 47
M  V30 49 1 17 48
M  V30 50 1 23 49
M  V30 51 1 25 50
M  V30 52 1 26 51
M  V30 53 1 29 52
M  V30 END BOND
M  V30 END CTAB
M  END
>  <Dataset>  (488) 
ChEMBL_Kinases

>  <Ligand_Instance>  (488) 
nan

>  <PDB_ID>  (488) 
nan

>  <Standardized_SMILES>  (488) 
O=C(NOCCO)c1cc(CNOCCCO)c(F)c(F)c1Nc1ccc(I)cc1F

>  <Name>  (488) 
nan

>  <Pocket>  (488) 
nan

>  <ATP_Site>  (488) 
nan

>  <Peripheral>  (488) 
nan

>  <Num_H_Atoms_ProtBoundConf>  (488) 
nan

>  <Num_Resolved_Atoms>  (488) 
nan

>  <Num_Not_Resolved_Atoms>  (488) 
nan

$$$$
CHEMBL3640538
     RDKit          3D

  0  0  0  0  0  0  0  0  0  0999 V3000
M  V30 BEGIN CTAB
M  V30 COUNTS 55 58 0 0 0
M  V30 BEGIN ATOM
M  V30 1 C 5.250297 -1.986772 3.251028 0
M  V30 2 N 4.731196 -0.831856 2.555077 0
M  V30 3 C 5.481653 0.152630 1.896440 0
M  V30 4 C 6.854323 0.171037 1.808780 0
M  V30 5 C 7.635290 -0.853081 2.406260 0
M  V30 6 N 8.290029 -1.681731 2.886150 0
M  V30 7 C 7.587333 1.162135 1.147390 0
M  V30 8 N 6.917569 2.163159 0.557543 0
M  V30 9 C 5.579384 2.196424 0.610879 0
M  V30 10 C 4.992280 3.266503 -0.026889 0
M  V30 11 C 3.621542 3.405368 -0.037982 0
M  V30 12 C 2.859485 2.430344 0.614860 0
M  V30 13 C 1.429363 2.579567 0.600085 0
M  V30 14 C 0.226234 2.684086 0.590690 0
M  V30 15 C -1.252714 2.786646 0.579755 0
M  V30 16 N -1.830936 1.434284 0.612640 0
M  V30 17 C -3.247637 1.394218 0.605901 0
M  V30 18 O -3.692722 2.592196 0.571878 0
M  V30 19 C -4.094886 0.215267 0.632347 0
M  V30 20 C -5.462543 0.495884 0.616636 0
M  V30 21 C -6.396832 -0.515052 0.636998 0
M  V30 22 C -6.045533 -1.841452 0.673455 0
M  V30 23 N -4.720973 -2.079748 0.687830 0
M  V30 24 C -4.261649 -3.449317 0.725093 0
M  V30 25 C -4.078928 -4.020132 -0.631665 0
M  V30 26 C -5.141400 -4.649360 -1.266367 0
M  V30 27 C -5.129979 -5.225958 -2.514980 0
M  V30 28 C -3.902749 -5.144505 -3.170586 0
M  V30 29 F -3.801922 -5.687234 -4.407144 0
M  V30 30 C -2.790862 -4.540233 -2.622953 0
M  V30 31 F -1.610277 -4.466160 -3.263055 0
M  V30 32 C -2.911650 -3.993187 -1.363960 0
M  V30 33 C -3.792967 -1.128142 0.668985 0
M  V30 34 O -2.561912 -1.355954 0.682745 0
M  V30 35 C 3.514686 1.387927 1.231553 0
M  V30 36 C 4.872321 1.213833 1.265529 0
M  V30 37 H 4.398890 -2.574051 3.707011 0
M  V30 38 H 5.746289 -2.696571 2.585944 0
M  V30 39 H 5.832645 -1.651877 4.129907 0
M  V30 40 H 3.713259 -0.772911 2.573539 0
M  V30 41 H 8.665113 1.160422 1.088785 0
M  V30 42 H 5.591185 4.032825 -0.540122 0
M  V30 43 H 3.181276 4.249427 -0.542237 0
M  V30 44 H -1.612958 3.409724 1.425004 0
M  V30 45 H -1.580947 3.240375 -0.360581 0
M  V30 46 H -1.305820 0.538987 0.639370 0
M  V30 47 H -5.849797 1.526944 0.587461 0
M  V30 48 H -7.443531 -0.263875 0.623984 0
M  V30 49 H -6.796740 -2.613161 0.688705 0
M  V30 50 H -5.044499 -4.048975 1.236084 0
M  V30 51 H -3.345399 -3.548892 1.342847 0
M  V30 52 H -6.102122 -4.705839 -0.737788 0
M  V30 53 H -6.008579 -5.692271 -2.923720 0
M  V30 54 H -2.055352 -3.519830 -0.922664 0
M  V30 55 H 2.848259 0.706980 1.694774 0
M  V30 END ATOM
M  V30 BEGIN BOND
M  V30 1 1 1 2
M  V30 2 1 2 3
M  V30 3 2 3 4
M  V30 4 1 4 5
M  V30 5 3 5 6
M  V30 6 1 4 7
M  V30 7 2 7 8
M  V30 8 1 8 9
M  V30 9 2 9 10
M  V30 10 1 10 11
M  V30 11 2 11 12
M  V30 12 1 12 13
M  V30 13 3 13 14
M  V30 14 1 14 15
M  V30 15 1 15 16
M  V30 16 1 16 17
M  V30 17 2 17 18
M  V30 18 1 17 19
M  V30 19 2 19 20
M  V30 20 1 20 21
M  V30 21 2 21 22
M  V30 22 1 22 23
M  V30 23 1 23 24
M  V30 24 1 24 25
M  V30 25 2 25 26
M  V30 26 1 26 27
M  V30 27 2 27 28
M  V30 28 1 28 29
M  V30 29 1 28 30
M  V30 30 1 30 31
M  V30 31 2 30 32
M  V30 32 1 23 33
M  V30 33 2 33 34
M  V30 34 1 12 35
M  V30 35 2 35 36
M  V30 36 1 36 3
M  V30 37 1 36 9
M  V30 38 1 33 19
M  V30 39 1 32 25
M  V30 40 1 1 37
M  V30 41 1 1 38
M  V30 42 1 1 39
M  V30 43 1 2 40
M  V30 44 1 7 41
M  V30 45 1 10 42
M  V30 46 1 11 43
M  V30 47 1 15 44
M  V30 48 1 15 45
M  V30 49 1 16 46
M  V30 50 1 20 47
M  V30 51 1 21 48
M  V30 52 1 22 49
M  V30 53 1 24 50
M  V30 54 1 24 51
M  V30 55 1 26 52
M  V30 56 1 27 53
M  V30 57 1 32 54
M  V30 58 1 35 55
M  V30 END BOND
M  V30 END CTAB
M  END
>  <Dataset>  (489) 
ChEMBL_Kinases

>  <Ligand_Instance>  (489) 
nan

>  <PDB_ID>  (489) 
nan

>  <Standardized_SMILES>  (489) 
CNc1c(C#N)cnc2ccc(C#CCNC(=O)c3cccn(Cc4ccc(F)c(F)c4)c3=O)cc12

>  <Name>  (489) 
nan

>  <Pocket>  (489) 
nan

>  <ATP_Site>  (489) 
nan

>  <Peripheral>  (489) 
nan

>  <Num_H_Atoms_ProtBoundConf>  (489) 
nan

>  <Num_Resolved_Atoms>  (489) 
nan

>  <Num_Not_Resolved_Atoms>  (489) 
nan

$$$$
CHEMBL3640539
     RDKit          3D

  0  0  0  0  0  0  0  0  0  0999 V3000
M  V30 BEGIN CTAB
M  V30 COUNTS 71 75 0 0 0
M  V30 BEGIN ATOM
M  V30 1 C -0.948859 0.685466 -2.132703 0
M  V30 2 N -1.809593 -0.265453 -2.794545 0
M  V30 3 C -1.118498 -1.401311 -3.268750 0
M  V30 4 C -0.085245 -1.332161 -4.296320 0
M  V30 5 C -0.422948 -0.777515 -5.604254 0
M  V30 6 C -1.045067 -1.371403 -6.678089 0
M  V30 7 C -1.187991 -0.676520 -7.881392 0
M  V30 8 C -0.720680 0.607288 -8.038953 0
M  V30 9 C -0.085711 1.256377 -6.990361 0
M  V30 10 C 0.038566 0.531683 -5.803445 0
M  V30 11 C -3.200414 0.020416 -2.799814 0
M  V30 12 C -4.044726 0.697223 -3.635001 0
M  V30 13 C -3.425830 1.302766 -4.769735 0
M  V30 14 N -2.950262 1.795022 -5.674647 0
M  V30 15 C -5.393879 0.858826 -3.475298 0
M  V30 16 N -5.974902 0.308607 -2.397728 0
M  V30 17 C -5.241692 -0.389110 -1.491202 0
M  V30 18 C -5.958451 -0.888744 -0.435425 0
M  V30 19 C -5.266406 -1.594767 0.518445 0
M  V30 20 C -3.898856 -1.786744 0.405795 0
M  V30 21 C -3.149902 -2.529159 1.410469 0
M  V30 22 C -2.512162 -3.137912 2.233400 0
M  V30 23 C -1.712312 -3.876895 3.224256 0
M  V30 24 N -0.463229 -3.157047 3.445222 0
M  V30 25 C 0.512491 -3.621063 4.345469 0
M  V30 26 O 0.105040 -4.710642 4.879534 0
M  V30 27 C 1.795043 -3.019634 4.670015 0
M  V30 28 C 2.552002 -3.723131 5.613713 0
M  V30 29 C 3.788771 -3.270065 6.018116 0
M  V30 30 C 4.337274 -2.113967 5.519593 0
M  V30 31 N 3.584803 -1.462918 4.615719 0
M  V30 32 C 4.127506 -0.237471 4.066202 0
M  V30 33 C 3.749332 0.957443 4.865334 0
M  V30 34 C 2.621910 1.720738 4.640243 0
M  V30 35 C 2.290378 2.825553 5.396593 0
M  V30 36 C 3.148579 3.175407 6.436974 0
M  V30 37 F 2.863111 4.255184 7.207767 0
M  V30 38 C 4.298232 2.449594 6.715327 0
M  V30 39 F 5.127655 2.797381 7.729534 0
M  V30 40 C 4.557334 1.359440 5.912769 0
M  V30 41 C 2.382939 -1.886510 4.210718 0
M  V30 42 O 1.713184 -1.247309 3.363755 0
M  V30 43 C -3.277430 -1.244982 -0.690774 0
M  V30 44 C -3.865934 -0.530086 -1.693244 0
M  V30 45 H -0.539739 1.438417 -2.856377 0
M  V30 46 H -1.515154 1.263469 -1.382689 0
M  V30 47 H -0.125990 0.198749 -1.545309 0
M  V30 48 H -1.937354 -2.092989 -3.689104 0
M  V30 49 H -0.748016 -2.047505 -2.400976 0
M  V30 50 H 0.896834 -0.910870 -3.922201 0
M  V30 51 H 0.230047 -2.414961 -4.520651 0
M  V30 52 H -1.384336 -2.370648 -6.485136 0
M  V30 53 H -1.674949 -1.177770 -8.681625 0
M  V30 54 H -0.831566 1.145940 -8.973775 0
M  V30 55 H 0.278661 2.248918 -7.104145 0
M  V30 56 H 0.543380 1.097769 -5.025270 0
M  V30 57 H -5.954685 1.415527 -4.205271 0
M  V30 58 H -7.015092 -0.748075 -0.336526 0
M  V30 59 H -5.798320 -1.999443 1.357610 0
M  V30 60 H -2.299158 -3.856998 4.165634 0
M  V30 61 H -1.566001 -4.921445 2.940921 0
M  V30 62 H -0.271709 -2.272173 2.929594 0
M  V30 63 H 2.186094 -4.652358 6.058402 0
M  V30 64 H 4.338183 -3.846793 6.749168 0
M  V30 65 H 5.312005 -1.793388 5.864321 0
M  V30 66 H 5.254333 -0.300141 4.016345 0
M  V30 67 H 3.838559 -0.117517 2.985413 0
M  V30 68 H 1.963962 1.446841 3.835123 0
M  V30 69 H 1.395023 3.397503 5.186503 0
M  V30 70 H 5.446627 0.806873 6.136600 0
M  V30 71 H -2.217538 -1.418256 -0.720266 0
M  V30 END ATOM
M  V30 BEGIN BOND
M  V30 1 1 1 2
M  V30 2 1 2 3
M  V30 3 1 3 4
M  V30 4 1 4 5
M  V30 5 2 5 6
M  V30 6 1 6 7
M  V30 7 2 7 8
M  V30 8 1 8 9
M  V30 9 2 9 10
M  V30 10 1 2 11
M  V30 11 2 11 12
M  V30 12 1 12 13
M  V30 13 3 13 14
M  V30 14 1 12 15
M  V30 15 2 15 16
M  V30 16 1 16 17
M  V30 17 2 17 18
M  V30 18 1 18 19
M  V30 19 2 19 20
M  V30 20 1 20 21
M  V30 21 3 21 22
M  V30 22 1 22 23
M  V30 23 1 23 24
M  V30 24 1 24 25
M  V30 25 2 25 26
M  V30 26 1 25 27
M  V30 27 2 27 28
M  V30 28 1 28 29
M  V30 29 2 29 30
M  V30 30 1 30 31
M  V30 31 1 31 32
M  V30 32 1 32 33
M  V30 33 2 33 34
M  V30 34 1 34 35
M  V30 35 2 35 36
M  V30 36 1 36 37
M  V30 37 1 36 38
M  V30 38 1 38 39
M  V30 39 2 38 40
M  V30 40 1 31 41
M  V30 41 2 41 42
M  V30 42 1 20 43
M  V30 43 2 43 44
M  V30 44 1 10 5
M  V30 45 1 44 11
M  V30 46 1 44 17
M  V30 47 1 41 27
M  V30 48 1 40 33
M  V30 49 1 1 45
M  V30 50 1 1 46
M  V30 51 1 1 47
M  V30 52 1 3 48
M  V30 53 1 3 49
M  V30 54 1 4 50
M  V30 55 1 4 51
M  V30 56 1 6 52
M  V30 57 1 7 53
M  V30 58 1 8 54
M  V30 59 1 9 55
M  V30 60 1 10 56
M  V30 61 1 15 57
M  V30 62 1 18 58
M  V30 63 1 19 59
M  V30 64 1 23 60
M  V30 65 1 23 61
M  V30 66 1 24 62
M  V30 67 1 28 63
M  V30 68 1 29 64
M  V30 69 1 30 65
M  V30 70 1 32 66
M  V30 71 1 32 67
M  V30 72 1 34 68
M  V30 73 1 35 69
M  V30 74 1 40 70
M  V30 75 1 43 71
M  V30 END BOND
M  V30 END CTAB
M  END
>  <Dataset>  (490) 
ChEMBL_Kinases

>  <Ligand_Instance>  (490) 
nan

>  <PDB_ID>  (490) 
nan

>  <Standardized_SMILES>  (490) 
CN(CCc1ccccc1)c1c(C#N)cnc2ccc(C#CCNC(=O)c3cccn(Cc4ccc(F)c(F)c4)c3=O)cc12

>  <Name>  (490) 
nan

>  <Pocket>  (490) 
nan

>  <ATP_Site>  (490) 
nan

>  <Peripheral>  (490) 
nan

>  <Num_H_Atoms_ProtBoundConf>  (490) 
nan

>  <Num_Resolved_Atoms>  (490) 
nan

>  <Num_Not_Resolved_Atoms>  (490) 
nan

$$$$
CHEMBL3640540
     RDKit          3D

  0  0  0  0  0  0  0  0  0  0999 V3000
M  V30 BEGIN CTAB
M  V30 COUNTS 71 75 0 0 0
M  V30 BEGIN ATOM
M  V30 1 O 5.492987 -0.505211 5.028884 0
M  V30 2 C 4.380649 -1.095751 4.891040 0
M  V30 3 N 3.925894 -0.862167 3.573407 0
M  V30 4 C 4.903660 -0.027828 2.864946 0
M  V30 5 C 4.395152 0.226988 1.492789 0
M  V30 6 C 3.983388 0.454908 0.384544 0
M  V30 7 C 3.486749 0.749313 -0.927246 0
M  V30 8 C 4.214662 1.327697 -1.930800 0
M  V30 9 C 3.689557 1.620717 -3.192906 0
M  V30 10 C 2.373575 1.324303 -3.471655 0
M  V30 11 N 1.747447 1.565263 -4.641348 0
M  V30 12 C 0.430962 1.233171 -4.795935 0
M  V30 13 C -0.282394 0.649786 -3.774770 0
M  V30 14 N -1.646170 0.283214 -3.867325 0
M  V30 15 C -2.672502 0.350430 -4.836318 0
M  V30 16 C -2.402732 -0.336912 -6.160261 0
M  V30 17 C -3.760586 -0.367575 -6.899229 0
M  V30 18 N -4.759757 0.230056 -6.084852 0
M  V30 19 C -6.084420 -0.231681 -6.188603 0
M  V30 20 C -6.374110 -1.614234 -5.703660 0
M  V30 21 O -5.663042 -2.616785 -6.364388 0
M  V30 22 C -4.539512 1.600939 -5.793703 0
M  V30 23 C -3.224967 1.757846 -5.071979 0
M  V30 24 N 0.370012 0.418868 -2.611127 0
M  V30 25 C 1.669459 0.742567 -2.442287 0
M  V30 26 C 2.152318 0.434483 -1.176150 0
M  V30 27 C 3.738923 -1.861977 5.941472 0
M  V30 28 C 4.454407 -1.904063 7.149858 0
M  V30 29 N 3.958843 -2.581707 8.198455 0
M  V30 30 C 2.793700 -3.241406 8.169991 0
M  V30 31 N 2.108716 -3.206683 7.025675 0
M  V30 32 C 0.815692 -3.896876 6.919114 0
M  V30 33 C -0.190596 -2.886410 7.369926 0
M  V30 34 C -0.900695 -1.970678 6.634435 0
M  V30 35 C -1.781815 -1.107950 7.251974 0
M  V30 36 C -1.987498 -1.127807 8.639510 0
M  V30 37 F -2.876512 -0.232998 9.145266 0
M  V30 38 C -1.267208 -2.055669 9.373593 0
M  V30 39 F -1.496677 -2.033988 10.702679 0
M  V30 40 C -0.393683 -2.906005 8.733412 0
M  V30 41 C 2.550073 -2.547587 5.945243 0
M  V30 42 O 1.917995 -2.511871 4.879776 0
M  V30 43 H 3.005325 -1.294394 3.295570 0
M  V30 44 H 5.869117 -0.527326 2.749202 0
M  V30 45 H 4.950783 0.933655 3.417568 0
M  V30 46 H 5.264133 1.568702 -1.714570 0
M  V30 47 H 4.275665 2.078270 -3.976923 0
M  V30 48 H -0.024429 1.454630 -5.739678 0
M  V30 49 H -2.011839 -0.160976 -2.967700 0
M  V30 50 H -3.571565 -0.225759 -4.429625 0
M  V30 51 H -2.070435 -1.370614 -6.001335 0
M  V30 52 H -1.670797 0.178279 -6.787484 0
M  V30 53 H -3.991986 -1.351926 -7.315388 0
M  V30 54 H -3.621940 0.298890 -7.793436 0
M  V30 55 H -6.402674 -0.190809 -7.260554 0
M  V30 56 H -6.770360 0.449572 -5.643396 0
M  V30 57 H -7.456734 -1.832605 -5.957214 0
M  V30 58 H -6.341797 -1.735804 -4.601957 0
M  V30 59 H -5.218661 -3.256289 -5.761208 0
M  V30 60 H -4.587720 2.205533 -6.727118 0
M  V30 61 H -5.335448 2.022896 -5.108526 0
M  V30 62 H -3.403361 2.209188 -4.063209 0
M  V30 63 H -2.494447 2.368422 -5.655120 0
M  V30 64 H 1.557313 -0.022329 -0.414573 0
M  V30 65 H 5.402395 -1.418319 7.309957 0
M  V30 66 H 2.443843 -3.768519 9.047414 0
M  V30 67 H 0.849066 -4.782169 7.559845 0
M  V30 68 H 0.635010 -4.186451 5.843145 0
M  V30 69 H -0.687294 -2.022590 5.576951 0
M  V30 70 H -2.282354 -0.428374 6.547846 0
M  V30 71 H 0.078522 -3.560945 9.459665 0
M  V30 END ATOM
M  V30 BEGIN BOND
M  V30 1 2 1 2
M  V30 2 1 2 3
M  V30 3 1 3 4
M  V30 4 1 4 5
M  V30 5 3 5 6
M  V30 6 1 6 7
M  V30 7 2 7 8
M  V30 8 1 8 9
M  V30 9 2 9 10
M  V30 10 1 10 11
M  V30 11 2 11 12
M  V30 12 1 12 13
M  V30 13 1 13 14
M  V30 14 1 14 15
M  V30 15 1 15 16
M  V30 16 1 16 17
M  V30 17 1 17 18
M  V30 18 1 18 19
M  V30 19 1 19 20
M  V30 20 1 20 21
M  V30 21 1 18 22
M  V30 22 1 22 23
M  V30 23 2 13 24
M  V30 24 1 24 25
M  V30 25 2 25 26
M  V30 26 1 2 27
M  V30 27 2 27 28
M  V30 28 1 28 29
M  V30 29 2 29 30
M  V30 30 1 30 31
M  V30 31 1 31 32
M  V30 32 1 32 33
M  V30 33 2 33 34
M  V30 34 1 34 35
M  V30 35 2 35 36
M  V30 36 1 36 37
M  V30 37 1 36 38
M  V30 38 1 38 39
M  V30 39 2 38 40
M  V30 40 1 31 41
M  V30 41 2 41 42
M  V30 42 1 26 7
M  V30 43 1 41 27
M  V30 44 1 25 10
M  V30 45 1 40 33
M  V30 46 1 23 15
M  V30 47 1 3 43
M  V30 48 1 4 44
M  V30 49 1 4 45
M  V30 50 1 8 46
M  V30 51 1 9 47
M  V30 52 1 12 48
M  V30 53 1 14 49
M  V30 54 1 15 50
M  V30 55 1 16 51
M  V30 56 1 16 52
M  V30 57 1 17 53
M  V30 58 1 17 54
M  V30 59 1 19 55
M  V30 60 1 19 56
M  V30 61 1 20 57
M  V30 62 1 20 58
M  V30 63 1 21 59
M  V30 64 1 22 60
M  V30 65 1 22 61
M  V30 66 1 23 62
M  V30 67 1 23 63
M  V30 68 1 26 64
M  V30 69 1 28 65
M  V30 70 1 30 66
M  V30 71 1 32 67
M  V30 72 1 32 68
M  V30 73 1 34 69
M  V30 74 1 35 70
M  V30 75 1 40 71
M  V30 END BOND
M  V30 END CTAB
M  END
>  <Dataset>  (491) 
ChEMBL_Kinases

>  <Ligand_Instance>  (491) 
nan

>  <PDB_ID>  (491) 
nan

>  <Standardized_SMILES>  (491) 
O=C(NCC#Cc1ccc2ncc(NC3CCN(CCO)CC3)nc2c1)c1cncn(Cc2ccc(F)c(F)c2)c1=O

>  <Name>  (491) 
nan

>  <Pocket>  (491) 
nan

>  <ATP_Site>  (491) 
nan

>  <Peripheral>  (491) 
nan

>  <Num_H_Atoms_ProtBoundConf>  (491) 
nan

>  <Num_Resolved_Atoms>  (491) 
nan

>  <Num_Not_Resolved_Atoms>  (491) 
nan

$$$$
CHEMBL3640541
     RDKit          3D

  0  0  0  0  0  0  0  0  0  0999 V3000
M  V30 BEGIN CTAB
M  V30 COUNTS 56 59 0 0 0
M  V30 BEGIN ATOM
M  V30 1 C 3.354520 -3.347807 2.823875 0
M  V30 2 N 3.115133 -2.095141 2.088039 0
M  V30 3 C 4.262602 -1.241271 1.881095 0
M  V30 4 N 5.424850 -1.683272 2.389887 0
M  V30 5 C 6.586902 -1.045101 2.308929 0
M  V30 6 N 6.525652 0.104078 1.667440 0
M  V30 7 C 5.459044 0.676769 1.109228 0
M  V30 8 C 5.495668 1.885653 0.457162 0
M  V30 9 C 4.353200 2.416051 -0.096054 0
M  V30 10 C 3.214724 1.656699 0.056285 0
M  V30 11 C 2.011274 2.232341 -0.535747 0
M  V30 12 C 1.004649 2.690810 -1.023072 0
M  V30 13 C -0.229018 3.229703 -1.600146 0
M  V30 14 N -1.287518 2.246272 -1.504947 0
M  V30 15 C -1.534523 1.901370 -0.153955 0
M  V30 16 O -0.739241 2.569544 0.588405 0
M  V30 17 C -2.502290 0.964343 0.369546 0
M  V30 18 C -2.510727 0.835921 1.758742 0
M  V30 19 C -3.384713 -0.023848 2.387645 0
M  V30 20 C -4.293712 -0.801677 1.701533 0
M  V30 21 N -4.258775 -0.654005 0.371650 0
M  V30 22 C -5.182600 -1.436811 -0.423483 0
M  V30 23 C -4.594185 -2.732651 -0.801179 0
M  V30 24 C -4.807506 -3.786351 0.094939 0
M  V30 25 C -4.311442 -5.063077 -0.132404 0
M  V30 26 C -3.582358 -5.320736 -1.272894 0
M  V30 27 F -3.041715 -6.516454 -1.618161 0
M  V30 28 C -3.362852 -4.294940 -2.165890 0
M  V30 29 F -2.654997 -4.473348 -3.308906 0
M  V30 30 C -3.860144 -3.035382 -1.927873 0
M  V30 31 C -3.423901 0.170730 -0.268491 0
M  V30 32 O -3.421786 0.281044 -1.515043 0
M  V30 33 C 3.117037 0.420882 0.708983 0
M  V30 34 C 1.836101 -0.289798 0.799335 0
M  V30 35 C 4.301151 -0.030604 1.228862 0
M  V30 36 H 2.843232 -3.372809 3.796947 0
M  V30 37 H 3.189836 -4.239064 2.190028 0
M  V30 38 H 4.472710 -3.407562 3.045618 0
M  V30 39 H 2.131323 -2.382699 2.024440 0
M  V30 40 H 7.484022 -1.463564 2.743864 0
M  V30 41 H 6.440805 2.405857 0.390850 0
M  V30 42 H 4.345101 3.353185 -0.609908 0
M  V30 43 H -0.584266 4.136783 -1.058829 0
M  V30 44 H -0.015625 3.542368 -2.632908 0
M  V30 45 H -1.861771 1.780986 -2.238960 0
M  V30 46 H -1.821917 1.415463 2.392181 0
M  V30 47 H -3.351943 -0.087519 3.468453 0
M  V30 48 H -4.939415 -1.444660 2.255797 0
M  V30 49 H -5.407913 -0.867265 -1.361260 0
M  V30 50 H -6.137106 -1.611678 0.113709 0
M  V30 51 H -5.363752 -3.710815 1.025351 0
M  V30 52 H -4.462954 -5.884931 0.540655 0
M  V30 53 H -3.704274 -2.225608 -2.603105 0
M  V30 54 H 1.094040 0.367715 0.224143 0
M  V30 55 H 1.394068 -0.311453 1.790220 0
M  V30 56 H 1.800795 -1.208528 0.182221 0
M  V30 END ATOM
M  V30 BEGIN BOND
M  V30 1 1 1 2
M  V30 2 1 2 3
M  V30 3 2 3 4
M  V30 4 1 4 5
M  V30 5 2 5 6
M  V30 6 1 6 7
M  V30 7 2 7 8
M  V30 8 1 8 9
M  V30 9 2 9 10
M  V30 10 1 10 11
M  V30 11 3 11 12
M  V30 12 1 12 13
M  V30 13 1 13 14
M  V30 14 1 14 15
M  V30 15 2 15 16
M  V30 16 1 15 17
M  V30 17 2 17 18
M  V30 18 1 18 19
M  V30 19 2 19 20
M  V30 20 1 20 21
M  V30 21 1 21 22
M  V30 22 1 22 23
M  V30 23 2 23 24
M  V30 24 1 24 25
M  V30 25 2 25 26
M  V30 26 1 26 27
M  V30 27 1 26 28
M  V30 28 1 28 29
M  V30 29 2 28 30
M  V30 30 1 21 31
M  V30 31 2 31 32
M  V30 32 1 10 33
M  V30 33 1 33 34
M  V30 34 2 33 35
M  V30 35 1 35 3
M  V30 36 1 35 7
M  V30 37 1 31 17
M  V30 38 1 30 23
M  V30 39 1 1 36
M  V30 40 1 1 37
M  V30 41 1 1 38
M  V30 42 1 2 39
M  V30 43 1 5 40
M  V30 44 1 8 41
M  V30 45 1 9 42
M  V30 46 1 13 43
M  V30 47 1 13 44
M  V30 48 1 14 45
M  V30 49 1 18 46
M  V30 50 1 19 47
M  V30 51 1 20 48
M  V30 52 1 22 49
M  V30 53 1 22 50
M  V30 54 1 24 51
M  V30 55 1 25 52
M  V30 56 1 30 53
M  V30 57 1 34 54
M  V30 58 1 34 55
M  V30 59 1 34 56
M  V30 END BOND
M  V30 END CTAB
M  END
>  <Dataset>  (492) 
ChEMBL_Kinases

>  <Ligand_Instance>  (492) 
nan

>  <PDB_ID>  (492) 
nan

>  <Standardized_SMILES>  (492) 
CNc1ncnc2ccc(C#CCNC(=O)c3cccn(Cc4ccc(F)c(F)c4)c3=O)c(C)c12

>  <Name>  (492) 
nan

>  <Pocket>  (492) 
nan

>  <ATP_Site>  (492) 
nan

>  <Peripheral>  (492) 
nan

>  <Num_H_Atoms_ProtBoundConf>  (492) 
nan

>  <Num_Resolved_Atoms>  (492) 
nan

>  <Num_Not_Resolved_Atoms>  (492) 
nan

$$$$
CHEMBL3640542
     RDKit          3D

  0  0  0  0  0  0  0  0  0  0999 V3000
M  V30 BEGIN CTAB
M  V30 COUNTS 69 72 0 0 0
M  V30 BEGIN ATOM
M  V30 1 C 0.873163 -2.144210 1.212938 0
M  V30 2 C 1.370776 -3.549035 1.237189 0
M  V30 3 C 2.263549 -4.011283 0.292105 0
M  V30 4 C 2.683141 -3.066238 -0.709150 0
M  V30 5 C 3.014620 -2.270485 -1.553748 0
M  V30 6 C 3.398977 -1.280559 -2.591085 0
M  V30 7 N 2.360838 -0.264731 -2.716532 0
M  V30 8 C 2.461325 0.810677 -3.637605 0
M  V30 9 O 3.564048 0.696347 -4.269784 0
M  V30 10 C 1.496045 1.868699 -3.846332 0
M  V30 11 C 1.872643 2.786431 -4.825112 0
M  V30 12 N 1.080150 3.825688 -5.134325 0
M  V30 13 C -0.100765 4.035906 -4.527852 0
M  V30 14 N -0.487054 3.164854 -3.579951 0
M  V30 15 C -1.739654 3.287536 -2.860421 0
M  V30 16 C -2.867226 2.595127 -3.504722 0
M  V30 17 C -3.276536 1.297690 -3.290594 0
M  V30 18 C -4.344127 0.708387 -3.931287 0
M  V30 19 C -5.067281 1.435394 -4.848206 0
M  V30 20 F -6.123756 0.891256 -5.498981 0
M  V30 21 C -4.687709 2.739275 -5.089888 0
M  V30 22 F -5.410015 3.428608 -5.989365 0
M  V30 23 C -3.611055 3.312722 -4.434967 0
M  V30 24 C 0.297526 2.122798 -3.263172 0
M  V30 25 O -0.036961 1.296519 -2.384444 0
M  V30 26 C 2.705647 -5.318318 0.341136 0
M  V30 27 C 2.224733 -6.142124 1.364954 0
M  V30 28 C 1.333622 -5.659888 2.298235 0
M  V30 29 N 0.854309 -6.427714 3.291705 0
M  V30 30 C -0.015855 -5.964913 4.206009 0
M  V30 31 C -0.468958 -4.656787 4.170567 0
M  V30 32 N -1.389490 -4.064778 5.079941 0
M  V30 33 C -1.845911 -2.688735 5.039219 0
M  V30 34 C -0.712388 -1.702067 5.221082 0
M  V30 35 C -1.297413 -0.322196 5.155865 0
M  V30 36 N -0.340162 0.741062 5.313566 0
M  V30 37 C 0.214145 0.806146 6.637536 0
M  V30 38 C 0.643215 0.794579 4.272541 0
M  V30 39 N 0.021526 -3.883998 3.160185 0
M  V30 40 C 0.891077 -4.356029 2.251179 0
M  V30 41 H 1.569596 -1.571881 0.552270 0
M  V30 42 H -0.105293 -2.136399 0.676782 0
M  V30 43 H 0.792659 -1.679359 2.194928 0
M  V30 44 H 3.523629 -1.853953 -3.508125 0
M  V30 45 H 4.335863 -0.754380 -2.308058 0
M  V30 46 H 1.519977 -0.337949 -2.106055 0
M  V30 47 H 2.776106 2.782342 -5.413943 0
M  V30 48 H -0.734558 4.876387 -4.783622 0
M  V30 49 H -2.021984 4.375372 -2.747400 0
M  V30 50 H -1.567167 2.958561 -1.802610 0
M  V30 51 H -2.710329 0.726552 -2.570203 0
M  V30 52 H -4.596970 -0.317637 -3.702235 0
M  V30 53 H -3.399891 4.343042 -4.699999 0
M  V30 54 H 3.406665 -5.650440 -0.415464 0
M  V30 55 H 2.572009 -7.166258 1.400817 0
M  V30 56 H -0.428297 -6.553076 5.026460 0
M  V30 57 H -1.723618 -4.752938 5.819908 0
M  V30 58 H -2.613207 -2.588152 5.831934 0
M  V30 59 H -2.316302 -2.537276 4.024266 0
M  V30 60 H -0.327930 -1.843351 6.259952 0
M  V30 61 H 0.044269 -1.902392 4.461075 0
M  V30 62 H -2.055902 -0.220207 5.951371 0
M  V30 63 H -1.799163 -0.164352 4.159705 0
M  V30 64 H 1.016996 1.585355 6.626520 0
M  V30 65 H -0.591773 1.241602 7.288103 0
M  V30 66 H 0.555466 -0.169938 7.018950 0
M  V30 67 H 1.426816 0.021361 4.366821 0
M  V30 68 H 1.139304 1.805805 4.343296 0
M  V30 69 H 0.119107 0.806171 3.300450 0
M  V30 END ATOM
M  V30 BEGIN BOND
M  V30 1 1 1 2
M  V30 2 2 2 3
M  V30 3 1 3 4
M  V30 4 3 4 5
M  V30 5 1 5 6
M  V30 6 1 6 7
M  V30 7 1 7 8
M  V30 8 2 8 9
M  V30 9 1 8 10
M  V30 10 2 10 11
M  V30 11 1 11 12
M  V30 12 2 12 13
M  V30 13 1 13 14
M  V30 14 1 14 15
M  V30 15 1 15 16
M  V30 16 2 16 17
M  V30 17 1 17 18
M  V30 18 2 18 19
M  V30 19 1 19 20
M  V30 20 1 19 21
M  V30 21 1 21 22
M  V30 22 2 21 23
M  V30 23 1 14 24
M  V30 24 2 24 25
M  V30 25 1 3 26
M  V30 26 2 26 27
M  V30 27 1 27 28
M  V30 28 2 28 29
M  V30 29 1 29 30
M  V30 30 2 30 31
M  V30 31 1 31 32
M  V30 32 1 32 33
M  V30 33 1 33 34
M  V30 34 1 34 35
M  V30 35 1 35 36
M  V30 36 1 36 37
M  V30 37 1 36 38
M  V30 38 1 31 39
M  V30 39 2 39 40
M  V30 40 1 40 2
M  V30 41 1 24 10
M  V30 42 1 40 28
M  V30 43 1 23 16
M  V30 44 1 1 41
M  V30 45 1 1 42
M  V30 46 1 1 43
M  V30 47 1 6 44
M  V30 48 1 6 45
M  V30 49 1 7 46
M  V30 50 1 11 47
M  V30 51 1 13 48
M  V30 52 1 15 49
M  V30 53 1 15 50
M  V30 54 1 17 51
M  V30 55 1 18 52
M  V30 56 1 23 53
M  V30 57 1 26 54
M  V30 58 1 27 55
M  V30 59 1 30 56
M  V30 60 1 32 57
M  V30 61 1 33 58
M  V30 62 1 33 59
M  V30 63 1 34 60
M  V30 64 1 34 61
M  V30 65 1 35 62
M  V30 66 1 35 63
M  V30 67 1 37 64
M  V30 68 1 37 65
M  V30 69 1 37 66
M  V30 70 1 38 67
M  V30 71 1 38 68
M  V30 72 1 38 69
M  V30 END BOND
M  V30 END CTAB
M  END
>  <Dataset>  (493) 
ChEMBL_Kinases

>  <Ligand_Instance>  (493) 
nan

>  <PDB_ID>  (493) 
nan

>  <Standardized_SMILES>  (493) 
Cc1c(C#CCNC(=O)c2cncn(Cc3ccc(F)c(F)c3)c2=O)ccc2ncc(NCCCN(C)C)nc12

>  <Name>  (493) 
nan

>  <Pocket>  (493) 
nan

>  <ATP_Site>  (493) 
nan

>  <Peripheral>  (493) 
nan

>  <Num_H_Atoms_ProtBoundConf>  (493) 
nan

>  <Num_Resolved_Atoms>  (493) 
nan

>  <Num_Not_Resolved_Atoms>  (493) 
nan

$$$$
CHEMBL3640543
     RDKit          3D

  0  0  0  0  0  0  0  0  0  0999 V3000
M  V30 BEGIN CTAB
M  V30 COUNTS 51 54 0 0 0
M  V30 BEGIN ATOM
M  V30 1 C 2.683997 -2.741504 4.979788 0
M  V30 2 O 2.847271 -1.525752 4.267404 0
M  V30 3 C 3.820829 -0.649540 4.755191 0
M  V30 4 N 4.594945 -0.890258 5.839622 0
M  V30 5 C 5.509076 0.027954 6.226682 0
M  V30 6 N 5.636512 1.177964 5.521223 0
M  V30 7 C 4.903872 1.475764 4.442895 0
M  V30 8 C 5.062710 2.658628 3.749757 0
M  V30 9 C 4.296279 2.952318 2.634950 0
M  V30 10 C 3.355173 1.996480 2.244294 0
M  V30 11 C 2.505177 2.199285 1.099260 0
M  V30 12 C 1.804542 2.369973 0.119885 0
M  V30 13 C 0.976413 2.578570 -1.073921 0
M  V30 14 N -0.167269 1.704637 -1.095521 0
M  V30 15 C -1.123744 1.689081 -2.115231 0
M  V30 16 O -0.818750 2.559554 -3.002031 0
M  V30 17 C -2.303258 0.844016 -2.216269 0
M  V30 18 C -3.086116 1.053202 -3.361689 0
M  V30 19 N -4.197378 0.362155 -3.604111 0
M  V30 20 C -4.592666 -0.573718 -2.724070 0
M  V30 21 N -3.893958 -0.815525 -1.624633 0
M  V30 22 C -4.332154 -1.815849 -0.703435 0
M  V30 23 C -3.728224 -3.129838 -1.088761 0
M  V30 24 C -4.410316 -3.954428 -1.988001 0
M  V30 25 C -3.951724 -5.181779 -2.412326 0
M  V30 26 C -2.745867 -5.632098 -1.924450 0
M  V30 27 F -2.275027 -6.824107 -2.320784 0
M  V30 28 C -2.043427 -4.844817 -1.034118 0
M  V30 29 F -0.845240 -5.254070 -0.527284 0
M  V30 30 C -2.529115 -3.630040 -0.633846 0
M  V30 31 C -2.788884 -0.130488 -1.380471 0
M  V30 32 O -2.104873 -0.319826 -0.370210 0
M  V30 33 C 3.186183 0.803935 2.932751 0
M  V30 34 C 3.960638 0.528539 4.043350 0
M  V30 35 H 3.632701 -3.342299 4.992774 0
M  V30 36 H 1.921445 -3.378276 4.477988 0
M  V30 37 H 2.436676 -2.544132 6.047569 0
M  V30 38 H 6.138499 -0.113811 7.068320 0
M  V30 39 H 5.787259 3.390596 4.053434 0
M  V30 40 H 4.404950 3.870888 2.079510 0
M  V30 41 H 1.637518 2.473035 -1.941971 0
M  V30 42 H 0.614690 3.632845 -1.069437 0
M  V30 43 H -0.279255 1.045928 -0.295095 0
M  V30 44 H -2.808693 1.801819 -4.107890 0
M  V30 45 H -5.506844 -1.141325 -2.924739 0
M  V30 46 H -4.078764 -1.571639 0.350343 0
M  V30 47 H -5.434313 -1.936760 -0.815942 0
M  V30 48 H -5.370207 -3.645264 -2.404832 0
M  V30 49 H -4.518633 -5.777426 -3.107910 0
M  V30 50 H -1.981537 -3.029084 0.053551 0
M  V30 51 H 2.446588 0.069775 2.613100 0
M  V30 END ATOM
M  V30 BEGIN BOND
M  V30 1 1 1 2
M  V30 2 1 2 3
M  V30 3 2 3 4
M  V30 4 1 4 5
M  V30 5 2 5 6
M  V30 6 1 6 7
M  V30 7 2 7 8
M  V30 8 1 8 9
M  V30 9 2 9 10
M  V30 10 1 10 11
M  V30 11 3 11 12
M  V30 12 1 12 13
M  V30 13 1 13 14
M  V30 14 1 14 15
M  V30 15 2 15 16
M  V30 16 1 15 17
M  V30 17 2 17 18
M  V30 18 1 18 19
M  V30 19 2 19 20
M  V30 20 1 20 21
M  V30 21 1 21 22
M  V30 22 1 22 23
M  V30 23 2 23 24
M  V30 24 1 24 25
M  V30 25 2 25 26
M  V30 26 1 26 27
M  V30 27 1 26 28
M  V30 28 1 28 29
M  V30 29 2 28 30
M  V30 30 1 21 31
M  V30 31 2 31 32
M  V30 32 1 10 33
M  V30 33 2 33 34
M  V30 34 1 34 3
M  V30 35 1 34 7
M  V30 36 1 31 17
M  V30 37 1 30 23
M  V30 38 1 1 35
M  V30 39 1 1 36
M  V30 40 1 1 37
M  V30 41 1 5 38
M  V30 42 1 8 39
M  V30 43 1 9 40
M  V30 44 1 13 41
M  V30 45 1 13 42
M  V30 46 1 14 43
M  V30 47 1 18 44
M  V30 48 1 20 45
M  V30 49 1 22 46
M  V30 50 1 22 47
M  V30 51 1 24 48
M  V30 52 1 25 49
M  V30 53 1 30 50
M  V30 54 1 33 51
M  V30 END BOND
M  V30 END CTAB
M  END
>  <Dataset>  (494) 
ChEMBL_Kinases

>  <Ligand_Instance>  (494) 
nan

>  <PDB_ID>  (494) 
nan

>  <Standardized_SMILES>  (494) 
COc1ncnc2ccc(C#CCNC(=O)c3cncn(Cc4ccc(F)c(F)c4)c3=O)cc12

>  <Name>  (494) 
nan

>  <Pocket>  (494) 
nan

>  <ATP_Site>  (494) 
nan

>  <Peripheral>  (494) 
nan

>  <Num_H_Atoms_ProtBoundConf>  (494) 
nan

>  <Num_Resolved_Atoms>  (494) 
nan

>  <Num_Not_Resolved_Atoms>  (494) 
nan

$$$$
CHEMBL3640544
     RDKit          3D

  0  0  0  0  0  0  0  0  0  0999 V3000
M  V30 BEGIN CTAB
M  V30 COUNTS 57 60 0 0 0
M  V30 BEGIN ATOM
M  V30 1 C 2.824402 -2.739650 4.478237 0
M  V30 2 N 2.930046 -1.560002 3.620436 0
M  V30 3 C 4.156187 -0.931320 3.268699 0
M  V30 4 N 5.261629 -1.498405 3.785220 0
M  V30 5 C 6.492182 -1.004529 3.532972 0
M  V30 6 N 6.631578 0.080966 2.747454 0
M  V30 7 C 5.562201 0.699541 2.196327 0
M  V30 8 C 5.627885 1.812949 1.383661 0
M  V30 9 C 4.458583 2.356523 0.878689 0
M  V30 10 C 3.204596 1.842449 1.143678 0
M  V30 11 C 2.029049 2.456109 0.586630 0
M  V30 12 C 1.044427 2.961467 0.102711 0
M  V30 13 C -0.160500 3.568095 -0.511980 0
M  V30 14 N -1.047926 2.507081 -1.005994 0
M  V30 15 C -1.486627 1.627819 0.008855 0
M  V30 16 O -1.088254 1.839250 1.170669 0
M  V30 17 C -2.374122 0.497455 -0.239334 0
M  V30 18 C -2.801140 -0.360048 0.754159 0
M  V30 19 C -2.461858 -0.310234 2.205548 0
M  V30 20 N -3.596032 -1.271549 0.173833 0
M  V30 21 C -4.269101 -2.374354 0.856936 0
M  V30 22 N -3.689235 -1.030670 -1.128174 0
M  V30 23 C -4.442937 -1.762057 -2.149953 0
M  V30 24 C -3.609848 -2.836172 -2.742628 0
M  V30 25 C -3.590580 -4.109357 -2.207883 0
M  V30 26 C -2.809831 -5.121295 -2.761019 0
M  V30 27 C -2.071464 -4.771464 -3.858279 0
M  V30 28 F -1.291440 -5.714998 -4.440526 0
M  V30 29 C -2.039627 -3.535313 -4.442059 0
M  V30 30 F -1.285630 -3.238737 -5.535900 0
M  V30 31 C -2.838339 -2.553759 -3.852622 0
M  V30 32 C -2.936398 0.069944 -1.420723 0
M  V30 33 O -2.777796 0.601249 -2.544867 0
M  V30 34 C 3.151253 0.728931 1.957536 0
M  V30 35 C 4.311508 0.180430 2.465313 0
M  V30 36 H 2.431055 -2.497825 5.489049 0
M  V30 37 H 3.851904 -3.169811 4.662897 0
M  V30 38 H 2.277645 -3.561133 3.969655 0
M  V30 39 H 1.958802 -1.318911 3.355647 0
M  V30 40 H 7.375720 -1.485337 3.966065 0
M  V30 41 H 6.608193 2.216198 1.175507 0
M  V30 42 H 4.544875 3.228720 0.245214 0
M  V30 43 H -0.675040 4.250495 0.197643 0
M  V30 44 H 0.213331 4.147276 -1.363836 0
M  V30 45 H -1.354225 2.369422 -1.987658 0
M  V30 46 H -1.437547 -0.660435 2.429621 0
M  V30 47 H -3.199904 -0.917637 2.777799 0
M  V30 48 H -2.553494 0.725094 2.611277 0
M  V30 49 H -4.615047 -2.089494 1.859160 0
M  V30 50 H -5.153415 -2.721830 0.281936 0
M  V30 51 H -3.524463 -3.201399 0.986560 0
M  V30 52 H -4.723640 -1.061157 -2.956237 0
M  V30 53 H -5.367170 -2.143069 -1.662875 0
M  V30 54 H -4.195279 -4.360211 -1.324914 0
M  V30 55 H -2.757271 -6.131858 -2.384193 0
M  V30 56 H -2.844415 -1.561441 -4.280825 0
M  V30 57 H 2.184559 0.324245 2.167978 0
M  V30 END ATOM
M  V30 BEGIN BOND
M  V30 1 1 1 2
M  V30 2 1 2 3
M  V30 3 2 3 4
M  V30 4 1 4 5
M  V30 5 2 5 6
M  V30 6 1 6 7
M  V30 7 2 7 8
M  V30 8 1 8 9
M  V30 9 2 9 10
M  V30 10 1 10 11
M  V30 11 3 11 12
M  V30 12 1 12 13
M  V30 13 1 13 14
M  V30 14 1 14 15
M  V30 15 2 15 16
M  V30 16 1 15 17
M  V30 17 2 17 18
M  V30 18 1 18 19
M  V30 19 1 18 20
M  V30 20 1 20 21
M  V30 21 1 20 22
M  V30 22 1 22 23
M  V30 23 1 23 24
M  V30 24 2 24 25
M  V30 25 1 25 26
M  V30 26 2 26 27
M  V30 27 1 27 28
M  V30 28 1 27 29
M  V30 29 1 29 30
M  V30 30 2 29 31
M  V30 31 1 22 32
M  V30 32 2 32 33
M  V30 33 1 10 34
M  V30 34 2 34 35
M  V30 35 1 35 3
M  V30 36 1 35 7
M  V30 37 1 32 17
M  V30 38 1 31 24
M  V30 39 1 1 36
M  V30 40 1 1 37
M  V30 41 1 1 38
M  V30 42 1 2 39
M  V30 43 1 5 40
M  V30 44 1 8 41
M  V30 45 1 9 42
M  V30 46 1 13 43
M  V30 47 1 13 44
M  V30 48 1 14 45
M  V30 49 1 19 46
M  V30 50 1 19 47
M  V30 51 1 19 48
M  V30 52 1 21 49
M  V30 53 1 21 50
M  V30 54 1 21 51
M  V30 55 1 23 52
M  V30 56 1 23 53
M  V30 57 1 25 54
M  V30 58 1 26 55
M  V30 59 1 31 56
M  V30 60 1 34 57
M  V30 END BOND
M  V30 END CTAB
M  END
>  <Dataset>  (495) 
ChEMBL_Kinases

>  <Ligand_Instance>  (495) 
nan

>  <PDB_ID>  (495) 
nan

>  <Standardized_SMILES>  (495) 
CNc1ncnc2ccc(C#CCNC(=O)c3c(C)n(C)n(Cc4ccc(F)c(F)c4)c3=O)cc12

>  <Name>  (495) 
nan

>  <Pocket>  (495) 
nan

>  <ATP_Site>  (495) 
nan

>  <Peripheral>  (495) 
nan

>  <Num_H_Atoms_ProtBoundConf>  (495) 
nan

>  <Num_Resolved_Atoms>  (495) 
nan

>  <Num_Not_Resolved_Atoms>  (495) 
nan

$$$$
CHEMBL3640545
     RDKit          3D

  0  0  0  0  0  0  0  0  0  0999 V3000
M  V30 BEGIN CTAB
M  V30 COUNTS 66 69 0 0 0
M  V30 BEGIN ATOM
M  V30 1 C 3.302674 -1.755951 6.241473 0
M  V30 2 N 2.861337 -2.885539 5.451296 0
M  V30 3 C 1.911259 -3.640155 6.240467 0
M  V30 4 C 3.984409 -3.727935 5.128653 0
M  V30 5 C 4.968733 -3.104835 4.170970 0
M  V30 6 N 4.356140 -2.770697 2.903958 0
M  V30 7 C 3.946188 -3.914397 2.113085 0
M  V30 8 C 4.146018 -1.458329 2.403831 0
M  V30 9 C 4.513074 -0.299215 3.048419 0
M  V30 10 N 4.280592 0.927485 2.512196 0
M  V30 11 C 3.673966 1.048583 1.313887 0
M  V30 12 C 3.393981 2.250715 0.686009 0
M  V30 13 C 2.760934 2.256627 -0.556892 0
M  V30 14 C 2.398393 1.086125 -1.192335 0
M  V30 15 C 1.743616 1.027895 -2.468970 0
M  V30 16 C 1.176495 0.983692 -3.529511 0
M  V30 17 C 0.457130 0.941452 -4.827443 0
M  V30 18 N -0.987716 0.926918 -4.583927 0
M  V30 19 C -1.282772 -0.229656 -3.812719 0
M  V30 20 O -0.189710 -0.858788 -3.597806 0
M  V30 21 C -2.580042 -0.671785 -3.324347 0
M  V30 22 C -2.524290 -1.860195 -2.584432 0
M  V30 23 N -3.637437 -2.396373 -2.062333 0
M  V30 24 C -4.852706 -1.836238 -2.214313 0
M  V30 25 N -4.904428 -0.696781 -2.923991 0
M  V30 26 C -6.191193 -0.057380 -3.111559 0
M  V30 27 C -6.416271 0.902473 -1.981210 0
M  V30 28 C -7.024089 0.366259 -0.845991 0
M  V30 29 C -7.266598 1.204522 0.248971 0
M  V30 30 C -6.921789 2.533145 0.229982 0
M  V30 31 F -7.145179 3.376189 1.280842 0
M  V30 32 C -6.323580 3.038871 -0.900646 0
M  V30 33 F -5.953687 4.317869 -1.009741 0
M  V30 34 C -6.075394 2.238365 -1.986179 0
M  V30 35 C -3.830173 -0.123932 -3.462928 0
M  V30 36 O -3.852461 0.922159 -4.119222 0
M  V30 37 C 2.665324 -0.143454 -0.588234 0
M  V30 38 C 3.297827 -0.105441 0.650924 0
M  V30 39 N 3.548835 -1.287600 1.220715 0
M  V30 40 H 4.341353 -1.440940 6.039921 0
M  V30 41 H 2.655352 -0.862111 6.049528 0
M  V30 42 H 3.138248 -1.993688 7.318877 0
M  V30 43 H 1.518289 -2.990902 7.036867 0
M  V30 44 H 1.092396 -4.057837 5.617927 0
M  V30 45 H 2.444588 -4.479594 6.741706 0
M  V30 46 H 4.505636 -3.926802 6.107653 0
M  V30 47 H 3.643315 -4.719430 4.791809 0
M  V30 48 H 5.539151 -2.283517 4.626451 0
M  V30 49 H 5.730937 -3.910309 3.946375 0
M  V30 50 H 3.836876 -3.624069 1.029807 0
M  V30 51 H 2.928892 -4.192084 2.518191 0
M  V30 52 H 4.648366 -4.742683 2.247131 0
M  V30 53 H 5.001393 -0.375313 4.009398 0
M  V30 54 H 3.675690 3.153487 1.180340 0
M  V30 55 H 2.532555 3.173422 -1.064411 0
M  V30 56 H 0.779658 1.818742 -5.392996 0
M  V30 57 H 0.734414 0.036991 -5.392439 0
M  V30 58 H -1.783231 1.548388 -4.844047 0
M  V30 59 H -1.588151 -2.403363 -2.397382 0
M  V30 60 H -5.716244 -2.310463 -1.772167 0
M  V30 61 H -6.228494 0.483808 -4.093591 0
M  V30 62 H -7.019110 -0.783021 -3.127367 0
M  V30 63 H -7.343910 -0.638782 -0.689702 0
M  V30 64 H -7.734186 0.897591 1.187771 0
M  V30 65 H -5.607851 2.623365 -2.879177 0
M  V30 66 H 2.403438 -1.099856 -1.040179 0
M  V30 END ATOM
M  V30 BEGIN BOND
M  V30 1 1 1 2
M  V30 2 1 2 3
M  V30 3 1 2 4
M  V30 4 1 4 5
M  V30 5 1 5 6
M  V30 6 1 6 7
M  V30 7 1 6 8
M  V30 8 2 8 9
M  V30 9 1 9 10
M  V30 10 2 10 11
M  V30 11 1 11 12
M  V30 12 2 12 13
M  V30 13 1 13 14
M  V30 14 1 14 15
M  V30 15 3 15 16
M  V30 16 1 16 17
M  V30 17 1 17 18
M  V30 18 1 18 19
M  V30 19 2 19 20
M  V30 20 1 19 21
M  V30 21 2 21 22
M  V30 22 1 22 23
M  V30 23 2 23 24
M  V30 24 1 24 25
M  V30 25 1 25 26
M  V30 26 1 26 27
M  V30 27 2 27 28
M  V30 28 1 28 29
M  V30 29 2 29 30
M  V30 30 1 30 31
M  V30 31 1 30 32
M  V30 32 1 32 33
M  V30 33 2 32 34
M  V30 34 1 25 35
M  V30 35 2 35 36
M  V30 36 2 14 37
M  V30 37 1 37 38
M  V30 38 2 38 39
M  V30 39 1 39 8
M  V30 40 1 38 11
M  V30 41 1 35 21
M  V30 42 1 34 27
M  V30 43 1 1 40
M  V30 44 1 1 41
M  V30 45 1 1 42
M  V30 46 1 3 43
M  V30 47 1 3 44
M  V30 48 1 3 45
M  V30 49 1 4 46
M  V30 50 1 4 47
M  V30 51 1 5 48
M  V30 52 1 5 49
M  V30 53 1 7 50
M  V30 54 1 7 51
M  V30 55 1 7 52
M  V30 56 1 9 53
M  V30 57 1 12 54
M  V30 58 1 13 55
M  V30 59 1 17 56
M  V30 60 1 17 57
M  V30 61 1 18 58
M  V30 62 1 22 59
M  V30 63 1 24 60
M  V30 64 1 26 61
M  V30 65 1 26 62
M  V30 66 1 28 63
M  V30 67 1 29 64
M  V30 68 1 34 65
M  V30 69 1 37 66
M  V30 END BOND
M  V30 END CTAB
M  END
>  <Dataset>  (496) 
ChEMBL_Kinases

>  <Ligand_Instance>  (496) 
nan

>  <PDB_ID>  (496) 
nan

>  <Standardized_SMILES>  (496) 
CN(C)CCN(C)c1cnc2ccc(C#CCNC(=O)c3cncn(Cc4ccc(F)c(F)c4)c3=O)cc2n1

>  <Name>  (496) 
nan

>  <Pocket>  (496) 
nan

>  <ATP_Site>  (496) 
nan

>  <Peripheral>  (496) 
nan

>  <Num_H_Atoms_ProtBoundConf>  (496) 
nan

>  <Num_Resolved_Atoms>  (496) 
nan

>  <Num_Not_Resolved_Atoms>  (496) 
nan

$$$$
CHEMBL3640625
     RDKit          3D

  0  0  0  0  0  0  0  0  0  0999 V3000
M  V30 BEGIN CTAB
M  V30 COUNTS 54 55 0 0 0
M  V30 BEGIN ATOM
M  V30 1 C 3.036761 -3.382276 -0.943193 0
M  V30 2 S 4.379451 -2.973045 0.116856 0
M  V30 3 O 4.518632 -3.994217 1.235893 0
M  V30 4 O 5.651566 -3.010958 -0.669827 0
M  V30 5 C 4.167344 -1.399467 0.907683 0
M  V30 6 C 4.052265 -0.262315 -0.070921 0
M  V30 7 O 2.992548 -0.381678 -0.934298 0
M  V30 8 N 2.884094 0.650353 -1.803691 0
M  V30 9 C 1.712658 0.486898 -2.639812 0
M  V30 10 C 0.444874 0.441246 -1.909605 0
M  V30 11 C 0.333437 0.614066 -0.552322 0
M  V30 12 C -0.924697 0.539668 -0.005223 0
M  V30 13 C -1.130466 0.735599 1.416427 0
M  V30 14 O -2.210337 0.724957 2.055785 0
M  V30 15 N -0.034770 0.976684 2.278700 0
M  V30 16 O 0.274133 1.197975 3.547686 0
M  V30 17 C 0.549832 0.066233 4.280430 0
M  V30 18 C 0.949204 0.441581 5.697867 0
M  V30 19 O -0.110071 1.122246 6.262955 0
M  V30 20 C -2.070484 0.304861 -0.719802 0
M  V30 21 N -3.375792 0.182758 -0.231842 0
M  V30 22 C -4.154353 -1.013795 -0.035525 0
M  V30 23 C -5.304064 -0.876194 -0.811886 0
M  V30 24 C -6.271087 -1.887558 -0.841165 0
M  V30 25 C -6.074795 -3.028181 -0.090383 0
M  V30 26 I -7.418976 -4.640777 -0.014800 0
M  V30 27 C -4.939685 -3.141060 0.663204 0
M  V30 28 C -3.979649 -2.154499 0.701560 0
M  V30 29 F -2.817610 -2.135016 1.388465 0
M  V30 30 C -1.944989 0.130978 -2.104403 0
M  V30 31 F -3.017457 -0.103699 -2.894302 0
M  V30 32 C -0.684899 0.200351 -2.692203 0
M  V30 33 F -0.610389 0.025706 -4.040350 0
M  V30 34 H 2.589210 -4.333290 -0.582496 0
M  V30 35 H 3.392417 -3.577280 -1.989567 0
M  V30 36 H 2.220843 -2.635154 -0.918616 0
M  V30 37 H 5.062551 -1.223796 1.534753 0
M  V30 38 H 3.259373 -1.414775 1.523130 0
M  V30 39 H 5.031821 -0.111311 -0.613366 0
M  V30 40 H 3.924000 0.660825 0.529320 0
M  V30 41 H 2.912106 1.560106 -1.295489 0
M  V30 42 H 1.834899 -0.537570 -3.101003 0
M  V30 43 H 1.727109 1.173006 -3.508757 0
M  V30 44 H 1.227806 0.799680 0.018165 0
M  V30 45 H 0.964292 1.035879 1.994258 0
M  V30 46 H 1.362403 -0.556956 3.836270 0
M  V30 47 H -0.373530 -0.568388 4.345475 0
M  V30 48 H 1.872485 1.050505 5.612283 0
M  V30 49 H 1.143044 -0.445070 6.313762 0
M  V30 50 H 0.123373 1.948046 6.739575 0
M  V30 51 H -3.763981 1.122470 -0.003943 0
M  V30 52 H -5.627513 -0.056689 -1.462980 0
M  V30 53 H -7.186539 -1.874662 -1.406332 0
M  V30 54 H -4.677438 -3.996458 1.296301 0
M  V30 END ATOM
M  V30 BEGIN BOND
M  V30 1 1 1 2
M  V30 2 2 2 3
M  V30 3 2 2 4
M  V30 4 1 2 5
M  V30 5 1 5 6
M  V30 6 1 6 7
M  V30 7 1 7 8
M  V30 8 1 8 9
M  V30 9 1 9 10
M  V30 10 2 10 11
M  V30 11 1 11 12
M  V30 12 1 12 13
M  V30 13 2 13 14
M  V30 14 1 13 15
M  V30 15 1 15 16
M  V30 16 1 16 17
M  V30 17 1 17 18
M  V30 18 1 18 19
M  V30 19 2 12 20
M  V30 20 1 20 21
M  V30 21 1 21 22
M  V30 22 2 22 23
M  V30 23 1 23 24
M  V30 24 2 24 25
M  V30 25 1 25 26
M  V30 26 1 25 27
M  V30 27 2 27 28
M  V30 28 1 28 29
M  V30 29 1 20 30
M  V30 30 1 30 31
M  V30 31 2 30 32
M  V30 32 1 32 33
M  V30 33 1 32 10
M  V30 34 1 28 22
M  V30 35 1 1 34
M  V30 36 1 1 35
M  V30 37 1 1 36
M  V30 38 1 5 37
M  V30 39 1 5 38
M  V30 40 1 6 39
M  V30 41 1 6 40
M  V30 42 1 8 41
M  V30 43 1 9 42
M  V30 44 1 9 43
M  V30 45 1 11 44
M  V30 46 1 15 45
M  V30 47 1 17 46
M  V30 48 1 17 47
M  V30 49 1 18 48
M  V30 50 1 18 49
M  V30 51 1 19 50
M  V30 52 1 21 51
M  V30 53 1 23 52
M  V30 54 1 24 53
M  V30 55 1 27 54
M  V30 END BOND
M  V30 END CTAB
M  END
>  <Dataset>  (497) 
ChEMBL_Kinases

>  <Ligand_Instance>  (497) 
nan

>  <PDB_ID>  (497) 
nan

>  <Standardized_SMILES>  (497) 
CS(=O)(=O)CCONCc1cc(C(=O)NOCCO)c(Nc2ccc(I)cc2F)c(F)c1F

>  <Name>  (497) 
nan

>  <Pocket>  (497) 
nan

>  <ATP_Site>  (497) 
nan

>  <Peripheral>  (497) 
nan

>  <Num_H_Atoms_ProtBoundConf>  (497) 
nan

>  <Num_Resolved_Atoms>  (497) 
nan

>  <Num_Not_Resolved_Atoms>  (497) 
nan

$$$$
CHEMBL3640547
     RDKit          3D

  0  0  0  0  0  0  0  0  0  0999 V3000
M  V30 BEGIN CTAB
M  V30 COUNTS 49 52 0 0 0
M  V30 BEGIN ATOM
M  V30 1 N 4.954645 -2.906358 2.618755 0
M  V30 2 C 5.550712 -1.826748 3.331799 0
M  V30 3 N 6.442764 -2.041471 4.333127 0
M  V30 4 C 7.011567 -1.039173 5.012546 0
M  V30 5 N 6.719556 0.227530 4.727756 0
M  V30 6 C 5.836221 0.526766 3.739325 0
M  V30 7 C 5.578099 1.843712 3.494684 0
M  V30 8 C 4.672860 2.149874 2.481735 0
M  V30 9 Cl 4.268842 3.792192 2.083756 0
M  V30 10 C 4.070534 1.139149 1.764095 0
M  V30 11 C 3.122443 1.392301 0.700778 0
M  V30 12 C 2.335176 1.591841 -0.193462 0
M  V30 13 C 1.366709 1.812237 -1.279067 0
M  V30 14 N 0.026387 1.371286 -0.869515 0
M  V30 15 C 0.063944 0.006889 -0.559938 0
M  V30 16 O 1.251694 -0.429293 -0.730024 0
M  V30 17 C -1.021691 -0.850804 -0.111489 0
M  V30 18 C -0.670514 -2.186925 0.119704 0
M  V30 19 N -1.575938 -3.082668 0.535741 0
M  V30 20 C -2.861968 -2.761384 0.755080 0
M  V30 21 N -3.217933 -1.485689 0.539067 0
M  V30 22 C -4.593034 -1.085000 0.759854 0
M  V30 23 C -5.383709 -1.251927 -0.482646 0
M  V30 24 C -5.999785 -2.492538 -0.677656 0
M  V30 25 C -6.767153 -2.796354 -1.783743 0
M  V30 26 C -6.945247 -1.825412 -2.764572 0
M  V30 27 F -7.690161 -2.080131 -3.866255 0
M  V30 28 C -6.347039 -0.618709 -2.576650 0
M  V30 29 F -6.465891 0.395824 -3.486081 0
M  V30 30 C -5.582828 -0.318447 -1.473501 0
M  V30 31 C -2.344952 -0.555263 0.122380 0
M  V30 32 O -2.662163 0.623375 -0.079803 0
M  V30 33 C 4.353324 -0.203896 2.035701 0
M  V30 34 C 5.238778 -0.502369 3.026546 0
M  V30 35 H 3.941868 -3.199594 2.641683 0
M  V30 36 H 5.313442 -3.626546 1.950540 0
M  V30 37 H 7.717026 -1.306703 5.800909 0
M  V30 38 H 6.039980 2.667194 4.046731 0
M  V30 39 H 1.671363 1.214032 -2.149825 0
M  V30 40 H 1.364391 2.904489 -1.533859 0
M  V30 41 H -0.884644 1.870104 -0.777351 0
M  V30 42 H 0.317950 -2.626605 -0.003950 0
M  V30 43 H -3.629487 -3.444219 1.089916 0
M  V30 44 H -4.603911 -0.011180 1.018529 0
M  V30 45 H -5.044339 -1.636445 1.609242 0
M  V30 46 H -5.896157 -3.281823 0.049022 0
M  V30 47 H -7.229358 -3.762910 -1.905157 0
M  V30 48 H -5.112242 0.629000 -1.323954 0
M  V30 49 H 3.892769 -1.028663 1.485097 0
M  V30 END ATOM
M  V30 BEGIN BOND
M  V30 1 1 1 2
M  V30 2 2 2 3
M  V30 3 1 3 4
M  V30 4 2 4 5
M  V30 5 1 5 6
M  V30 6 2 6 7
M  V30 7 1 7 8
M  V30 8 1 8 9
M  V30 9 2 8 10
M  V30 10 1 10 11
M  V30 11 3 11 12
M  V30 12 1 12 13
M  V30 13 1 13 14
M  V30 14 1 14 15
M  V30 15 2 15 16
M  V30 16 1 15 17
M  V30 17 2 17 18
M  V30 18 1 18 19
M  V30 19 2 19 20
M  V30 20 1 20 21
M  V30 21 1 21 22
M  V30 22 1 22 23
M  V30 23 2 23 24
M  V30 24 1 24 25
M  V30 25 2 25 26
M  V30 26 1 26 27
M  V30 27 1 26 28
M  V30 28 1 28 29
M  V30 29 2 28 30
M  V30 30 1 21 31
M  V30 31 2 31 32
M  V30 32 1 10 33
M  V30 33 2 33 34
M  V30 34 1 34 2
M  V30 35 1 34 6
M  V30 36 1 31 17
M  V30 37 1 30 23
M  V30 38 1 1 35
M  V30 39 1 1 36
M  V30 40 1 4 37
M  V30 41 1 7 38
M  V30 42 1 13 39
M  V30 43 1 13 40
M  V30 44 1 14 41
M  V30 45 1 18 42
M  V30 46 1 20 43
M  V30 47 1 22 44
M  V30 48 1 22 45
M  V30 49 1 24 46
M  V30 50 1 25 47
M  V30 51 1 30 48
M  V30 52 1 33 49
M  V30 END BOND
M  V30 END CTAB
M  END
>  <Dataset>  (498) 
ChEMBL_Kinases

>  <Ligand_Instance>  (498) 
nan

>  <PDB_ID>  (498) 
nan

>  <Standardized_SMILES>  (498) 
Nc1ncnc2cc(Cl)c(C#CCNC(=O)c3cncn(Cc4ccc(F)c(F)c4)c3=O)cc12

>  <Name>  (498) 
nan

>  <Pocket>  (498) 
nan

>  <ATP_Site>  (498) 
nan

>  <Peripheral>  (498) 
nan

>  <Num_H_Atoms_ProtBoundConf>  (498) 
nan

>  <Num_Resolved_Atoms>  (498) 
nan

>  <Num_Not_Resolved_Atoms>  (498) 
nan

$$$$
CHEMBL3640548
     RDKit          3D

  0  0  0  0  0  0  0  0  0  0999 V3000
M  V30 BEGIN CTAB
M  V30 COUNTS 48 51 0 0 0
M  V30 BEGIN ATOM
M  V30 1 O 1.903542 0.095126 -0.966591 0
M  V30 2 C 1.447590 -1.098361 -1.026015 0
M  V30 3 N 2.405733 -1.964494 -0.435726 0
M  V30 4 C 3.568237 -1.190438 0.028708 0
M  V30 5 C 3.164478 -0.193799 1.026322 0
M  V30 6 C 2.836623 0.648717 1.844151 0
M  V30 7 C 2.470467 1.654242 2.816193 0
M  V30 8 C 1.818876 1.310499 3.983989 0
M  V30 9 C 1.503314 2.334028 4.863017 0
M  V30 10 C 1.825032 3.652112 4.588930 0
M  V30 11 N 1.521534 4.654711 5.439130 0
M  V30 12 C 1.829850 5.946921 5.184090 0
M  V30 13 N 2.465850 6.225066 4.029126 0
M  V30 14 C 2.795625 5.258452 3.137662 0
M  V30 15 O 3.450060 5.550585 1.950777 0
M  V30 16 C 2.482085 3.931016 3.393508 0
M  V30 17 C 2.819305 2.947383 2.483165 0
M  V30 18 C 0.168728 -1.456570 -1.605021 0
M  V30 19 C -0.543677 -0.359287 -2.106477 0
M  V30 20 N -1.747541 -0.472110 -2.682526 0
M  V30 21 C -2.324426 -1.672895 -2.800367 0
M  V30 22 N -1.674137 -2.750921 -2.332074 0
M  V30 23 C -2.262581 -4.070421 -2.438069 0
M  V30 24 C -3.067913 -4.309684 -1.220118 0
M  V30 25 C -4.401755 -3.895052 -1.286802 0
M  V30 26 C -5.287063 -4.045442 -0.239755 0
M  V30 27 C -4.868199 -4.627833 0.940685 0
M  V30 28 F -5.667980 -4.814795 2.017654 0
M  V30 29 C -3.546418 -5.042071 1.015340 0
M  V30 30 F -3.085274 -5.619991 2.152681 0
M  V30 31 C -2.666731 -4.888516 -0.035668 0
M  V30 32 C -0.468864 -2.666653 -1.751429 0
M  V30 33 O 0.191489 -3.626421 -1.294685 0
M  V30 34 H 2.183343 -2.983114 -0.404476 0
M  V30 35 H 4.046869 -0.711479 -0.851311 0
M  V30 36 H 4.266847 -1.883283 0.542930 0
M  V30 37 H 1.570692 0.274218 4.190319 0
M  V30 38 H 0.988750 2.082806 5.790552 0
M  V30 39 H 1.584063 6.748437 5.869867 0
M  V30 40 H 4.374195 5.159411 1.768952 0
M  V30 41 H 3.327374 3.229886 1.576416 0
M  V30 42 H -0.174460 0.668112 -2.066755 0
M  V30 43 H -3.291410 -1.817684 -3.255594 0
M  V30 44 H -1.490078 -4.863654 -2.523921 0
M  V30 45 H -2.903539 -4.172936 -3.328787 0
M  V30 46 H -4.827569 -3.424402 -2.175532 0
M  V30 47 H -6.316516 -3.718577 -0.308798 0
M  V30 48 H -1.650396 -5.198058 -0.002941 0
M  V30 END ATOM
M  V30 BEGIN BOND
M  V30 1 2 1 2
M  V30 2 1 2 3
M  V30 3 1 3 4
M  V30 4 1 4 5
M  V30 5 3 5 6
M  V30 6 1 6 7
M  V30 7 2 7 8
M  V30 8 1 8 9
M  V30 9 2 9 10
M  V30 10 1 10 11
M  V30 11 2 11 12
M  V30 12 1 12 13
M  V30 13 2 13 14
M  V30 14 1 14 15
M  V30 15 1 14 16
M  V30 16 2 16 17
M  V30 17 1 2 18
M  V30 18 2 18 19
M  V30 19 1 19 20
M  V30 20 2 20 21
M  V30 21 1 21 22
M  V30 22 1 22 23
M  V30 23 1 23 24
M  V30 24 2 24 25
M  V30 25 1 25 26
M  V30 26 2 26 27
M  V30 27 1 27 28
M  V30 28 1 27 29
M  V30 29 1 29 30
M  V30 30 2 29 31
M  V30 31 1 22 32
M  V30 32 2 32 33
M  V30 33 1 17 7
M  V30 34 1 32 18
M  V30 35 1 16 10
M  V30 36 1 31 24
M  V30 37 1 3 34
M  V30 38 1 4 35
M  V30 39 1 4 36
M  V30 40 1 8 37
M  V30 41 1 9 38
M  V30 42 1 12 39
M  V30 43 1 15 40
M  V30 44 1 17 41
M  V30 45 1 19 42
M  V30 46 1 21 43
M  V30 47 1 23 44
M  V30 48 1 23 45
M  V30 49 1 25 46
M  V30 50 1 26 47
M  V30 51 1 31 48
M  V30 END BOND
M  V30 END CTAB
M  END
>  <Dataset>  (499) 
ChEMBL_Kinases

>  <Ligand_Instance>  (499) 
nan

>  <PDB_ID>  (499) 
nan

>  <Standardized_SMILES>  (499) 
O=C(NCC#Cc1ccc2ncnc(O)c2c1)c1cncn(Cc2ccc(F)c(F)c2)c1=O

>  <Name>  (499) 
nan

>  <Pocket>  (499) 
nan

>  <ATP_Site>  (499) 
nan

>  <Peripheral>  (499) 
nan

>  <Num_H_Atoms_ProtBoundConf>  (499) 
nan

>  <Num_Resolved_Atoms>  (499) 
nan

>  <Num_Not_Resolved_Atoms>  (499) 
nan

$$$$
CHEMBL3640619
     RDKit          3D

  0  0  0  0  0  0  0  0  0  0999 V3000
M  V30 BEGIN CTAB
M  V30 COUNTS 49 50 0 0 0
M  V30 BEGIN ATOM
M  V30 1 C 5.150574 -3.529854 6.192164 0
M  V30 2 C 4.587380 -3.259746 5.154135 0
M  V30 3 C 3.930220 -2.918011 3.916816 0
M  V30 4 C 4.379484 -1.795181 3.256144 0
M  V30 5 C 3.731464 -1.499550 2.082153 0
M  V30 6 C 2.695810 -2.247070 1.561122 0
M  V30 7 N 2.080550 -1.850742 0.344103 0
M  V30 8 C 0.827601 -1.494073 -0.202981 0
M  V30 9 C 0.169772 -0.290400 -0.190376 0
M  V30 10 C 0.836248 0.797711 0.483013 0
M  V30 11 O 1.915438 0.945808 1.097471 0
M  V30 12 N 0.219564 2.076341 0.533948 0
M  V30 13 O 0.738827 3.172994 1.133532 0
M  V30 14 C 0.297635 3.170118 2.452188 0
M  V30 15 C 0.856366 4.430197 3.090251 0
M  V30 16 O 2.247630 4.378168 3.014567 0
M  V30 17 C -1.051772 -0.106232 -0.780259 0
M  V30 18 C -1.610897 -1.200282 -1.402940 0
M  V30 19 C -2.971417 -1.000664 -2.060334 0
M  V30 20 O -3.958025 -1.545889 -1.313328 0
M  V30 21 C -5.259578 -1.415588 -1.673190 0
M  V30 22 C -5.574326 -1.990974 -2.999085 0
M  V30 23 O -4.861423 -1.376482 -3.998117 0
M  V30 24 C -1.011833 -2.442291 -1.458575 0
M  V30 25 F -1.690529 -3.415748 -2.108404 0
M  V30 26 C 0.236503 -2.589963 -0.843719 0
M  V30 27 F 0.687550 -3.860176 -0.998571 0
M  V30 28 C 2.324322 -3.350546 2.301674 0
M  V30 29 F 1.313407 -4.143787 1.873048 0
M  V30 30 C 2.907022 -3.736539 3.490536 0
M  V30 31 H 5.657131 -3.767059 7.104313 0
M  V30 32 H 5.179412 -1.216435 3.657404 0
M  V30 33 H 4.118068 -0.597897 1.578925 0
M  V30 34 H 2.814244 -1.808671 -0.413681 0
M  V30 35 H -0.713936 2.347456 0.119128 0
M  V30 36 H 0.620203 2.262242 2.981631 0
M  V30 37 H -0.804790 3.217445 2.448408 0
M  V30 38 H 0.579504 4.380988 4.179157 0
M  V30 39 H 0.415338 5.327919 2.625578 0
M  V30 40 H 2.556052 4.948721 2.270319 0
M  V30 41 H -1.591852 0.809994 -0.791236 0
M  V30 42 H -2.919972 -1.542227 -3.057000 0
M  V30 43 H -3.135833 0.063112 -2.317707 0
M  V30 44 H -5.963710 -1.836499 -0.904379 0
M  V30 45 H -5.469761 -0.290423 -1.648589 0
M  V30 46 H -5.360801 -3.104325 -2.982726 0
M  V30 47 H -6.689539 -1.966613 -3.204435 0
M  V30 48 H -5.425918 -0.642715 -4.380420 0
M  V30 49 H 2.585493 -4.604016 4.033919 0
M  V30 END ATOM
M  V30 BEGIN BOND
M  V30 1 3 1 2
M  V30 2 1 2 3
M  V30 3 2 3 4
M  V30 4 1 4 5
M  V30 5 2 5 6
M  V30 6 1 6 7
M  V30 7 1 7 8
M  V30 8 2 8 9
M  V30 9 1 9 10
M  V30 10 2 10 11
M  V30 11 1 10 12
M  V30 12 1 12 13
M  V30 13 1 13 14
M  V30 14 1 14 15
M  V30 15 1 15 16
M  V30 16 1 9 17
M  V30 17 2 17 18
M  V30 18 1 18 19
M  V30 19 1 19 20
M  V30 20 1 20 21
M  V30 21 1 21 22
M  V30 22 1 22 23
M  V30 23 1 18 24
M  V30 24 1 24 25
M  V30 25 2 24 26
M  V30 26 1 26 27
M  V30 27 1 6 28
M  V30 28 1 28 29
M  V30 29 2 28 30
M  V30 30 1 30 3
M  V30 31 1 26 8
M  V30 32 1 1 31
M  V30 33 1 4 32
M  V30 34 1 5 33
M  V30 35 1 7 34
M  V30 36 1 12 35
M  V30 37 1 14 36
M  V30 38 1 14 37
M  V30 39 1 15 38
M  V30 40 1 15 39
M  V30 41 1 16 40
M  V30 42 1 17 41
M  V30 43 1 19 42
M  V30 44 1 19 43
M  V30 45 1 21 44
M  V30 46 1 21 45
M  V30 47 1 22 46
M  V30 48 1 22 47
M  V30 49 1 23 48
M  V30 50 1 30 49
M  V30 END BOND
M  V30 END CTAB
M  END
>  <Dataset>  (500) 
ChEMBL_Kinases

>  <Ligand_Instance>  (500) 
nan

>  <PDB_ID>  (500) 
nan

>  <Standardized_SMILES>  (500) 
C#Cc1ccc(Nc2c(C(=O)NOCCO)cc(COCCO)c(F)c2F)c(F)c1

>  <Name>  (500) 
nan

>  <Pocket>  (500) 
nan

>  <ATP_Site>  (500) 
nan

>  <Peripheral>  (500) 
nan

>  <Num_H_Atoms_ProtBoundConf>  (500) 
nan

>  <Num_Resolved_Atoms>  (500) 
nan

>  <Num_Not_Resolved_Atoms>  (500) 
nan

$$$$
CHEMBL3640620
     RDKit          3D

  0  0  0  0  0  0  0  0  0  0999 V3000
M  V30 BEGIN CTAB
M  V30 COUNTS 50 51 0 0 0
M  V30 BEGIN ATOM
M  V30 1 O 0.360573 -3.458560 1.812869 0
M  V30 2 C 0.663238 -2.278463 2.073723 0
M  V30 3 N 1.890546 -2.251385 2.757025 0
M  V30 4 O 2.711035 -3.259998 3.133142 0
M  V30 5 C 3.580448 -3.426151 2.036625 0
M  V30 6 C 4.612052 -4.497470 2.265469 0
M  V30 7 O 5.393292 -4.553163 1.116396 0
M  V30 8 C -0.076800 -1.078737 1.757418 0
M  V30 9 C 0.323742 0.178357 2.122502 0
M  V30 10 C -0.377868 1.362132 1.845084 0
M  V30 11 C 0.275935 2.582112 2.330601 0
M  V30 12 O 0.974739 3.318881 1.429658 0
M  V30 13 C 0.334343 3.919882 0.399092 0
M  V30 14 C -0.650808 4.988389 0.828903 0
M  V30 15 C -1.303075 5.563432 -0.406945 0
M  V30 16 O -1.981999 4.612250 -1.135726 0
M  V30 17 C -1.543625 1.146311 1.151856 0
M  V30 18 F -2.251586 2.259725 0.877701 0
M  V30 19 C -1.970509 -0.108599 0.771589 0
M  V30 20 F -3.174094 -0.078144 0.105128 0
M  V30 21 C -1.244430 -1.272310 1.063577 0
M  V30 22 N -1.878066 -2.414312 0.574966 0
M  V30 23 C -1.763099 -3.252674 -0.562994 0
M  V30 24 C -1.525032 -4.627703 -0.458180 0
M  V30 25 C -1.386944 -5.513677 -1.499997 0
M  V30 26 C -1.493018 -4.999298 -2.772954 0
M  V30 27 I -1.289767 -6.313957 -4.405306 0
M  V30 28 C -1.727091 -3.654919 -2.971621 0
M  V30 29 C -1.852159 -2.839836 -1.873808 0
M  V30 30 F -2.069618 -1.558283 -2.169708 0
M  V30 31 H 2.375676 -1.392834 3.093280 0
M  V30 32 H 2.995473 -3.622809 1.121762 0
M  V30 33 H 4.100900 -2.454364 1.921824 0
M  V30 34 H 4.192884 -5.486580 2.450861 0
M  V30 35 H 5.268859 -4.211185 3.105344 0
M  V30 36 H 5.486509 -3.668687 0.678494 0
M  V30 37 H 1.257819 0.203941 2.663108 0
M  V30 38 H -0.513966 3.188269 2.867112 0
M  V30 39 H 0.985301 2.324597 3.160017 0
M  V30 40 H -0.102961 3.252886 -0.365467 0
M  V30 41 H 1.130263 4.499546 -0.169243 0
M  V30 42 H -1.415950 4.673983 1.524794 0
M  V30 43 H -0.087379 5.830957 1.336409 0
M  V30 44 H -0.525634 6.037088 -1.045394 0
M  V30 45 H -1.987290 6.405343 -0.118734 0
M  V30 46 H -2.737198 4.994600 -1.648910 0
M  V30 47 H -2.641501 -2.760404 1.194897 0
M  V30 48 H -1.435047 -5.083930 0.533622 0
M  V30 49 H -1.204816 -6.559430 -1.338715 0
M  V30 50 H -1.800775 -3.306256 -3.991878 0
M  V30 END ATOM
M  V30 BEGIN BOND
M  V30 1 2 1 2
M  V30 2 1 2 3
M  V30 3 1 3 4
M  V30 4 1 4 5
M  V30 5 1 5 6
M  V30 6 1 6 7
M  V30 7 1 2 8
M  V30 8 2 8 9
M  V30 9 1 9 10
M  V30 10 1 10 11
M  V30 11 1 11 12
M  V30 12 1 12 13
M  V30 13 1 13 14
M  V30 14 1 14 15
M  V30 15 1 15 16
M  V30 16 2 10 17
M  V30 17 1 17 18
M  V30 18 1 17 19
M  V30 19 1 19 20
M  V30 20 2 19 21
M  V30 21 1 21 22
M  V30 22 1 22 23
M  V30 23 2 23 24
M  V30 24 1 24 25
M  V30 25 2 25 26
M  V30 26 1 26 27
M  V30 27 1 26 28
M  V30 28 2 28 29
M  V30 29 1 29 30
M  V30 30 1 21 8
M  V30 31 1 29 23
M  V30 32 1 3 31
M  V30 33 1 5 32
M  V30 34 1 5 33
M  V30 35 1 6 34
M  V30 36 1 6 35
M  V30 37 1 7 36
M  V30 38 1 9 37
M  V30 39 1 11 38
M  V30 40 1 11 39
M  V30 41 1 13 40
M  V30 42 1 13 41
M  V30 43 1 14 42
M  V30 44 1 14 43
M  V30 45 1 15 44
M  V30 46 1 15 45
M  V30 47 1 16 46
M  V30 48 1 22 47
M  V30 49 1 24 48
M  V30 50 1 25 49
M  V30 51 1 28 50
M  V30 END BOND
M  V30 END CTAB
M  END
>  <Dataset>  (501) 
ChEMBL_Kinases

>  <Ligand_Instance>  (501) 
nan

>  <PDB_ID>  (501) 
nan

>  <Standardized_SMILES>  (501) 
O=C(NOCCO)c1cc(COCCCO)c(F)c(F)c1Nc1ccc(I)cc1F

>  <Name>  (501) 
nan

>  <Pocket>  (501) 
nan

>  <ATP_Site>  (501) 
nan

>  <Peripheral>  (501) 
nan

>  <Num_H_Atoms_ProtBoundConf>  (501) 
nan

>  <Num_Resolved_Atoms>  (501) 
nan

>  <Num_Not_Resolved_Atoms>  (501) 
nan

$$$$
CHEMBL3640621
     RDKit          3D

  0  0  0  0  0  0  0  0  0  0999 V3000
M  V30 BEGIN CTAB
M  V30 COUNTS 51 52 0 0 0
M  V30 BEGIN ATOM
M  V30 1 O -1.220967 -3.425047 -0.218843 0
M  V30 2 C -0.624106 -2.373931 -0.535873 0
M  V30 3 N 0.528130 -2.782453 -1.239457 0
M  V30 4 O 0.871892 -4.065248 -1.493908 0
M  V30 5 C 1.655537 -4.494144 -0.422803 0
M  V30 6 C 2.089430 -5.946334 -0.630775 0
M  V30 7 O 2.826486 -6.037347 -1.799870 0
M  V30 8 C -0.886041 -0.961560 -0.326064 0
M  V30 9 C -0.037008 -0.009947 -0.827449 0
M  V30 10 C -0.337403 1.311975 -0.608248 0
M  V30 11 C 0.589719 2.351038 -1.161253 0
M  V30 12 O 1.392752 2.929413 -0.191224 0
M  V30 13 C 2.249089 3.892691 -0.716584 0
M  V30 14 C 3.070581 4.462818 0.415985 0
M  V30 15 O 2.196916 5.041921 1.364086 0
M  V30 16 C 3.878795 3.444211 1.159606 0
M  V30 17 O 4.562416 4.159805 2.169294 0
M  V30 18 C -1.463187 1.674165 0.097128 0
M  V30 19 F -1.651983 3.017681 0.248541 0
M  V30 20 C -2.310384 0.676434 0.595857 0
M  V30 21 F -3.368248 1.260753 1.250545 0
M  V30 22 C -2.015999 -0.665304 0.380789 0
M  V30 23 N -2.989040 -1.494465 0.955753 0
M  V30 24 C -3.232572 -2.258696 2.111796 0
M  V30 25 C -3.494766 -3.624155 2.020002 0
M  V30 26 C -3.730415 -4.437138 3.104543 0
M  V30 27 C -3.700185 -3.841998 4.346624 0
M  V30 28 I -4.056209 -5.054491 6.037774 0
M  V30 29 C -3.450861 -2.502456 4.545635 0
M  V30 30 C -3.222153 -1.749963 3.391295 0
M  V30 31 F -2.977453 -0.450354 3.620874 0
M  V30 32 H 1.271916 -2.157906 -1.660219 0
M  V30 33 H 1.143247 -4.362045 0.538915 0
M  V30 34 H 2.592138 -3.903276 -0.387761 0
M  V30 35 H 2.650041 -6.263743 0.257386 0
M  V30 36 H 1.142207 -6.520733 -0.759359 0
M  V30 37 H 3.796254 -5.902689 -1.589596 0
M  V30 38 H 0.850118 -0.231008 -1.381980 0
M  V30 39 H 1.148601 1.924770 -1.996237 0
M  V30 40 H -0.065222 3.178796 -1.535821 0
M  V30 41 H 1.603227 4.715122 -1.088178 0
M  V30 42 H 2.851373 3.565147 -1.563826 0
M  V30 43 H 3.722283 5.288700 0.086825 0
M  V30 44 H 1.366656 4.475044 1.309710 0
M  V30 45 H 4.649759 2.942419 0.541979 0
M  V30 46 H 3.238616 2.714282 1.696809 0
M  V30 47 H 3.888517 4.689950 2.687028 0
M  V30 48 H -3.844830 -1.604464 0.335548 0
M  V30 49 H -3.532482 -4.147299 1.057512 0
M  V30 50 H -3.930580 -5.491028 3.005954 0
M  V30 51 H -3.436897 -2.084624 5.526197 0
M  V30 END ATOM
M  V30 BEGIN BOND
M  V30 1 2 1 2
M  V30 2 1 2 3
M  V30 3 1 3 4
M  V30 4 1 4 5
M  V30 5 1 5 6
M  V30 6 1 6 7
M  V30 7 1 2 8
M  V30 8 2 8 9
M  V30 9 1 9 10
M  V30 10 1 10 11
M  V30 11 1 11 12
M  V30 12 1 12 13
M  V30 13 1 13 14
M  V30 14 1 14 15
M  V30 15 1 14 16
M  V30 16 1 16 17
M  V30 17 2 10 18
M  V30 18 1 18 19
M  V30 19 1 18 20
M  V30 20 1 20 21
M  V30 21 2 20 22
M  V30 22 1 22 23
M  V30 23 1 23 24
M  V30 24 2 24 25
M  V30 25 1 25 26
M  V30 26 2 26 27
M  V30 27 1 27 28
M  V30 28 1 27 29
M  V30 29 2 29 30
M  V30 30 1 30 31
M  V30 31 1 22 8
M  V30 32 1 30 24
M  V30 33 1 3 32
M  V30 34 1 5 33
M  V30 35 1 5 34
M  V30 36 1 6 35
M  V30 37 1 6 36
M  V30 38 1 7 37
M  V30 39 1 9 38
M  V30 40 1 11 39
M  V30 41 1 11 40
M  V30 42 1 13 41
M  V30 43 1 13 42
M  V30 44 1 14 43
M  V30 45 1 15 44
M  V30 46 1 16 45
M  V30 47 1 16 46
M  V30 48 1 17 47
M  V30 49 1 23 48
M  V30 50 1 25 49
M  V30 51 1 26 50
M  V30 52 1 29 51
M  V30 END BOND
M  V30 END CTAB
M  END
>  <Dataset>  (502) 
ChEMBL_Kinases

>  <Ligand_Instance>  (502) 
nan

>  <PDB_ID>  (502) 
nan

>  <Standardized_SMILES>  (502) 
O=C(NOCCO)c1cc(COCC(O)CO)c(F)c(F)c1Nc1ccc(I)cc1F

>  <Name>  (502) 
nan

>  <Pocket>  (502) 
nan

>  <ATP_Site>  (502) 
nan

>  <Peripheral>  (502) 
nan

>  <Num_H_Atoms_ProtBoundConf>  (502) 
nan

>  <Num_Resolved_Atoms>  (502) 
nan

>  <Num_Not_Resolved_Atoms>  (502) 
nan

$$$$
CHEMBL3640622
     RDKit          3D

  0  0  0  0  0  0  0  0  0  0999 V3000
M  V30 BEGIN CTAB
M  V30 COUNTS 52 53 0 0 0
M  V30 BEGIN ATOM
M  V30 1 C -4.081052 -0.293624 -3.230564 0
M  V30 2 S -3.942594 -2.035417 -3.252785 0
M  V30 3 O -2.471265 -2.457374 -3.398434 0
M  V30 4 O -4.594423 -2.496735 -4.562433 0
M  V30 5 C -4.638339 -2.916509 -1.941175 0
M  V30 6 C -4.119635 -2.684089 -0.555755 0
M  V30 7 O -4.201662 -1.586447 0.079367 0
M  V30 8 C -3.991680 -0.353397 0.236524 0
M  V30 9 C -2.581725 0.197074 0.244442 0
M  V30 10 C -1.394969 -0.467661 0.152673 0
M  V30 11 C -0.217844 0.222511 0.182388 0
M  V30 12 C 1.035481 -0.493472 0.096275 0
M  V30 13 O 2.202503 -0.118857 0.120723 0
M  V30 14 N 1.064783 -1.904908 -0.046127 0
M  V30 15 O 2.301792 -2.439287 -0.114122 0
M  V30 16 C 2.270161 -3.830160 -0.252526 0
M  V30 17 C 3.734464 -4.262019 -0.327960 0
M  V30 18 O 4.237719 -3.590422 -1.462257 0
M  V30 19 C -0.134184 1.586333 0.301841 0
M  V30 20 N 0.984363 2.430449 0.348171 0
M  V30 21 C 1.888885 3.038725 -0.558882 0
M  V30 22 C 3.258262 2.827715 -0.486263 0
M  V30 23 C 4.211644 3.360299 -1.323780 0
M  V30 24 C 3.741773 4.179261 -2.324174 0
M  V30 25 I 5.148253 5.030179 -3.644508 0
M  V30 26 C 2.403756 4.460709 -2.493128 0
M  V30 27 C 1.535897 3.873176 -1.596907 0
M  V30 28 F 0.239717 4.175464 -1.810499 0
M  V30 29 C -1.344589 2.286375 0.398680 0
M  V30 30 F -1.436428 3.645600 0.540528 0
M  V30 31 C -2.562997 1.595338 0.369839 0
M  V30 32 F -3.723150 2.329127 0.467709 0
M  V30 33 H -3.969902 0.163064 -4.244468 0
M  V30 34 H -3.309000 0.108900 -2.546994 0
M  V30 35 H -5.071162 -0.045988 -2.789206 0
M  V30 36 H -4.475292 -4.027939 -2.126955 0
M  V30 37 H -5.776746 -2.856000 -1.958494 0
M  V30 38 H -4.578370 -3.536686 0.119748 0
M  V30 39 H -3.029922 -3.123894 -0.564932 0
M  V30 40 H -4.440761 0.086995 1.222699 0
M  V30 41 H -4.524816 0.295255 -0.530574 0
M  V30 42 H -1.487122 -1.514789 0.065244 0
M  V30 43 H 0.213513 -2.538775 -0.100379 0
M  V30 44 H 1.777074 -4.304113 0.616864 0
M  V30 45 H 1.771873 -4.154363 -1.188857 0
M  V30 46 H 4.271462 -3.914318 0.569048 0
M  V30 47 H 3.854187 -5.347483 -0.420731 0
M  V30 48 H 3.678633 -3.793210 -2.245094 0
M  V30 49 H 1.131042 2.621033 1.371434 0
M  V30 50 H 3.674059 2.180243 0.302275 0
M  V30 51 H 5.255496 3.157353 -1.213795 0
M  V30 52 H 2.090523 5.104448 -3.287826 0
M  V30 END ATOM
M  V30 BEGIN BOND
M  V30 1 1 1 2
M  V30 2 2 2 3
M  V30 3 2 2 4
M  V30 4 1 2 5
M  V30 5 1 5 6
M  V30 6 1 6 7
M  V30 7 1 7 8
M  V30 8 1 8 9
M  V30 9 2 9 10
M  V30 10 1 10 11
M  V30 11 1 11 12
M  V30 12 2 12 13
M  V30 13 1 12 14
M  V30 14 1 14 15
M  V30 15 1 15 16
M  V30 16 1 16 17
M  V30 17 1 17 18
M  V30 18 2 11 19
M  V30 19 1 19 20
M  V30 20 1 20 21
M  V30 21 2 21 22
M  V30 22 1 22 23
M  V30 23 2 23 24
M  V30 24 1 24 25
M  V30 25 1 24 26
M  V30 26 2 26 27
M  V30 27 1 27 28
M  V30 28 1 19 29
M  V30 29 1 29 30
M  V30 30 2 29 31
M  V30 31 1 31 32
M  V30 32 1 31 9
M  V30 33 1 27 21
M  V30 34 1 1 33
M  V30 35 1 1 34
M  V30 36 1 1 35
M  V30 37 1 5 36
M  V30 38 1 5 37
M  V30 39 1 6 38
M  V30 40 1 6 39
M  V30 41 1 8 40
M  V30 42 1 8 41
M  V30 43 1 10 42
M  V30 44 1 14 43
M  V30 45 1 16 44
M  V30 46 1 16 45
M  V30 47 1 17 46
M  V30 48 1 17 47
M  V30 49 1 18 48
M  V30 50 1 20 49
M  V30 51 1 22 50
M  V30 52 1 23 51
M  V30 53 1 26 52
M  V30 END BOND
M  V30 END CTAB
M  END
>  <Dataset>  (503) 
ChEMBL_Kinases

>  <Ligand_Instance>  (503) 
nan

>  <PDB_ID>  (503) 
nan

>  <Standardized_SMILES>  (503) 
CS(=O)(=O)CCOCc1cc(C(=O)NOCCO)c(Nc2ccc(I)cc2F)c(F)c1F

>  <Name>  (503) 
nan

>  <Pocket>  (503) 
nan

>  <ATP_Site>  (503) 
nan

>  <Peripheral>  (503) 
nan

>  <Num_H_Atoms_ProtBoundConf>  (503) 
nan

>  <Num_Resolved_Atoms>  (503) 
nan

>  <Num_Not_Resolved_Atoms>  (503) 
nan

$$$$
CHEMBL3640623
     RDKit          3D

  0  0  0  0  0  0  0  0  0  0999 V3000
M  V30 BEGIN CTAB
M  V30 COUNTS 55 56 0 0 0
M  V30 BEGIN ATOM
M  V30 1 C 8.151860 0.105051 2.598225 0
M  V30 2 N 7.351911 1.160302 1.962057 0
M  V30 3 C 6.114715 0.699605 1.461859 0
M  V30 4 O 5.605236 -0.455446 1.478933 0
M  V30 5 C 5.204791 1.660562 0.793297 0
M  V30 6 C 3.929328 1.009722 0.318383 0
M  V30 7 O 3.122252 1.976928 -0.300464 0
M  V30 8 N 1.944778 1.445823 -0.703475 0
M  V30 9 C 0.914446 2.024738 0.169590 0
M  V30 10 C -0.440476 1.506671 -0.147884 0
M  V30 11 C -1.017588 0.556876 0.679325 0
M  V30 12 C -2.266061 0.021429 0.461935 0
M  V30 13 C -2.887905 -0.972913 1.320026 0
M  V30 14 O -4.037207 -1.424208 1.066677 0
M  V30 15 N -2.192380 -1.435618 2.449916 0
M  V30 16 O -2.225391 -2.256059 3.515832 0
M  V30 17 C -1.696388 -3.482919 3.124291 0
M  V30 18 C -1.731523 -4.465392 4.300627 0
M  V30 19 O -0.966041 -3.917860 5.334011 0
M  V30 20 C -3.027911 0.410669 -0.616906 0
M  V30 21 N -4.306333 -0.103246 -0.888282 0
M  V30 22 C -4.540585 -1.232910 -1.706337 0
M  V30 23 C -3.476481 -1.886196 -2.284284 0
M  V30 24 C -3.692650 -3.003409 -3.096249 0
M  V30 25 C -4.966723 -3.447253 -3.315668 0
M  V30 26 I -5.315307 -5.134289 -4.540720 0
M  V30 27 C -6.019083 -2.781344 -2.729244 0
M  V30 28 C -5.831450 -1.667920 -1.917716 0
M  V30 29 F -6.925927 -1.054332 -1.366438 0
M  V30 30 C -2.443255 1.370196 -1.451623 0
M  V30 31 F -3.134588 1.804384 -2.537319 0
M  V30 32 C -1.188564 1.918415 -1.246165 0
M  V30 33 F -0.667145 2.832532 -2.066985 0
M  V30 34 H 8.628616 -0.536358 1.812318 0
M  V30 35 H 8.926344 0.491702 3.265013 0
M  V30 36 H 7.501394 -0.541890 3.242711 0
M  V30 37 H 7.622032 2.148008 1.866119 0
M  V30 38 H 4.962640 2.467719 1.510529 0
M  V30 39 H 5.772062 2.118022 -0.039728 0
M  V30 40 H 3.427546 0.423306 1.082511 0
M  V30 41 H 4.233659 0.322054 -0.519019 0
M  V30 42 H 1.721182 1.732700 -1.683614 0
M  V30 43 H 1.126660 1.796054 1.223801 0
M  V30 44 H 0.856626 3.134367 0.000167 0
M  V30 45 H -0.436552 0.237530 1.530772 0
M  V30 46 H -1.243902 -1.144398 2.766051 0
M  V30 47 H -0.662824 -3.422638 2.756159 0
M  V30 48 H -2.280374 -3.966581 2.294261 0
M  V30 49 H -2.774278 -4.660320 4.624690 0
M  V30 50 H -1.284319 -5.430106 4.018681 0
M  V30 51 H -0.005739 -4.122900 5.232845 0
M  V30 52 H -5.094494 0.409845 -0.439380 0
M  V30 53 H -2.474482 -1.528630 -2.105711 0
M  V30 54 H -2.874041 -3.537017 -3.563648 0
M  V30 55 H -7.045027 -3.113991 -2.887508 0
M  V30 END ATOM
M  V30 BEGIN BOND
M  V30 1 1 1 2
M  V30 2 1 2 3
M  V30 3 2 3 4
M  V30 4 1 3 5
M  V30 5 1 5 6
M  V30 6 1 6 7
M  V30 7 1 7 8
M  V30 8 1 8 9
M  V30 9 1 9 10
M  V30 10 2 10 11
M  V30 11 1 11 12
M  V30 12 1 12 13
M  V30 13 2 13 14
M  V30 14 1 13 15
M  V30 15 1 15 16
M  V30 16 1 16 17
M  V30 17 1 17 18
M  V30 18 1 18 19
M  V30 19 2 12 20
M  V30 20 1 20 21
M  V30 21 1 21 22
M  V30 22 2 22 23
M  V30 23 1 23 24
M  V30 24 2 24 25
M  V30 25 1 25 26
M  V30 26 1 25 27
M  V30 27 2 27 28
M  V30 28 1 28 29
M  V30 29 1 20 30
M  V30 30 1 30 31
M  V30 31 2 30 32
M  V30 32 1 32 33
M  V30 33 1 32 10
M  V30 34 1 28 22
M  V30 35 1 1 34
M  V30 36 1 1 35
M  V30 37 1 1 36
M  V30 38 1 2 37
M  V30 39 1 5 38
M  V30 40 1 5 39
M  V30 41 1 6 40
M  V30 42 1 6 41
M  V30 43 1 8 42
M  V30 44 1 9 43
M  V30 45 1 9 44
M  V30 46 1 11 45
M  V30 47 1 15 46
M  V30 48 1 17 47
M  V30 49 1 17 48
M  V30 50 1 18 49
M  V30 51 1 18 50
M  V30 52 1 19 51
M  V30 53 1 21 52
M  V30 54 1 23 53
M  V30 55 1 24 54
M  V30 56 1 27 55
M  V30 END BOND
M  V30 END CTAB
M  END
>  <Dataset>  (504) 
ChEMBL_Kinases

>  <Ligand_Instance>  (504) 
nan

>  <PDB_ID>  (504) 
nan

>  <Standardized_SMILES>  (504) 
CNC(=O)CCONCc1cc(C(=O)NOCCO)c(Nc2ccc(I)cc2F)c(F)c1F

>  <Name>  (504) 
nan

>  <Pocket>  (504) 
nan

>  <ATP_Site>  (504) 
nan

>  <Peripheral>  (504) 
nan

>  <Num_H_Atoms_ProtBoundConf>  (504) 
nan

>  <Num_Resolved_Atoms>  (504) 
nan

>  <Num_Not_Resolved_Atoms>  (504) 
nan

$$$$
CHEMBL3640624
     RDKit          3D

  0  0  0  0  0  0  0  0  0  0999 V3000
M  V30 BEGIN CTAB
M  V30 COUNTS 55 56 0 0 0
M  V30 BEGIN ATOM
M  V30 1 C 4.916640 -2.197299 4.071384 0
M  V30 2 C 4.557538 -1.647876 2.761086 0
M  V30 3 O 4.983500 -0.439306 3.148181 0
M  V30 4 N 4.223481 -1.130765 1.538408 0
M  V30 5 C 4.357454 0.234485 1.103610 0
M  V30 6 C 3.858761 0.389316 -0.288921 0
M  V30 7 O 2.510467 0.050346 -0.460771 0
M  V30 8 N 2.055081 0.679092 -1.605390 0
M  V30 9 C 1.220949 1.787181 -1.280045 0
M  V30 10 C -0.203664 1.504823 -1.048995 0
M  V30 11 C -1.012267 1.232510 0.082500 0
M  V30 12 C -2.439992 0.976322 0.272558 0
M  V30 13 C -2.305232 0.987396 1.722590 0
M  V30 14 O -2.476561 1.994103 2.411825 0
M  V30 15 N -1.939811 -0.347170 2.176037 0
M  V30 16 O -1.565107 -1.219371 3.166515 0
M  V30 17 C -0.163025 -1.411858 3.031578 0
M  V30 18 C 0.037402 -2.636198 2.136311 0
M  V30 19 O 1.381376 -2.890177 1.947352 0
M  V30 20 C -2.862962 1.074575 -1.023589 0
M  V30 21 N -4.228613 0.684244 -0.821302 0
M  V30 22 C -4.371429 -0.762556 -0.844044 0
M  V30 23 C -3.285231 -1.584554 -0.938015 0
M  V30 24 C -3.090725 -2.961632 -1.002363 0
M  V30 25 C -4.363259 -3.587653 -0.953097 0
M  V30 26 I -4.326259 -5.712096 -1.023591 0
M  V30 27 C -5.542228 -2.851944 -0.857132 0
M  V30 28 C -5.554891 -1.479285 -0.803281 0
M  V30 29 F -6.693606 -0.764488 -0.713333 0
M  V30 30 C -2.307908 1.317932 -2.216240 0
M  V30 31 F -3.237752 1.314076 -3.196807 0
M  V30 32 C -0.956211 1.535547 -2.246099 0
M  V30 33 F -0.519795 1.753460 -3.494512 0
M  V30 34 H 5.131128 -3.302828 3.979802 0
M  V30 35 H 5.761853 -1.781859 4.614986 0
M  V30 36 H 4.003364 -2.185341 4.750543 0
M  V30 37 H 3.904251 -2.125343 1.232432 0
M  V30 38 H 3.802772 0.921346 1.800765 0
M  V30 39 H 5.418242 0.528020 1.200236 0
M  V30 40 H 4.476888 -0.168195 -1.014392 0
M  V30 41 H 3.922936 1.466833 -0.554997 0
M  V30 42 H 2.814150 0.972819 -2.208593 0
M  V30 43 H 1.595099 2.256286 -0.316908 0
M  V30 44 H 1.308157 2.579558 -2.058810 0
M  V30 45 H -0.140745 1.298132 0.809623 0
M  V30 46 H -1.934149 -1.184371 1.591970 0
M  V30 47 H 0.227014 -0.570912 2.461957 0
M  V30 48 H 0.350440 -1.580736 3.963440 0
M  V30 49 H -0.400049 -3.564374 2.542598 0
M  V30 50 H -0.410573 -2.452222 1.121865 0
M  V30 51 H 1.575543 -3.043809 0.964526 0
M  V30 52 H -5.166222 1.111259 -0.655826 0
M  V30 53 H -2.287324 -1.129024 -0.973465 0
M  V30 54 H -2.169156 -3.476271 -1.070181 0
M  V30 55 H -6.494658 -3.401084 -0.826731 0
M  V30 END ATOM
M  V30 BEGIN BOND
M  V30 1 1 1 2
M  V30 2 2 2 3
M  V30 3 1 2 4
M  V30 4 1 4 5
M  V30 5 1 5 6
M  V30 6 1 6 7
M  V30 7 1 7 8
M  V30 8 1 8 9
M  V30 9 1 9 10
M  V30 10 2 10 11
M  V30 11 1 11 12
M  V30 12 1 12 13
M  V30 13 2 13 14
M  V30 14 1 13 15
M  V30 15 1 15 16
M  V30 16 1 16 17
M  V30 17 1 17 18
M  V30 18 1 18 19
M  V30 19 2 12 20
M  V30 20 1 20 21
M  V30 21 1 21 22
M  V30 22 2 22 23
M  V30 23 1 23 24
M  V30 24 2 24 25
M  V30 25 1 25 26
M  V30 26 1 25 27
M  V30 27 2 27 28
M  V30 28 1 28 29
M  V30 29 1 20 30
M  V30 30 1 30 31
M  V30 31 2 30 32
M  V30 32 1 32 33
M  V30 33 1 32 10
M  V30 34 1 28 22
M  V30 35 1 1 34
M  V30 36 1 1 35
M  V30 37 1 1 36
M  V30 38 1 4 37
M  V30 39 1 5 38
M  V30 40 1 5 39
M  V30 41 1 6 40
M  V30 42 1 6 41
M  V30 43 1 8 42
M  V30 44 1 9 43
M  V30 45 1 9 44
M  V30 46 1 11 45
M  V30 47 1 15 46
M  V30 48 1 17 47
M  V30 49 1 17 48
M  V30 50 1 18 49
M  V30 51 1 18 50
M  V30 52 1 19 51
M  V30 53 1 21 52
M  V30 54 1 23 53
M  V30 55 1 24 54
M  V30 56 1 27 55
M  V30 END BOND
M  V30 END CTAB
M  END
>  <Dataset>  (505) 
ChEMBL_Kinases

>  <Ligand_Instance>  (505) 
nan

>  <PDB_ID>  (505) 
nan

>  <Standardized_SMILES>  (505) 
CC(=O)NCCONCc1cc(C(=O)NOCCO)c(Nc2ccc(I)cc2F)c(F)c1F

>  <Name>  (505) 
nan

>  <Pocket>  (505) 
nan

>  <ATP_Site>  (505) 
nan

>  <Peripheral>  (505) 
nan

>  <Num_H_Atoms_ProtBoundConf>  (505) 
nan

>  <Num_Resolved_Atoms>  (505) 
nan

>  <Num_Not_Resolved_Atoms>  (505) 
nan

$$$$
CHEMBL3640546
     RDKit          3D

  0  0  0  0  0  0  0  0  0  0999 V3000
M  V30 BEGIN CTAB
M  V30 COUNTS 65 68 0 0 0
M  V30 BEGIN ATOM
M  V30 1 C 4.248775 -0.755211 4.975203 0
M  V30 2 N 3.445270 -0.282294 3.868118 0
M  V30 3 C 2.051540 -0.416876 4.168333 0
M  V30 4 C 3.866980 -0.891253 2.641389 0
M  V30 5 C 5.247202 -0.355114 2.315630 0
M  V30 6 C 5.115984 1.156942 2.176183 0
M  V30 7 O 4.224721 1.513986 1.158315 0
M  V30 8 C 3.899645 2.811935 0.799230 0
M  V30 9 N 4.394474 3.915976 1.379529 0
M  V30 10 C 4.030581 5.153644 0.975992 0
M  V30 11 N 3.147846 5.296864 -0.035620 0
M  V30 12 C 2.626092 4.202289 -0.646861 0
M  V30 13 C 1.722882 4.326781 -1.683042 0
M  V30 14 C 1.167518 3.225539 -2.334131 0
M  V30 15 C 1.533018 1.961206 -1.929302 0
M  V30 16 C 1.019985 0.744471 -2.537562 0
M  V30 17 C 0.611523 -0.255706 -3.053700 0
M  V30 18 C 0.143505 -1.462511 -3.682847 0
M  V30 19 N -1.005358 -2.059899 -3.037116 0
M  V30 20 C -0.912193 -2.470670 -1.682360 0
M  V30 21 O 0.264607 -2.211355 -1.260759 0
M  V30 22 C -1.966560 -3.085617 -0.889924 0
M  V30 23 C -1.562403 -3.379649 0.421827 0
M  V30 24 N -2.428574 -3.952806 1.274902 0
M  V30 25 C -3.690754 -4.275569 0.958046 0
M  V30 26 N -4.061596 -3.987470 -0.301471 0
M  V30 27 C -5.411166 -4.302449 -0.728279 0
M  V30 28 C -6.320378 -3.158098 -0.456307 0
M  V30 29 C -6.918823 -3.188349 0.805693 0
M  V30 30 C -7.784962 -2.181561 1.176598 0
M  V30 31 C -8.081293 -1.134264 0.329186 0
M  V30 32 F -8.935528 -0.137444 0.688205 0
M  V30 33 C -7.486745 -1.114988 -0.909442 0
M  V30 34 F -7.712831 -0.126213 -1.817801 0
M  V30 35 C -6.620691 -2.108903 -1.297942 0
M  V30 36 C -3.260193 -3.425356 -1.187832 0
M  V30 37 O -3.583266 -3.153511 -2.349049 0
M  V30 38 C 2.443236 1.842631 -0.884763 0
M  V30 39 C 2.996768 2.931565 -0.235855 0
M  V30 40 H 4.496757 -1.843485 4.863552 0
M  V30 41 H 3.675450 -0.649647 5.940893 0
M  V30 42 H 5.161168 -0.124235 5.025913 0
M  V30 43 H 1.672446 -1.441667 4.155276 0
M  V30 44 H 1.466527 0.248255 3.472259 0
M  V30 45 H 1.906750 0.042157 5.183923 0
M  V30 46 H 3.951911 -1.998548 2.793557 0
M  V30 47 H 3.193517 -0.714423 1.799469 0
M  V30 48 H 5.679205 -0.778866 1.405246 0
M  V30 49 H 5.899365 -0.566814 3.178125 0
M  V30 50 H 6.137724 1.522370 1.892713 0
M  V30 51 H 4.807778 1.633046 3.107298 0
M  V30 52 H 4.481826 5.981485 1.502911 0
M  V30 53 H 1.459376 5.325289 -1.973643 0
M  V30 54 H 0.468738 3.323955 -3.136596 0
M  V30 55 H 0.922413 -2.255362 -3.746090 0
M  V30 56 H -0.077665 -1.210687 -4.752592 0
M  V30 57 H -1.900286 -2.194703 -3.551653 0
M  V30 58 H -0.592148 -3.189156 0.843436 0
M  V30 59 H -4.409385 -4.734948 1.615329 0
M  V30 60 H -5.762746 -5.212838 -0.215549 0
M  V30 61 H -5.398117 -4.531471 -1.833186 0
M  V30 62 H -6.722324 -3.998445 1.528029 0
M  V30 63 H -8.264839 -2.183450 2.156643 0
M  V30 64 H -6.130281 -2.136576 -2.261413 0
M  V30 65 H 2.736940 0.870266 -0.559471 0
M  V30 END ATOM
M  V30 BEGIN BOND
M  V30 1 1 1 2
M  V30 2 1 2 3
M  V30 3 1 2 4
M  V30 4 1 4 5
M  V30 5 1 5 6
M  V30 6 1 6 7
M  V30 7 1 7 8
M  V30 8 2 8 9
M  V30 9 1 9 10
M  V30 10 2 10 11
M  V30 11 1 11 12
M  V30 12 2 12 13
M  V30 13 1 13 14
M  V30 14 2 14 15
M  V30 15 1 15 16
M  V30 16 3 16 17
M  V30 17 1 17 18
M  V30 18 1 18 19
M  V30 19 1 19 20
M  V30 20 2 20 21
M  V30 21 1 20 22
M  V30 22 2 22 23
M  V30 23 1 23 24
M  V30 24 2 24 25
M  V30 25 1 25 26
M  V30 26 1 26 27
M  V30 27 1 27 28
M  V30 28 2 28 29
M  V30 29 1 29 30
M  V30 30 2 30 31
M  V30 31 1 31 32
M  V30 32 1 31 33
M  V30 33 1 33 34
M  V30 34 2 33 35
M  V30 35 1 26 36
M  V30 36 2 36 37
M  V30 37 1 15 38
M  V30 38 2 38 39
M  V30 39 1 39 8
M  V30 40 1 39 12
M  V30 41 1 36 22
M  V30 42 1 35 28
M  V30 43 1 1 40
M  V30 44 1 1 41
M  V30 45 1 1 42
M  V30 46 1 3 43
M  V30 47 1 3 44
M  V30 48 1 3 45
M  V30 49 1 4 46
M  V30 50 1 4 47
M  V30 51 1 5 48
M  V30 52 1 5 49
M  V30 53 1 6 50
M  V30 54 1 6 51
M  V30 55 1 10 52
M  V30 56 1 13 53
M  V30 57 1 14 54
M  V30 58 1 18 55
M  V30 59 1 18 56
M  V30 60 1 19 57
M  V30 61 1 23 58
M  V30 62 1 25 59
M  V30 63 1 27 60
M  V30 64 1 27 61
M  V30 65 1 29 62
M  V30 66 1 30 63
M  V30 67 1 35 64
M  V30 68 1 38 65
M  V30 END BOND
M  V30 END CTAB
M  END
>  <Dataset>  (506) 
ChEMBL_Kinases

>  <Ligand_Instance>  (506) 
nan

>  <PDB_ID>  (506) 
nan

>  <Standardized_SMILES>  (506) 
CN(C)CCCOc1ncnc2ccc(C#CCNC(=O)c3cncn(Cc4ccc(F)c(F)c4)c3=O)cc12

>  <Name>  (506) 
nan

>  <Pocket>  (506) 
nan

>  <ATP_Site>  (506) 
nan

>  <Peripheral>  (506) 
nan

>  <Num_H_Atoms_ProtBoundConf>  (506) 
nan

>  <Num_Resolved_Atoms>  (506) 
nan

>  <Num_Not_Resolved_Atoms>  (506) 
nan

$$$$
CHEMBL3640472
     RDKit          3D

  0  0  0  0  0  0  0  0  0  0999 V3000
M  V30 BEGIN CTAB
M  V30 COUNTS 57 60 0 0 0
M  V30 BEGIN ATOM
M  V30 1 N 3.825150 0.263021 4.611661 0
M  V30 2 C 4.398964 -0.673346 3.710330 0
M  V30 3 O 5.307661 -1.284946 4.352908 0
M  V30 4 C 3.924924 -0.801534 2.312850 0
M  V30 5 N 2.836995 0.141660 2.041208 0
M  V30 6 C 3.108528 1.529217 2.181901 0
M  V30 7 N 4.324235 1.962221 2.551047 0
M  V30 8 C 4.629857 3.263657 2.696908 0
M  V30 9 N 3.683013 4.217833 2.466870 0
M  V30 10 C 2.432417 3.875469 2.091715 0
M  V30 11 C 1.462916 4.827902 1.855037 0
M  V30 12 C 0.175963 4.460685 1.468272 0
M  V30 13 C -0.089197 3.107167 1.331736 0
M  V30 14 C -1.414937 2.716354 0.932874 0
M  V30 15 C -2.520112 2.369852 0.591302 0
M  V30 16 C -3.867111 1.927393 0.155107 0
M  V30 17 N -3.772482 0.601199 -0.460651 0
M  V30 18 C -3.254903 -0.325952 0.481233 0
M  V30 19 O -3.034815 0.297755 1.575235 0
M  V30 20 C -2.998059 -1.744043 0.295847 0
M  V30 21 C -2.482259 -2.382819 1.427414 0
M  V30 22 C -2.190239 -3.728683 1.397280 0
M  V30 23 C -2.378319 -4.517133 0.288570 0
M  V30 24 N -2.873952 -3.867483 -0.774306 0
M  V30 25 C -3.112243 -4.602247 -2.000978 0
M  V30 26 C -1.937049 -4.612643 -2.908349 0
M  V30 27 C -1.038524 -5.663797 -2.722180 0
M  V30 28 C 0.095762 -5.798508 -3.493461 0
M  V30 29 C 0.400574 -4.897695 -4.491610 0
M  V30 30 F 1.488509 -4.986963 -5.265099 0
M  V30 31 C -0.492813 -3.862984 -4.667921 0
M  V30 32 F -0.265488 -2.936605 -5.627174 0
M  V30 33 C -1.629630 -3.713414 -3.907202 0
M  V30 34 C -3.174591 -2.559973 -0.796519 0
M  V30 35 O -3.636566 -1.969603 -1.797304 0
M  V30 36 C 0.904580 2.178384 1.576458 0
M  V30 37 C 2.182922 2.526201 1.959873 0
M  V30 38 H 2.851654 0.676608 4.559011 0
M  V30 39 H 3.391328 0.947502 5.261535 0
M  V30 40 H 3.692127 -1.827206 2.028576 0
M  V30 41 H 4.811982 -0.513824 1.675679 0
M  V30 42 H 1.959149 -0.299594 1.768284 0
M  V30 43 H 5.653060 3.520371 3.002796 0
M  V30 44 H 1.740148 5.867791 1.981077 0
M  V30 45 H -0.573882 5.203015 1.285458 0
M  V30 46 H -4.572457 1.886291 0.994719 0
M  V30 47 H -4.222113 2.665226 -0.562110 0
M  V30 48 H -4.005610 0.244573 -1.412274 0
M  V30 49 H -2.293820 -1.849005 2.363674 0
M  V30 50 H -1.790170 -4.191263 2.297400 0
M  V30 51 H -2.166050 -5.566056 0.218520 0
M  V30 52 H -3.391702 -5.647305 -1.740948 0
M  V30 53 H -3.979294 -4.145607 -2.543710 0
M  V30 54 H -1.142220 -6.447244 -1.979998 0
M  V30 55 H 0.812034 -6.612324 -3.365369 0
M  V30 56 H -2.339801 -2.914790 -4.027559 0
M  V30 57 H 0.607971 1.153489 1.445448 0
M  V30 END ATOM
M  V30 BEGIN BOND
M  V30 1 1 1 2
M  V30 2 2 2 3
M  V30 3 1 2 4
M  V30 4 1 4 5
M  V30 5 1 5 6
M  V30 6 2 6 7
M  V30 7 1 7 8
M  V30 8 2 8 9
M  V30 9 1 9 10
M  V30 10 2 10 11
M  V30 11 1 11 12
M  V30 12 2 12 13
M  V30 13 1 13 14
M  V30 14 3 14 15
M  V30 15 1 15 16
M  V30 16 1 16 17
M  V30 17 1 17 18
M  V30 18 2 18 19
M  V30 19 1 18 20
M  V30 20 2 20 21
M  V30 21 1 21 22
M  V30 22 2 22 23
M  V30 23 1 23 24
M  V30 24 1 24 25
M  V30 25 1 25 26
M  V30 26 2 26 27
M  V30 27 1 27 28
M  V30 28 2 28 29
M  V30 29 1 29 30
M  V30 30 1 29 31
M  V30 31 1 31 32
M  V30 32 2 31 33
M  V30 33 1 24 34
M  V30 34 2 34 35
M  V30 35 1 13 36
M  V30 36 2 36 37
M  V30 37 1 37 6
M  V30 38 1 37 10
M  V30 39 1 34 20
M  V30 40 1 33 26
M  V30 41 1 1 38
M  V30 42 1 1 39
M  V30 43 1 4 40
M  V30 44 1 4 41
M  V30 45 1 5 42
M  V30 46 1 8 43
M  V30 47 1 11 44
M  V30 48 1 12 45
M  V30 49 1 16 46
M  V30 50 1 16 47
M  V30 51 1 17 48
M  V30 52 1 21 49
M  V30 53 1 22 50
M  V30 54 1 23 51
M  V30 55 1 25 52
M  V30 56 1 25 53
M  V30 57 1 27 54
M  V30 58 1 28 55
M  V30 59 1 33 56
M  V30 60 1 36 57
M  V30 END BOND
M  V30 END CTAB
M  END
>  <Dataset>  (507) 
ChEMBL_Kinases

>  <Ligand_Instance>  (507) 
nan

>  <PDB_ID>  (507) 
nan

>  <Standardized_SMILES>  (507) 
NC(=O)CNc1ncnc2ccc(C#CCNC(=O)c3cccn(Cc4ccc(F)c(F)c4)c3=O)cc12

>  <Name>  (507) 
nan

>  <Pocket>  (507) 
nan

>  <ATP_Site>  (507) 
nan

>  <Peripheral>  (507) 
nan

>  <Num_H_Atoms_ProtBoundConf>  (507) 
nan

>  <Num_Resolved_Atoms>  (507) 
nan

>  <Num_Not_Resolved_Atoms>  (507) 
nan

$$$$
CHEMBL3640471
     RDKit          3D

  0  0  0  0  0  0  0  0  0  0999 V3000
M  V30 BEGIN CTAB
M  V30 COUNTS 63 66 0 0 0
M  V30 BEGIN ATOM
M  V30 1 C 2.891150 1.578262 4.261733 0
M  V30 2 N 3.859282 0.786179 3.502126 0
M  V30 3 C 3.919201 -0.630659 3.890866 0
M  V30 4 C 2.634739 -1.330073 3.502673 0
M  V30 5 C 2.706098 -2.788617 3.906591 0
M  V30 6 O 3.783321 -3.358173 3.241519 0
M  V30 7 C 4.626708 1.429018 2.492772 0
M  V30 8 N 5.972322 1.450044 2.628469 0
M  V30 9 C 6.747741 2.054139 1.693594 0
M  V30 10 N 6.213732 2.648436 0.608331 0
M  V30 11 C 4.865289 2.663520 0.410150 0
M  V30 12 C 4.330871 3.266704 -0.692476 0
M  V30 13 C 2.956304 3.235030 -0.816351 0
M  V30 14 C 2.161547 2.616749 0.139781 0
M  V30 15 C 0.742008 2.642976 -0.091673 0
M  V30 16 C -0.447048 2.659968 -0.306256 0
M  V30 17 C -1.883628 2.684867 -0.591124 0
M  V30 18 N -2.502234 1.366429 -0.382310 0
M  V30 19 C -1.874905 0.439702 -1.248892 0
M  V30 20 O -0.976119 1.041491 -1.930713 0
M  V30 21 C -2.149959 -0.979416 -1.398511 0
M  V30 22 C -1.370290 -1.639140 -2.329743 0
M  V30 23 C -1.511433 -2.980618 -2.582364 0
M  V30 24 C -2.454369 -3.753260 -1.909465 0
M  V30 25 N -3.191114 -3.080564 -1.015347 0
M  V30 26 C -4.181717 -3.845780 -0.300636 0
M  V30 27 C -5.432486 -3.779291 -1.117711 0
M  V30 28 C -5.531542 -4.794733 -2.073960 0
M  V30 29 C -6.637005 -4.879630 -2.921135 0
M  V30 30 C -7.670609 -3.957634 -2.838333 0
M  V30 31 F -8.753703 -4.018383 -3.648418 0
M  V30 32 C -7.529609 -2.975129 -1.881440 0
M  V30 33 F -8.489479 -2.033563 -1.729616 0
M  V30 34 C -6.451028 -2.882404 -1.046422 0
M  V30 35 C -3.067122 -1.782172 -0.758486 0
M  V30 36 O -3.775915 -1.184274 0.088315 0
M  V30 37 C 2.736990 2.018137 1.240137 0
M  V30 38 C 4.107523 2.044480 1.372890 0
M  V30 39 H 1.896813 1.131709 4.302058 0
M  V30 40 H 2.904912 2.635583 3.924463 0
M  V30 41 H 3.286107 1.562698 5.317196 0
M  V30 42 H 4.811267 -1.050038 3.429189 0
M  V30 43 H 4.026502 -0.764555 4.980690 0
M  V30 44 H 1.800548 -0.889460 4.053373 0
M  V30 45 H 2.459227 -1.259550 2.411956 0
M  V30 46 H 1.794179 -3.321027 3.612600 0
M  V30 47 H 2.860707 -2.831127 5.015044 0
M  V30 48 H 3.565822 -3.543115 2.310473 0
M  V30 49 H 7.836693 2.054351 1.832689 0
M  V30 50 H 4.979782 3.729329 -1.401207 0
M  V30 51 H 2.523991 3.713298 -1.691251 0
M  V30 52 H -2.073702 2.939684 -1.653932 0
M  V30 53 H -2.321943 3.425628 0.106989 0
M  V30 54 H -3.248696 1.029031 0.232408 0
M  V30 55 H -0.609195 -1.123398 -2.904449 0
M  V30 56 H -0.892993 -3.467958 -3.311555 0
M  V30 57 H -2.517139 -4.803310 -2.152007 0
M  V30 58 H -3.859078 -4.890037 -0.157113 0
M  V30 59 H -4.447335 -3.356431 0.665483 0
M  V30 60 H -4.802939 -5.582634 -2.252463 0
M  V30 61 H -6.738630 -5.656129 -3.671230 0
M  V30 62 H -6.326598 -2.122141 -0.293889 0
M  V30 63 H 2.062722 1.554415 1.946212 0
M  V30 END ATOM
M  V30 BEGIN BOND
M  V30 1 1 1 2
M  V30 2 1 2 3
M  V30 3 1 3 4
M  V30 4 1 4 5
M  V30 5 1 5 6
M  V30 6 1 2 7
M  V30 7 2 7 8
M  V30 8 1 8 9
M  V30 9 2 9 10
M  V30 10 1 10 11
M  V30 11 2 11 12
M  V30 12 1 12 13
M  V30 13 2 13 14
M  V30 14 1 14 15
M  V30 15 3 15 16
M  V30 16 1 16 17
M  V30 17 1 17 18
M  V30 18 1 18 19
M  V30 19 2 19 20
M  V30 20 1 19 21
M  V30 21 2 21 22
M  V30 22 1 22 23
M  V30 23 2 23 24
M  V30 24 1 24 25
M  V30 25 1 25 26
M  V30 26 1 26 27
M  V30 27 2 27 28
M  V30 28 1 28 29
M  V30 29 2 29 30
M  V30 30 1 30 31
M  V30 31 1 30 32
M  V30 32 1 32 33
M  V30 33 2 32 34
M  V30 34 1 25 35
M  V30 35 2 35 36
M  V30 36 1 14 37
M  V30 37 2 37 38
M  V30 38 1 38 7
M  V30 39 1 38 11
M  V30 40 1 35 21
M  V30 41 1 34 27
M  V30 42 1 1 39
M  V30 43 1 1 40
M  V30 44 1 1 41
M  V30 45 1 3 42
M  V30 46 1 3 43
M  V30 47 1 4 44
M  V30 48 1 4 45
M  V30 49 1 5 46
M  V30 50 1 5 47
M  V30 51 1 6 48
M  V30 52 1 9 49
M  V30 53 1 12 50
M  V30 54 1 13 51
M  V30 55 1 17 52
M  V30 56 1 17 53
M  V30 57 1 18 54
M  V30 58 1 22 55
M  V30 59 1 23 56
M  V30 60 1 24 57
M  V30 61 1 26 58
M  V30 62 1 26 59
M  V30 63 1 28 60
M  V30 64 1 29 61
M  V30 65 1 34 62
M  V30 66 1 37 63
M  V30 END BOND
M  V30 END CTAB
M  END
>  <Dataset>  (508) 
ChEMBL_Kinases

>  <Ligand_Instance>  (508) 
nan

>  <PDB_ID>  (508) 
nan

>  <Standardized_SMILES>  (508) 
CN(CCCO)c1ncnc2ccc(C#CCNC(=O)c3cccn(Cc4ccc(F)c(F)c4)c3=O)cc12

>  <Name>  (508) 
nan

>  <Pocket>  (508) 
nan

>  <ATP_Site>  (508) 
nan

>  <Peripheral>  (508) 
nan

>  <Num_H_Atoms_ProtBoundConf>  (508) 
nan

>  <Num_Resolved_Atoms>  (508) 
nan

>  <Num_Not_Resolved_Atoms>  (508) 
nan

$$$$
CHEMBL3640470
     RDKit          3D

  0  0  0  0  0  0  0  0  0  0999 V3000
M  V30 BEGIN CTAB
M  V30 COUNTS 60 63 0 0 0
M  V30 BEGIN ATOM
M  V30 1 N 4.835675 -0.672175 3.596907 0
M  V30 2 C 4.177848 0.500648 3.151412 0
M  V30 3 O 3.774752 0.366750 1.960886 0
M  V30 4 C 4.129498 1.560186 4.166196 0
M  V30 5 C 3.434754 2.798165 3.696948 0
M  V30 6 N 2.057740 2.541752 3.319170 0
M  V30 7 C 1.268757 3.621509 2.853385 0
M  V30 8 N 1.789805 4.855758 2.765365 0
M  V30 9 C 1.079877 5.909953 2.329595 0
M  V30 10 N -0.224238 5.773551 1.950136 0
M  V30 11 C -0.831982 4.562588 2.006338 0
M  V30 12 C -2.148605 4.393389 1.629664 0
M  V30 13 C -2.749135 3.146772 1.695394 0
M  V30 14 C -1.980763 2.104122 2.147079 0
M  V30 15 C -2.632753 0.815987 2.205319 0
M  V30 16 C -3.167221 -0.280899 2.249819 0
M  V30 17 C -3.788886 -1.609492 2.297242 0
M  V30 18 N -3.251153 -2.489996 1.267261 0
M  V30 19 C -3.455088 -1.998377 -0.028593 0
M  V30 20 O -4.071547 -0.882958 0.018472 0
M  V30 21 C -3.066805 -2.586623 -1.280406 0
M  V30 22 C -3.388110 -1.894767 -2.440359 0
M  V30 23 C -3.061276 -2.371592 -3.691669 0
M  V30 24 C -2.395704 -3.563485 -3.873338 0
M  V30 25 N -2.089786 -4.224657 -2.742674 0
M  V30 26 C -1.385192 -5.492476 -2.853784 0
M  V30 27 C 0.080045 -5.352019 -2.840035 0
M  V30 28 C 0.899440 -5.375616 -1.732736 0
M  V30 29 C 2.270081 -5.235759 -1.805138 0
M  V30 30 C 2.885816 -5.060911 -3.040131 0
M  V30 31 F 4.232886 -4.924956 -3.094354 0
M  V30 32 C 2.103990 -5.030511 -4.181565 0
M  V30 33 F 2.657599 -4.863959 -5.391551 0
M  V30 34 C 0.733619 -5.174535 -4.064120 0
M  V30 35 C -2.405044 -3.766205 -1.519979 0
M  V30 36 O -2.088472 -4.434018 -0.526065 0
M  V30 37 C -0.669903 2.294892 2.517575 0
M  V30 38 C -0.048584 3.524834 2.461716 0
M  V30 39 H 5.444589 -1.398104 4.045224 0
M  V30 40 H 4.636719 -1.667899 3.327253 0
M  V30 41 H 5.172758 1.809793 4.427310 0
M  V30 42 H 3.655383 1.150831 5.099913 0
M  V30 43 H 3.425849 3.551116 4.509225 0
M  V30 44 H 4.031067 3.218895 2.864178 0
M  V30 45 H 1.744894 1.556792 3.421686 0
M  V30 46 H 1.611222 6.851624 2.304215 0
M  V30 47 H -2.704669 5.260883 1.279850 0
M  V30 48 H -3.782867 3.111769 1.379777 0
M  V30 49 H -4.885238 -1.498729 2.232037 0
M  V30 50 H -3.596758 -2.115718 3.276013 0
M  V30 51 H -2.763216 -3.387919 1.391686 0
M  V30 52 H -3.919766 -0.934838 -2.378454 0
M  V30 53 H -3.344648 -1.776591 -4.552271 0
M  V30 54 H -2.156964 -3.906063 -4.849585 0
M  V30 55 H -1.682127 -5.952653 -3.817331 0
M  V30 56 H -1.701524 -6.204141 -2.065809 0
M  V30 57 H 0.426406 -5.509848 -0.787364 0
M  V30 58 H 2.862415 -5.263489 -0.889829 0
M  V30 59 H 0.135145 -5.146845 -4.985227 0
M  V30 60 H -0.163930 1.421299 2.852989 0
M  V30 END ATOM
M  V30 BEGIN BOND
M  V30 1 1 1 2
M  V30 2 2 2 3
M  V30 3 1 2 4
M  V30 4 1 4 5
M  V30 5 1 5 6
M  V30 6 1 6 7
M  V30 7 2 7 8
M  V30 8 1 8 9
M  V30 9 2 9 10
M  V30 10 1 10 11
M  V30 11 2 11 12
M  V30 12 1 12 13
M  V30 13 2 13 14
M  V30 14 1 14 15
M  V30 15 3 15 16
M  V30 16 1 16 17
M  V30 17 1 17 18
M  V30 18 1 18 19
M  V30 19 2 19 20
M  V30 20 1 19 21
M  V30 21 2 21 22
M  V30 22 1 22 23
M  V30 23 2 23 24
M  V30 24 1 24 25
M  V30 25 1 25 26
M  V30 26 1 26 27
M  V30 27 2 27 28
M  V30 28 1 28 29
M  V30 29 2 29 30
M  V30 30 1 30 31
M  V30 31 1 30 32
M  V30 32 1 32 33
M  V30 33 2 32 34
M  V30 34 1 25 35
M  V30 35 2 35 36
M  V30 36 1 14 37
M  V30 37 2 37 38
M  V30 38 1 38 7
M  V30 39 1 38 11
M  V30 40 1 35 21
M  V30 41 1 34 27
M  V30 42 1 1 39
M  V30 43 1 1 40
M  V30 44 1 4 41
M  V30 45 1 4 42
M  V30 46 1 5 43
M  V30 47 1 5 44
M  V30 48 1 6 45
M  V30 49 1 9 46
M  V30 50 1 12 47
M  V30 51 1 13 48
M  V30 52 1 17 49
M  V30 53 1 17 50
M  V30 54 1 18 51
M  V30 55 1 22 52
M  V30 56 1 23 53
M  V30 57 1 24 54
M  V30 58 1 26 55
M  V30 59 1 26 56
M  V30 60 1 28 57
M  V30 61 1 29 58
M  V30 62 1 34 59
M  V30 63 1 37 60
M  V30 END BOND
M  V30 END CTAB
M  END
>  <Dataset>  (509) 
ChEMBL_Kinases

>  <Ligand_Instance>  (509) 
nan

>  <PDB_ID>  (509) 
nan

>  <Standardized_SMILES>  (509) 
NC(=O)CCNc1ncnc2ccc(C#CCNC(=O)c3cccn(Cc4ccc(F)c(F)c4)c3=O)cc12

>  <Name>  (509) 
nan

>  <Pocket>  (509) 
nan

>  <ATP_Site>  (509) 
nan

>  <Peripheral>  (509) 
nan

>  <Num_H_Atoms_ProtBoundConf>  (509) 
nan

>  <Num_Resolved_Atoms>  (509) 
nan

>  <Num_Not_Resolved_Atoms>  (509) 
nan

$$$$
CHEMBL3640469
     RDKit          3D

  0  0  0  0  0  0  0  0  0  0999 V3000
M  V30 BEGIN CTAB
M  V30 COUNTS 66 69 0 0 0
M  V30 BEGIN ATOM
M  V30 1 C 4.762703 -1.387731 4.889794 0
M  V30 2 C 3.579037 -2.130231 4.387224 0
M  V30 3 C 3.532337 -3.463567 5.124831 0
M  V30 4 C 2.330868 -1.361377 4.790378 0
M  V30 5 O 2.372227 -0.086695 4.229420 0
M  V30 6 C 3.537321 -2.423066 2.935155 0
M  V30 7 N 3.547529 -1.289875 2.044972 0
M  V30 8 C 4.591129 -0.381709 1.728441 0
M  V30 9 N 5.828037 -0.467640 2.228999 0
M  V30 10 C 6.837608 0.358509 1.938160 0
M  V30 11 N 6.609860 1.365267 1.072678 0
M  V30 12 C 5.391404 1.533799 0.514143 0
M  V30 13 C 5.193873 2.572931 -0.365796 0
M  V30 14 C 3.974604 2.797437 -0.967999 0
M  V30 15 C 2.948602 1.932162 -0.652281 0
M  V30 16 C 1.685346 2.176852 -1.285666 0
M  V30 17 C 0.621576 2.400298 -1.806801 0
M  V30 18 C -0.666273 2.696429 -2.434663 0
M  V30 19 N -1.737767 1.849136 -1.946150 0
M  V30 20 C -1.558271 0.455640 -2.148984 0
M  V30 21 O -0.440524 0.270406 -2.742192 0
M  V30 22 C -2.461391 -0.619214 -1.766302 0
M  V30 23 C -1.998239 -1.893472 -2.106648 0
M  V30 24 C -2.742163 -3.013990 -1.810321 0
M  V30 25 C -3.963671 -2.950230 -1.173335 0
M  V30 26 N -4.365495 -1.702949 -0.866927 0
M  V30 27 C -5.643797 -1.557389 -0.197272 0
M  V30 28 C -6.683073 -1.422986 -1.251413 0
M  V30 29 C -7.234697 -2.625183 -1.711270 0
M  V30 30 C -8.212996 -2.659382 -2.689702 0
M  V30 31 C -8.683239 -1.481634 -3.252742 0
M  V30 32 F -9.633627 -1.410837 -4.211224 0
M  V30 33 C -8.138989 -0.313825 -2.797565 0
M  V30 34 F -8.515953 0.913424 -3.270931 0
M  V30 35 C -7.165264 -0.283354 -1.823381 0
M  V30 36 C -3.682152 -0.595012 -1.132793 0
M  V30 37 O -4.071648 0.540735 -0.841217 0
M  V30 38 C 3.185626 0.904097 0.232857 0
M  V30 39 C 4.388916 0.655072 0.848562 0
M  V30 40 H 4.733685 -0.305017 4.743260 0
M  V30 41 H 5.685027 -1.902058 4.568533 0
M  V30 42 H 4.766078 -1.510926 6.025305 0
M  V30 43 H 4.525239 -3.912348 5.052870 0
M  V30 44 H 3.284568 -3.214822 6.172543 0
M  V30 45 H 2.723002 -4.103056 4.732059 0
M  V30 46 H 2.280971 -1.246472 5.880984 0
M  V30 47 H 1.428921 -1.904202 4.437239 0
M  V30 48 H 2.860642 0.492330 4.866720 0
M  V30 49 H 2.651715 -3.063790 2.742175 0
M  V30 50 H 4.484035 -2.988271 2.662429 0
M  V30 51 H 2.618556 -1.164660 1.593416 0
M  V30 52 H 7.797329 0.169517 2.422126 0
M  V30 53 H 6.043761 3.219237 -0.572475 0
M  V30 54 H 3.935960 3.642259 -1.640760 0
M  V30 55 H -0.868447 3.771259 -2.221295 0
M  V30 56 H -0.623932 2.570399 -3.536934 0
M  V30 57 H -2.607898 2.168593 -1.470094 0
M  V30 58 H -1.040624 -2.055612 -2.614841 0
M  V30 59 H -2.360235 -3.986248 -2.084700 0
M  V30 60 H -4.582886 -3.794375 -0.919575 0
M  V30 61 H -5.644708 -0.639402 0.426814 0
M  V30 62 H -5.828948 -2.463137 0.408736 0
M  V30 63 H -6.954926 -3.600603 -1.354856 0
M  V30 64 H -8.649238 -3.576670 -3.056177 0
M  V30 65 H -6.738885 0.630616 -1.465534 0
M  V30 66 H 2.318647 0.292308 0.407229 0
M  V30 END ATOM
M  V30 BEGIN BOND
M  V30 1 1 1 2
M  V30 2 1 2 3
M  V30 3 1 2 4
M  V30 4 1 4 5
M  V30 5 1 2 6
M  V30 6 1 6 7
M  V30 7 1 7 8
M  V30 8 2 8 9
M  V30 9 1 9 10
M  V30 10 2 10 11
M  V30 11 1 11 12
M  V30 12 2 12 13
M  V30 13 1 13 14
M  V30 14 2 14 15
M  V30 15 1 15 16
M  V30 16 3 16 17
M  V30 17 1 17 18
M  V30 18 1 18 19
M  V30 19 1 19 20
M  V30 20 2 20 21
M  V30 21 1 20 22
M  V30 22 2 22 23
M  V30 23 1 23 24
M  V30 24 2 24 25
M  V30 25 1 25 26
M  V30 26 1 26 27
M  V30 27 1 27 28
M  V30 28 2 28 29
M  V30 29 1 29 30
M  V30 30 2 30 31
M  V30 31 1 31 32
M  V30 32 1 31 33
M  V30 33 1 33 34
M  V30 34 2 33 35
M  V30 35 1 26 36
M  V30 36 2 36 37
M  V30 37 1 15 38
M  V30 38 2 38 39
M  V30 39 1 39 8
M  V30 40 1 39 12
M  V30 41 1 36 22
M  V30 42 1 35 28
M  V30 43 1 1 40
M  V30 44 1 1 41
M  V30 45 1 1 42
M  V30 46 1 3 43
M  V30 47 1 3 44
M  V30 48 1 3 45
M  V30 49 1 4 46
M  V30 50 1 4 47
M  V30 51 1 5 48
M  V30 52 1 6 49
M  V30 53 1 6 50
M  V30 54 1 7 51
M  V30 55 1 10 52
M  V30 56 1 13 53
M  V30 57 1 14 54
M  V30 58 1 18 55
M  V30 59 1 18 56
M  V30 60 1 19 57
M  V30 61 1 23 58
M  V30 62 1 24 59
M  V30 63 1 25 60
M  V30 64 1 27 61
M  V30 65 1 27 62
M  V30 66 1 29 63
M  V30 67 1 30 64
M  V30 68 1 35 65
M  V30 69 1 38 66
M  V30 END BOND
M  V30 END CTAB
M  END
>  <Dataset>  (510) 
ChEMBL_Kinases

>  <Ligand_Instance>  (510) 
nan

>  <PDB_ID>  (510) 
nan

>  <Standardized_SMILES>  (510) 
CC(C)(CO)CNc1ncnc2ccc(C#CCNC(=O)c3cccn(Cc4ccc(F)c(F)c4)c3=O)cc12

>  <Name>  (510) 
nan

>  <Pocket>  (510) 
nan

>  <ATP_Site>  (510) 
nan

>  <Peripheral>  (510) 
nan

>  <Num_H_Atoms_ProtBoundConf>  (510) 
nan

>  <Num_Resolved_Atoms>  (510) 
nan

>  <Num_Not_Resolved_Atoms>  (510) 
nan

$$$$
CHEMBL3640468
     RDKit          3D

  0  0  0  0  0  0  0  0  0  0999 V3000
M  V30 BEGIN CTAB
M  V30 COUNTS 61 65 0 0 0
M  V30 BEGIN ATOM
M  V30 1 O 2.053424 -4.528955 3.288263 0
M  V30 2 C 2.053478 -4.000530 2.128630 0
M  V30 3 N 1.834004 -2.607140 2.255905 0
M  V30 4 C 1.652114 -1.996307 3.559890 0
M  V30 5 C 1.440895 -0.533141 3.415188 0
M  V30 6 C 1.273488 0.655668 3.276914 0
M  V30 7 C 1.085210 2.069638 3.089783 0
M  V30 8 C 2.125813 2.945696 3.341494 0
M  V30 9 C 1.910435 4.300101 3.150667 0
M  V30 10 C 0.675499 4.766459 2.715917 0
M  V30 11 N 0.437174 6.076401 2.521565 0
M  V30 12 C -0.784967 6.497829 2.094735 0
M  V30 13 N -1.761697 5.576694 1.867466 0
M  V30 14 C -1.566812 4.253594 2.049191 0
M  V30 15 N -2.692877 3.426772 1.766398 0
M  V30 16 C -3.544020 2.470899 2.492430 0
M  V30 17 C -4.911053 2.654784 1.812505 0
M  V30 18 C -4.441309 2.591039 0.369912 0 CFG=2
M  V30 19 O -4.063038 1.279734 0.119774 0
M  V30 20 C -3.221359 3.468287 0.415056 0
M  V30 21 C -0.319384 3.852205 2.482217 0
M  V30 22 C -0.157831 2.501551 2.655591 0
M  V30 23 C 2.252111 -4.756596 0.905493 0
M  V30 24 C 2.444744 -6.119490 1.083367 0
M  V30 25 C 2.644230 -6.965753 0.035981 0
M  V30 26 C 2.668891 -6.530260 -1.270706 0
M  V30 27 N 2.480287 -5.207290 -1.419830 0
M  V30 28 C 2.489600 -4.654143 -2.759303 0
M  V30 29 C 1.146490 -4.637915 -3.385820 0
M  V30 30 C 0.827938 -5.784473 -4.092033 0
M  V30 31 C -0.395055 -5.931171 -4.741580 0
M  V30 32 C -1.316894 -4.917071 -4.686219 0
M  V30 33 F -2.528427 -4.996245 -5.297609 0
M  V30 34 C -1.004487 -3.783885 -3.989397 0
M  V30 35 F -1.888310 -2.739590 -3.901393 0
M  V30 36 C 0.215129 -3.623977 -3.335063 0
M  V30 37 C 2.282480 -4.354620 -0.410564 0
M  V30 38 O 2.109262 -3.127023 -0.574423 0
M  V30 39 H 1.805357 -2.025753 1.391885 0
M  V30 40 H 2.544060 -2.110301 4.202799 0
M  V30 41 H 0.745943 -2.482340 3.993042 0
M  V30 42 H 3.085245 2.540416 3.683209 0
M  V30 43 H 2.701952 4.987764 3.340207 0
M  V30 44 H -0.974629 7.561742 1.938069 0
M  V30 45 H -3.579811 2.665853 3.566395 0
M  V30 46 H -3.289286 1.411442 2.221533 0
M  V30 47 H -5.557801 1.797501 2.004406 0
M  V30 48 H -5.347323 3.641309 2.052939 0
M  V30 49 H -5.201351 2.965713 -0.341146 0
M  V30 50 H -3.991130 1.029369 -0.814483 0
M  V30 51 H -3.580070 4.527038 0.265689 0
M  V30 52 H -2.460610 3.183379 -0.336645 0
M  V30 53 H -0.935572 1.804373 2.471316 0
M  V30 54 H 2.444558 -6.571471 2.070542 0
M  V30 55 H 2.792218 -8.027610 0.203920 0
M  V30 56 H 2.826052 -7.195136 -2.100660 0
M  V30 57 H 3.241409 -5.167985 -3.417092 0
M  V30 58 H 2.833229 -3.580057 -2.740228 0
M  V30 59 H 1.510669 -6.634167 -4.180829 0
M  V30 60 H -0.653479 -6.823025 -5.295929 0
M  V30 61 H 0.507382 -2.750444 -2.773896 0
M  V30 END ATOM
M  V30 BEGIN BOND
M  V30 1 2 1 2
M  V30 2 1 2 3
M  V30 3 1 3 4
M  V30 4 1 4 5
M  V30 5 3 5 6
M  V30 6 1 6 7
M  V30 7 2 7 8
M  V30 8 1 8 9
M  V30 9 2 9 10
M  V30 10 1 10 11
M  V30 11 2 11 12
M  V30 12 1 12 13
M  V30 13 2 13 14
M  V30 14 1 14 15
M  V30 15 1 15 16
M  V30 16 1 16 17
M  V30 17 1 17 18
M  V30 18 1 18 19
M  V30 19 1 18 20
M  V30 20 1 14 21
M  V30 21 2 21 22
M  V30 22 1 2 23
M  V30 23 2 23 24
M  V30 24 1 24 25
M  V30 25 2 25 26
M  V30 26 1 26 27
M  V30 27 1 27 28
M  V30 28 1 28 29
M  V30 29 2 29 30
M  V30 30 1 30 31
M  V30 31 2 31 32
M  V30 32 1 32 33
M  V30 33 1 32 34
M  V30 34 1 34 35
M  V30 35 2 34 36
M  V30 36 1 27 37
M  V30 37 2 37 38
M  V30 38 1 22 7
M  V30 39 1 37 23
M  V30 40 1 21 10
M  V30 41 1 36 29
M  V30 42 1 20 15
M  V30 43 1 3 39
M  V30 44 1 4 40
M  V30 45 1 4 41
M  V30 46 1 8 42
M  V30 47 1 9 43
M  V30 48 1 12 44
M  V30 49 1 16 45
M  V30 50 1 16 46
M  V30 51 1 17 47
M  V30 52 1 17 48
M  V30 53 1 18 49 CFG=3
M  V30 54 1 19 50
M  V30 55 1 20 51
M  V30 56 1 20 52
M  V30 57 1 22 53
M  V30 58 1 24 54
M  V30 59 1 25 55
M  V30 60 1 26 56
M  V30 61 1 28 57
M  V30 62 1 28 58
M  V30 63 1 30 59
M  V30 64 1 31 60
M  V30 65 1 36 61
M  V30 END BOND
M  V30 END CTAB
M  END
>  <Dataset>  (511) 
ChEMBL_Kinases

>  <Ligand_Instance>  (511) 
nan

>  <PDB_ID>  (511) 
nan

>  <Standardized_SMILES>  (511) 
O=C(NCC#Cc1ccc2ncnc(N3CC[C@H](O)C3)c2c1)c1cccn(Cc2ccc(F)c(F)c2)c1=O

>  <Name>  (511) 
nan

>  <Pocket>  (511) 
nan

>  <ATP_Site>  (511) 
nan

>  <Peripheral>  (511) 
nan

>  <Num_H_Atoms_ProtBoundConf>  (511) 
nan

>  <Num_Resolved_Atoms>  (511) 
nan

>  <Num_Not_Resolved_Atoms>  (511) 
nan

$$$$
CHEMBL3640467
     RDKit          3D

  0  0  0  0  0  0  0  0  0  0999 V3000
M  V30 BEGIN CTAB
M  V30 COUNTS 67 71 0 0 0
M  V30 BEGIN ATOM
M  V30 1 C 5.390779 -0.093776 2.420077 0
M  V30 2 C 4.150046 0.225701 1.679491 0
M  V30 3 O 3.018443 -0.197574 2.027491 0
M  V30 4 N 4.306779 1.045863 0.540721 0
M  V30 5 C 3.260329 1.494736 -0.339976 0 CFG=2
M  V30 6 C 3.532265 1.035370 -1.775663 0
M  V30 7 C 3.117478 2.149034 -2.682238 0
M  V30 8 N 2.452787 3.091851 -1.769773 0
M  V30 9 C 1.339648 3.926076 -2.070124 0
M  V30 10 N 1.598298 5.250747 -2.043404 0
M  V30 11 C 0.658851 6.193881 -2.319119 0
M  V30 12 N -0.611082 5.810760 -2.639828 0
M  V30 13 C -0.916538 4.489465 -2.678318 0
M  V30 14 C -2.190957 4.061338 -2.992989 0
M  V30 15 C -2.478575 2.707144 -3.019618 0
M  V30 16 C -1.470284 1.799196 -2.726919 0
M  V30 17 C -1.722043 0.367327 -2.732606 0
M  V30 18 C -1.930954 -0.820129 -2.716110 0
M  V30 19 C -2.195284 -2.274423 -2.671450 0
M  V30 20 N -2.467479 -2.676033 -1.287985 0
M  V30 21 C -2.746115 -4.004552 -0.945308 0
M  V30 22 O -2.723624 -4.757621 -1.977025 0
M  V30 23 C -3.032596 -4.547381 0.369515 0
M  V30 24 C -3.270761 -5.912037 0.449050 0
M  V30 25 C -3.546946 -6.530229 1.644703 0
M  V30 26 C -3.604915 -5.837578 2.836419 0
M  V30 27 N -3.372720 -4.515925 2.747863 0
M  V30 28 C -3.421145 -3.735395 3.966090 0
M  V30 29 C -2.109009 -3.643080 4.655170 0
M  V30 30 C -1.188822 -2.639833 4.430602 0
M  V30 31 C 0.032649 -2.553265 5.072537 0
M  V30 32 C 0.341841 -3.549862 6.003711 0
M  V30 33 F 1.520682 -3.533485 6.673141 0
M  V30 34 C -0.589248 -4.558564 6.225552 0
M  V30 35 F -0.215680 -5.502501 7.154096 0
M  V30 36 C -1.805003 -4.621312 5.569197 0
M  V30 37 C -3.103388 -3.911084 1.583798 0
M  V30 38 O -2.895092 -2.676032 1.557909 0
M  V30 39 C -0.164582 2.181899 -2.402842 0
M  V30 40 C 0.048202 3.549190 -2.396263 0
M  V30 41 C 3.176979 2.984201 -0.492720 0
M  V30 42 H 5.286527 -1.148472 2.789720 0
M  V30 43 H 5.564990 0.523189 3.309598 0
M  V30 44 H 6.284456 -0.094543 1.749166 0
M  V30 45 H 5.191680 1.447752 0.167431 0
M  V30 46 H 2.254653 1.127893 -0.021609 0
M  V30 47 H 4.630809 0.835172 -1.822562 0
M  V30 48 H 2.984215 0.086786 -1.911774 0
M  V30 49 H 4.074817 2.647367 -3.026050 0
M  V30 50 H 2.509241 1.870278 -3.540815 0
M  V30 51 H 0.897881 7.250972 -2.290556 0
M  V30 52 H -2.975350 4.744489 -3.220280 0
M  V30 53 H -3.461869 2.287467 -3.259527 0
M  V30 54 H -1.332381 -2.783405 -3.098808 0
M  V30 55 H -3.086010 -2.530759 -3.298366 0
M  V30 56 H -2.451483 -1.959636 -0.555782 0
M  V30 57 H -3.243911 -6.530547 -0.443103 0
M  V30 58 H -3.727477 -7.585119 1.672280 0
M  V30 59 H -3.824607 -6.373154 3.747413 0
M  V30 60 H -3.798210 -2.715971 3.662537 0
M  V30 61 H -4.173446 -4.138319 4.685419 0
M  V30 62 H -1.415131 -1.868374 3.718404 0
M  V30 63 H 0.745184 -1.761645 4.887889 0
M  V30 64 H -2.485091 -5.446945 5.799219 0
M  V30 65 H 0.601016 1.453278 -2.177165 0
M  V30 66 H 2.611420 3.474032 0.322395 0
M  V30 67 H 4.175624 3.415889 -0.667159 0
M  V30 END ATOM
M  V30 BEGIN BOND
M  V30 1 1 1 2
M  V30 2 2 2 3
M  V30 3 1 2 4
M  V30 4 1 4 5
M  V30 5 1 5 6
M  V30 6 1 6 7
M  V30 7 1 7 8
M  V30 8 1 8 9
M  V30 9 2 9 10
M  V30 10 1 10 11
M  V30 11 2 11 12
M  V30 12 1 12 13
M  V30 13 2 13 14
M  V30 14 1 14 15
M  V30 15 2 15 16
M  V30 16 1 16 17
M  V30 17 3 17 18
M  V30 18 1 18 19
M  V30 19 1 19 20
M  V30 20 1 20 21
M  V30 21 2 21 22
M  V30 22 1 21 23
M  V30 23 2 23 24
M  V30 24 1 24 25
M  V30 25 2 25 26
M  V30 26 1 26 27
M  V30 27 1 27 28
M  V30 28 1 28 29
M  V30 29 2 29 30
M  V30 30 1 30 31
M  V30 31 2 31 32
M  V30 32 1 32 33
M  V30 33 1 32 34
M  V30 34 1 34 35
M  V30 35 2 34 36
M  V30 36 1 27 37
M  V30 37 2 37 38
M  V30 38 1 16 39
M  V30 39 2 39 40
M  V30 40 1 8 41
M  V30 41 1 41 5
M  V30 42 1 40 9
M  V30 43 1 40 13
M  V30 44 1 37 23
M  V30 45 1 36 29
M  V30 46 1 1 42
M  V30 47 1 1 43
M  V30 48 1 1 44
M  V30 49 1 4 45
M  V30 50 1 5 46 CFG=1
M  V30 51 1 6 47
M  V30 52 1 6 48
M  V30 53 1 7 49
M  V30 54 1 7 50
M  V30 55 1 11 51
M  V30 56 1 14 52
M  V30 57 1 15 53
M  V30 58 1 19 54
M  V30 59 1 19 55
M  V30 60 1 20 56
M  V30 61 1 24 57
M  V30 62 1 25 58
M  V30 63 1 26 59
M  V30 64 1 28 60
M  V30 65 1 28 61
M  V30 66 1 30 62
M  V30 67 1 31 63
M  V30 68 1 36 64
M  V30 69 1 39 65
M  V30 70 1 41 66
M  V30 71 1 41 67
M  V30 END BOND
M  V30 END CTAB
M  END
>  <Dataset>  (512) 
ChEMBL_Kinases

>  <Ligand_Instance>  (512) 
nan

>  <PDB_ID>  (512) 
nan

>  <Standardized_SMILES>  (512) 
CC(=O)N[C@@H]1CCN(c2ncnc3ccc(C#CCNC(=O)c4cccn(Cc5ccc(F)c(F)c5)c4=O)cc23)C1

>  <Name>  (512) 
nan

>  <Pocket>  (512) 
nan

>  <ATP_Site>  (512) 
nan

>  <Peripheral>  (512) 
nan

>  <Num_H_Atoms_ProtBoundConf>  (512) 
nan

>  <Num_Resolved_Atoms>  (512) 
nan

>  <Num_Not_Resolved_Atoms>  (512) 
nan

$$$$
CHEMBL3640466
     RDKit          3D

  0  0  0  0  0  0  0  0  0  0999 V3000
M  V30 BEGIN CTAB
M  V30 COUNTS 68 72 0 0 0
M  V30 BEGIN ATOM
M  V30 1 C 2.188709 -1.705256 5.870216 0
M  V30 2 N 2.462360 -0.768355 4.802064 0
M  V30 3 C 2.708344 -1.413788 3.559347 0
M  V30 4 C 3.852612 -0.670809 2.874541 0
M  V30 5 C 3.189901 0.336622 1.954664 0
M  V30 6 N 2.525849 1.381678 2.753656 0
M  V30 7 C 3.112588 2.703577 2.703864 0
M  V30 8 N 3.800666 3.285745 3.724962 0
M  V30 9 C 4.334815 4.528042 3.536014 0
M  V30 10 N 4.233712 5.247096 2.385869 0
M  V30 11 C 3.552762 4.707575 1.330865 0
M  V30 12 C 3.398105 5.393167 0.154202 0
M  V30 13 C 2.681311 4.868126 -0.928953 0
M  V30 14 C 2.140783 3.628153 -0.746829 0
M  V30 15 C 1.355587 2.899534 -1.686875 0
M  V30 16 C 0.677246 2.260721 -2.475839 0
M  V30 17 C -0.174235 1.463075 -3.427926 0
M  V30 18 N -0.480396 0.260769 -2.685827 0
M  V30 19 C -1.220418 -0.792248 -3.108021 0
M  V30 20 O -1.698435 -0.777307 -4.294020 0
M  V30 21 C -1.817423 -2.032925 -2.937489 0
M  V30 22 C -1.219473 -2.098739 -1.531669 0
M  V30 23 C -1.358795 -3.164348 -0.559503 0
M  V30 24 C -2.148502 -4.275062 -0.973071 0
M  V30 25 N -2.717951 -4.273244 -2.231347 0
M  V30 26 C -3.548655 -5.279714 -2.806674 0
M  V30 27 C -4.983102 -5.091278 -2.488842 0
M  V30 28 C -5.996906 -4.562464 -3.259506 0
M  V30 29 C -7.290424 -4.440380 -2.778340 0
M  V30 30 C -7.606751 -4.844474 -1.508513 0
M  V30 31 F -8.901659 -4.702755 -1.074381 0
M  V30 32 C -6.643263 -5.380850 -0.688279 0
M  V30 33 F -6.937259 -5.796025 0.592577 0
M  V30 34 C -5.372526 -5.484847 -1.205907 0
M  V30 35 C -2.312668 -3.115997 -2.728324 0
M  V30 36 O -2.831685 -3.046411 -3.959362 0
M  V30 37 C 2.320285 2.957819 0.468460 0
M  V30 38 C 3.028216 3.457808 1.558815 0
M  V30 39 C 1.348226 0.996368 3.496405 0
M  V30 40 C 1.588961 0.348858 4.809558 0
M  V30 41 H 1.096405 -1.935528 5.884651 0
M  V30 42 H 2.669716 -2.657501 5.553135 0
M  V30 43 H 2.625910 -1.432592 6.825782 0
M  V30 44 H 1.829069 -1.403697 2.873798 0
M  V30 45 H 2.957043 -2.486917 3.702913 0
M  V30 46 H 4.375598 -0.085457 3.653890 0
M  V30 47 H 4.581962 -1.312173 2.395617 0
M  V30 48 H 2.458787 -0.152697 1.301698 0
M  V30 49 H 3.971374 0.835481 1.371354 0
M  V30 50 H 4.885213 4.974897 4.373511 0
M  V30 51 H 3.824722 6.377167 0.005210 0
M  V30 52 H 2.499802 5.304140 -1.888919 0
M  V30 53 H -1.041921 2.071486 -3.670988 0
M  V30 54 H 0.457136 1.174269 -4.302165 0
M  V30 55 H -0.162503 0.057383 -1.728000 0
M  V30 56 H -0.571377 -1.523597 -0.782864 0
M  V30 57 H -1.028951 -3.421075 0.464918 0
M  V30 58 H -2.375172 -5.185544 -0.389621 0
M  V30 59 H -3.253236 -6.285295 -2.401575 0
M  V30 60 H -3.404456 -5.340574 -3.905988 0
M  V30 61 H -5.680539 -4.262552 -4.272393 0
M  V30 62 H -7.974310 -4.010938 -3.493544 0
M  V30 63 H -4.663871 -5.924400 -0.484353 0
M  V30 64 H 1.885659 1.961655 0.622751 0
M  V30 65 H 0.648710 0.380975 2.853550 0
M  V30 66 H 0.702638 1.903312 3.720174 0
M  V30 67 H 2.035509 1.107899 5.517055 0
M  V30 68 H 0.593348 0.083550 5.244589 0
M  V30 END ATOM
M  V30 BEGIN BOND
M  V30 1 1 1 2
M  V30 2 1 2 3
M  V30 3 1 3 4
M  V30 4 1 4 5
M  V30 5 1 5 6
M  V30 6 1 6 7
M  V30 7 2 7 8
M  V30 8 1 8 9
M  V30 9 2 9 10
M  V30 10 1 10 11
M  V30 11 2 11 12
M  V30 12 1 12 13
M  V30 13 2 13 14
M  V30 14 1 14 15
M  V30 15 3 15 16
M  V30 16 1 16 17
M  V30 17 1 17 18
M  V30 18 1 18 19
M  V30 19 2 19 20
M  V30 20 1 19 21
M  V30 21 2 21 22
M  V30 22 1 22 23
M  V30 23 2 23 24
M  V30 24 1 24 25
M  V30 25 1 25 26
M  V30 26 1 26 27
M  V30 27 2 27 28
M  V30 28 1 28 29
M  V30 29 2 29 30
M  V30 30 1 30 31
M  V30 31 1 30 32
M  V30 32 1 32 33
M  V30 33 2 32 34
M  V30 34 1 25 35
M  V30 35 2 35 36
M  V30 36 1 14 37
M  V30 37 2 37 38
M  V30 38 1 6 39
M  V30 39 1 39 40
M  V30 40 1 40 2
M  V30 41 1 38 7
M  V30 42 1 38 11
M  V30 43 1 35 21
M  V30 44 1 34 27
M  V30 45 1 1 41
M  V30 46 1 1 42
M  V30 47 1 1 43
M  V30 48 1 3 44
M  V30 49 1 3 45
M  V30 50 1 4 46
M  V30 51 1 4 47
M  V30 52 1 5 48
M  V30 53 1 5 49
M  V30 54 1 9 50
M  V30 55 1 12 51
M  V30 56 1 13 52
M  V30 57 1 17 53
M  V30 58 1 17 54
M  V30 59 1 18 55
M  V30 60 1 22 56
M  V30 61 1 23 57
M  V30 62 1 24 58
M  V30 63 1 26 59
M  V30 64 1 26 60
M  V30 65 1 28 61
M  V30 66 1 29 62
M  V30 67 1 34 63
M  V30 68 1 37 64
M  V30 69 1 39 65
M  V30 70 1 39 66
M  V30 71 1 40 67
M  V30 72 1 40 68
M  V30 END BOND
M  V30 END CTAB
M  END
>  <Dataset>  (513) 
ChEMBL_Kinases

>  <Ligand_Instance>  (513) 
nan

>  <PDB_ID>  (513) 
nan

>  <Standardized_SMILES>  (513) 
CN1CCCN(c2ncnc3ccc(C#CCNC(=O)c4cccn(Cc5ccc(F)c(F)c5)c4=O)cc23)CC1

>  <Name>  (513) 
nan

>  <Pocket>  (513) 
nan

>  <ATP_Site>  (513) 
nan

>  <Peripheral>  (513) 
nan

>  <Num_H_Atoms_ProtBoundConf>  (513) 
nan

>  <Num_Resolved_Atoms>  (513) 
nan

>  <Num_Not_Resolved_Atoms>  (513) 
nan

$$$$
CHEMBL3640465
     RDKit          3D

  0  0  0  0  0  0  0  0  0  0999 V3000
M  V30 BEGIN CTAB
M  V30 COUNTS 67 70 0 0 0
M  V30 BEGIN ATOM
M  V30 1 C -3.417563 -0.567170 2.291337 0
M  V30 2 N -2.903730 0.229121 1.190585 0
M  V30 3 C -3.128037 -0.510289 -0.043948 0
M  V30 4 C -2.604043 0.283553 -1.244020 0
M  V30 5 C -2.878349 -0.550211 -2.451656 0
M  V30 6 N -2.452757 0.041824 -3.705290 0
M  V30 7 C -2.826114 -0.870418 -4.797960 0
M  V30 8 C -1.776438 1.227280 -4.172558 0
M  V30 9 N -2.632516 2.017960 -4.880205 0
M  V30 10 C -2.172606 3.197199 -5.391964 0
M  V30 11 N -0.900704 3.583691 -5.208829 0
M  V30 12 C -0.065948 2.810091 -4.517779 0
M  V30 13 C 1.274837 3.112603 -4.273428 0
M  V30 14 C 2.098112 2.263521 -3.550532 0
M  V30 15 C 1.607105 1.060566 -3.035408 0
M  V30 16 C 2.501176 0.218876 -2.297522 0
M  V30 17 C 3.266751 -0.489980 -1.692852 0
M  V30 18 C 4.213791 -1.334595 -0.964580 0
M  V30 19 N 3.720734 -1.747792 0.333996 0
M  V30 20 C 2.525491 -2.507184 0.454517 0
M  V30 21 O 2.056468 -2.706937 -0.720720 0
M  V30 22 C 1.901947 -2.996569 1.675899 0
M  V30 23 C 0.722236 -3.718339 1.448397 0
M  V30 24 C 0.014675 -4.247409 2.505402 0
M  V30 25 C 0.409501 -4.105568 3.818962 0
M  V30 26 N 1.544963 -3.406966 3.990300 0
M  V30 27 C 2.040634 -3.202665 5.326726 0
M  V30 28 C 1.521521 -1.970180 5.973228 0
M  V30 29 C 0.333403 -2.050216 6.697975 0
M  V30 30 C -0.222403 -0.951726 7.333288 0
M  V30 31 C 0.414106 0.266715 7.251558 0
M  V30 32 F -0.073065 1.362637 7.842872 0
M  V30 33 C 1.606699 0.391849 6.535840 0
M  V30 34 F 2.222762 1.583683 6.460123 0
M  V30 35 C 2.119245 -0.730877 5.921378 0
M  V30 36 C 2.269472 -2.872445 2.997072 0
M  V30 37 O 3.327132 -2.222109 3.157564 0
M  V30 38 C 0.289420 0.734603 -3.259385 0
M  V30 39 C -0.473729 1.609731 -3.978035 0
M  V30 40 H -2.611134 -1.074691 2.834363 0
M  V30 41 H -3.982696 0.054779 3.022783 0
M  V30 42 H -4.131521 -1.340697 1.934142 0
M  V30 43 H -3.500422 1.103643 1.150450 0
M  V30 44 H -2.613216 -1.487624 0.057120 0
M  V30 45 H -4.196957 -0.725500 -0.178177 0
M  V30 46 H -1.579785 0.607576 -1.099279 0
M  V30 47 H -3.230815 1.195353 -1.285189 0
M  V30 48 H -3.980673 -0.765506 -2.541137 0
M  V30 49 H -2.415627 -1.565882 -2.377815 0
M  V30 50 H -2.613022 -0.482493 -5.789718 0
M  V30 51 H -2.319533 -1.833134 -4.574418 0
M  V30 52 H -3.925316 -1.071705 -4.702544 0
M  V30 53 H -2.833136 3.849776 -5.961536 0
M  V30 54 H 1.655962 4.045271 -4.672713 0
M  V30 55 H 3.134740 2.564141 -3.398570 0
M  V30 56 H 5.173111 -0.792849 -0.828256 0
M  V30 57 H 4.461343 -2.194112 -1.625394 0
M  V30 58 H 4.228605 -1.498560 1.200753 0
M  V30 59 H 0.320230 -3.890612 0.457202 0
M  V30 60 H -0.892874 -4.801120 2.310704 0
M  V30 61 H -0.117961 -4.505051 4.673133 0
M  V30 62 H 3.149241 -3.199677 5.319091 0
M  V30 63 H 1.746415 -4.053067 5.998654 0
M  V30 64 H -0.166209 -2.998381 6.764248 0
M  V30 65 H -1.143806 -1.046638 7.886783 0
M  V30 66 H 3.027911 -0.635718 5.376675 0
M  V30 67 H -0.106270 -0.193598 -2.866933 0
M  V30 END ATOM
M  V30 BEGIN BOND
M  V30 1 1 1 2
M  V30 2 1 2 3
M  V30 3 1 3 4
M  V30 4 1 4 5
M  V30 5 1 5 6
M  V30 6 1 6 7
M  V30 7 1 6 8
M  V30 8 2 8 9
M  V30 9 1 9 10
M  V30 10 2 10 11
M  V30 11 1 11 12
M  V30 12 2 12 13
M  V30 13 1 13 14
M  V30 14 2 14 15
M  V30 15 1 15 16
M  V30 16 3 16 17
M  V30 17 1 17 18
M  V30 18 1 18 19
M  V30 19 1 19 20
M  V30 20 2 20 21
M  V30 21 1 20 22
M  V30 22 2 22 23
M  V30 23 1 23 24
M  V30 24 2 24 25
M  V30 25 1 25 26
M  V30 26 1 26 27
M  V30 27 1 27 28
M  V30 28 2 28 29
M  V30 29 1 29 30
M  V30 30 2 30 31
M  V30 31 1 31 32
M  V30 32 1 31 33
M  V30 33 1 33 34
M  V30 34 2 33 35
M  V30 35 1 26 36
M  V30 36 2 36 37
M  V30 37 1 15 38
M  V30 38 2 38 39
M  V30 39 1 39 8
M  V30 40 1 39 12
M  V30 41 1 36 22
M  V30 42 1 35 28
M  V30 43 1 1 40
M  V30 44 1 1 41
M  V30 45 1 1 42
M  V30 46 1 2 43
M  V30 47 1 3 44
M  V30 48 1 3 45
M  V30 49 1 4 46
M  V30 50 1 4 47
M  V30 51 1 5 48
M  V30 52 1 5 49
M  V30 53 1 7 50
M  V30 54 1 7 51
M  V30 55 1 7 52
M  V30 56 1 10 53
M  V30 57 1 13 54
M  V30 58 1 14 55
M  V30 59 1 18 56
M  V30 60 1 18 57
M  V30 61 1 19 58
M  V30 62 1 23 59
M  V30 63 1 24 60
M  V30 64 1 25 61
M  V30 65 1 27 62
M  V30 66 1 27 63
M  V30 67 1 29 64
M  V30 68 1 30 65
M  V30 69 1 35 66
M  V30 70 1 38 67
M  V30 END BOND
M  V30 END CTAB
M  END
>  <Dataset>  (514) 
ChEMBL_Kinases

>  <Ligand_Instance>  (514) 
nan

>  <PDB_ID>  (514) 
nan

>  <Standardized_SMILES>  (514) 
CNCCCN(C)c1ncnc2ccc(C#CCNC(=O)c3cccn(Cc4ccc(F)c(F)c4)c3=O)cc12

>  <Name>  (514) 
nan

>  <Pocket>  (514) 
nan

>  <ATP_Site>  (514) 
nan

>  <Peripheral>  (514) 
nan

>  <Num_H_Atoms_ProtBoundConf>  (514) 
nan

>  <Num_Resolved_Atoms>  (514) 
nan

>  <Num_Not_Resolved_Atoms>  (514) 
nan

$$$$
CHEMBL3640464
     RDKit          3D

  0  0  0  0  0  0  0  0  0  0999 V3000
M  V30 BEGIN CTAB
M  V30 COUNTS 60 64 0 0 0
M  V30 BEGIN ATOM
M  V30 1 O -4.597726 -4.257627 0.045795 0
M  V30 2 C -3.377772 -3.895427 -0.094800 0
M  V30 3 N -3.150038 -3.588516 1.240324 0
M  V30 4 C -2.982219 -3.296109 2.606446 0
M  V30 5 C -1.675791 -2.727682 3.001925 0
M  V30 6 C -0.619930 -2.258710 3.301304 0
M  V30 7 C 0.644565 -1.670164 3.654394 0
M  V30 8 C 1.687904 -2.260618 4.322502 0
M  V30 9 C 2.845126 -1.542896 4.556075 0
M  V30 10 C 2.978411 -0.229263 4.130186 0
M  V30 11 N 4.118197 0.452410 4.349472 0
M  V30 12 C 4.252268 1.741799 3.911104 0
M  V30 13 N 3.241806 2.342805 3.255987 0
M  V30 14 C 2.077415 1.727502 3.002026 0
M  V30 15 N 0.952230 2.344433 2.344641 0
M  V30 16 C -0.142176 2.739488 3.233960 0
M  V30 17 C -1.326892 2.851713 2.275548 0
M  V30 18 C -0.645105 3.428970 1.059379 0
M  V30 19 C 0.635255 2.653060 0.971178 0
M  V30 20 C 1.958111 0.420004 3.450933 0
M  V30 21 C 0.814071 -0.351119 3.240635 0
M  V30 22 C -2.736145 -3.914809 -1.374584 0
M  V30 23 C -3.513414 -4.257715 -2.437590 0
M  V30 24 C -2.929008 -4.225270 -3.683835 0
M  V30 25 C -1.588065 -3.856647 -3.844550 0
M  V30 26 N -0.790803 -3.511713 -2.778715 0
M  V30 27 C 0.575355 -3.199659 -3.094155 0
M  V30 28 C 0.751969 -1.736695 -3.247840 0
M  V30 29 C 1.268326 -1.089425 -2.117892 0
M  V30 30 C 1.490272 0.271957 -2.077417 0
M  V30 31 C 1.207062 1.058174 -3.163569 0
M  V30 32 F 1.427149 2.379339 -3.109889 0
M  V30 33 C 0.697019 0.405598 -4.271917 0
M  V30 34 F 0.416460 1.171024 -5.333765 0
M  V30 35 C 0.466534 -0.957955 -4.340690 0
M  V30 36 C -1.458858 -3.576244 -1.622268 0
M  V30 37 O -0.676663 -3.247384 -0.689272 0
M  V30 38 H -2.134073 -3.306635 1.002070 0
M  V30 39 H -3.071259 -4.228493 3.214244 0
M  V30 40 H -3.812720 -2.610750 2.919527 0
M  V30 41 H 1.491717 -3.289205 4.611819 0
M  V30 42 H 3.646845 -2.054084 5.094091 0
M  V30 43 H 5.197662 2.221956 4.123138 0
M  V30 44 H -0.306152 2.066222 4.064082 0
M  V30 45 H 0.097596 3.784386 3.539236 0
M  V30 46 H -1.667327 1.820639 2.089047 0
M  V30 47 H -2.114501 3.537670 2.658858 0
M  V30 48 H -0.424624 4.509452 1.255530 0
M  V30 49 H -1.273551 3.308563 0.142992 0
M  V30 50 H 1.453039 3.227217 0.471262 0
M  V30 51 H 0.383259 1.716325 0.397490 0
M  V30 52 H 0.039016 0.196280 2.688667 0
M  V30 53 H -4.546087 -4.536730 -2.303849 0
M  V30 54 H -3.580671 -4.503970 -4.506319 0
M  V30 55 H -1.301403 -3.891006 -4.902998 0
M  V30 56 H 0.853566 -3.683062 -4.078428 0
M  V30 57 H 1.248678 -3.580360 -2.295271 0
M  V30 58 H 1.514760 -1.634278 -1.229947 0
M  V30 59 H 1.887761 0.711947 -1.170960 0
M  V30 60 H 0.080240 -1.463677 -5.190478 0
M  V30 END ATOM
M  V30 BEGIN BOND
M  V30 1 2 1 2
M  V30 2 1 2 3
M  V30 3 1 3 4
M  V30 4 1 4 5
M  V30 5 3 5 6
M  V30 6 1 6 7
M  V30 7 2 7 8
M  V30 8 1 8 9
M  V30 9 2 9 10
M  V30 10 1 10 11
M  V30 11 2 11 12
M  V30 12 1 12 13
M  V30 13 2 13 14
M  V30 14 1 14 15
M  V30 15 1 15 16
M  V30 16 1 16 17
M  V30 17 1 17 18
M  V30 18 1 18 19
M  V30 19 1 14 20
M  V30 20 2 20 21
M  V30 21 1 2 22
M  V30 22 2 22 23
M  V30 23 1 23 24
M  V30 24 2 24 25
M  V30 25 1 25 26
M  V30 26 1 26 27
M  V30 27 1 27 28
M  V30 28 2 28 29
M  V30 29 1 29 30
M  V30 30 2 30 31
M  V30 31 1 31 32
M  V30 32 1 31 33
M  V30 33 1 33 34
M  V30 34 2 33 35
M  V30 35 1 26 36
M  V30 36 2 36 37
M  V30 37 1 21 7
M  V30 38 1 36 22
M  V30 39 1 20 10
M  V30 40 1 35 28
M  V30 41 1 19 15
M  V30 42 1 3 38
M  V30 43 1 4 39
M  V30 44 1 4 40
M  V30 45 1 8 41
M  V30 46 1 9 42
M  V30 47 1 12 43
M  V30 48 1 16 44
M  V30 49 1 16 45
M  V30 50 1 17 46
M  V30 51 1 17 47
M  V30 52 1 18 48
M  V30 53 1 18 49
M  V30 54 1 19 50
M  V30 55 1 19 51
M  V30 56 1 21 52
M  V30 57 1 23 53
M  V30 58 1 24 54
M  V30 59 1 25 55
M  V30 60 1 27 56
M  V30 61 1 27 57
M  V30 62 1 29 58
M  V30 63 1 30 59
M  V30 64 1 35 60
M  V30 END BOND
M  V30 END CTAB
M  END
>  <Dataset>  (515) 
ChEMBL_Kinases

>  <Ligand_Instance>  (515) 
nan

>  <PDB_ID>  (515) 
nan

>  <Standardized_SMILES>  (515) 
O=C(NCC#Cc1ccc2ncnc(N3CCCC3)c2c1)c1cccn(Cc2ccc(F)c(F)c2)c1=O

>  <Name>  (515) 
nan

>  <Pocket>  (515) 
nan

>  <ATP_Site>  (515) 
nan

>  <Peripheral>  (515) 
nan

>  <Num_H_Atoms_ProtBoundConf>  (515) 
nan

>  <Num_Resolved_Atoms>  (515) 
nan

>  <Num_Not_Resolved_Atoms>  (515) 
nan

$$$$
CHEMBL3640463
     RDKit          3D

  0  0  0  0  0  0  0  0  0  0999 V3000
M  V30 BEGIN CTAB
M  V30 COUNTS 50 53 0 0 0
M  V30 BEGIN ATOM
M  V30 1 C 2.315110 -3.262134 -0.621305 0
M  V30 2 N 3.612497 -2.881074 -0.224422 0
M  V30 3 C 4.901359 -2.502947 0.169677 0
M  V30 4 N 6.086483 -3.118250 0.163475 0
M  V30 5 C 7.213978 -2.591362 0.601613 0
M  V30 6 N 7.129371 -1.357992 1.076888 0
M  V30 7 C 6.036077 -0.598357 1.159034 0
M  V30 8 C 6.110815 0.675771 1.674277 0
M  V30 9 C 4.958495 1.422825 1.728955 0
M  V30 10 C 3.768474 0.899660 1.277560 0
M  V30 11 C 2.576441 1.692395 1.322559 0
M  V30 12 C 1.575898 2.368731 1.341318 0
M  V30 13 C 0.361311 3.208183 1.342946 0
M  V30 14 N -0.817614 2.377824 1.223182 0
M  V30 15 C -1.237826 1.387243 2.136913 0
M  V30 16 O -0.464087 1.275407 3.144897 0
M  V30 17 C -2.410964 0.543368 2.019006 0
M  V30 18 C -2.660126 -0.363947 3.053839 0
M  V30 19 C -3.772459 -1.204451 3.016490 0
M  V30 20 C -4.662460 -1.159875 1.943676 0
M  V30 21 N -4.437771 -0.296692 0.943276 0
M  V30 22 C -5.286244 -0.196583 -0.258611 0
M  V30 23 C -4.845019 -1.193482 -1.270293 0
M  V30 24 C -5.347229 -2.450157 -1.431650 0
M  V30 25 C -4.924733 -3.342248 -2.345544 0
M  V30 26 S -3.596930 -2.480335 -3.246510 0
M  V30 27 C -3.750638 -0.896209 -2.236599 0
M  V30 28 C -3.356559 0.493182 1.022885 0
M  V30 29 O -3.173277 1.282463 0.090431 0
M  V30 30 C 3.771996 -0.380014 0.776827 0
M  V30 31 C 4.867589 -1.204939 0.680656 0
M  V30 32 H 2.192481 -3.147836 -1.735439 0
M  V30 33 H 1.965710 -4.287397 -0.358627 0
M  V30 34 H 1.526746 -2.563970 -0.188260 0
M  V30 35 H 3.932299 -3.842015 -0.585852 0
M  V30 36 H 8.069148 -3.232952 0.521026 0
M  V30 37 H 7.040646 1.091574 2.030212 0
M  V30 38 H 4.975878 2.427568 2.126906 0
M  V30 39 H 0.473618 3.927219 0.535251 0
M  V30 40 H 0.277357 3.755613 2.327134 0
M  V30 41 H -1.366676 2.560461 0.384766 0
M  V30 42 H -2.039468 -0.496200 3.950549 0
M  V30 43 H -3.978126 -1.905165 3.801641 0
M  V30 44 H -5.534634 -1.796884 1.884056 0
M  V30 45 H -5.184928 0.824618 -0.626022 0
M  V30 46 H -6.315696 -0.397724 0.059757 0
M  V30 47 H -6.148462 -2.770344 -0.782246 0
M  V30 48 H -5.205268 -4.309894 -2.575172 0
M  V30 49 H -3.153919 0.113215 -2.315299 0
M  V30 50 H 2.832855 -0.737328 0.439437 0
M  V30 END ATOM
M  V30 BEGIN BOND
M  V30 1 1 1 2
M  V30 2 1 2 3
M  V30 3 2 3 4
M  V30 4 1 4 5
M  V30 5 2 5 6
M  V30 6 1 6 7
M  V30 7 2 7 8
M  V30 8 1 8 9
M  V30 9 2 9 10
M  V30 10 1 10 11
M  V30 11 3 11 12
M  V30 12 1 12 13
M  V30 13 1 13 14
M  V30 14 1 14 15
M  V30 15 2 15 16
M  V30 16 1 15 17
M  V30 17 2 17 18
M  V30 18 1 18 19
M  V30 19 2 19 20
M  V30 20 1 20 21
M  V30 21 1 21 22
M  V30 22 1 22 23
M  V30 23 1 23 24
M  V30 24 2 24 25
M  V30 25 1 25 26
M  V30 26 1 26 27
M  V30 27 1 21 28
M  V30 28 2 28 29
M  V30 29 1 10 30
M  V30 30 2 30 31
M  V30 31 1 31 3
M  V30 32 1 31 7
M  V30 33 1 28 17
M  V30 34 2 27 23
M  V30 35 1 1 32
M  V30 36 1 1 33
M  V30 37 1 1 34
M  V30 38 1 2 35
M  V30 39 1 5 36
M  V30 40 1 8 37
M  V30 41 1 9 38
M  V30 42 1 13 39
M  V30 43 1 13 40
M  V30 44 1 14 41
M  V30 45 1 18 42
M  V30 46 1 19 43
M  V30 47 1 20 44
M  V30 48 1 22 45
M  V30 49 1 22 46
M  V30 50 1 24 47
M  V30 51 1 25 48
M  V30 52 1 27 49
M  V30 53 1 30 50
M  V30 END BOND
M  V30 END CTAB
M  END
>  <Dataset>  (516) 
ChEMBL_Kinases

>  <Ligand_Instance>  (516) 
nan

>  <PDB_ID>  (516) 
nan

>  <Standardized_SMILES>  (516) 
CNc1ncnc2ccc(C#CCNC(=O)c3cccn(Cc4ccsc4)c3=O)cc12

>  <Name>  (516) 
nan

>  <Pocket>  (516) 
nan

>  <ATP_Site>  (516) 
nan

>  <Peripheral>  (516) 
nan

>  <Num_H_Atoms_ProtBoundConf>  (516) 
nan

>  <Num_Resolved_Atoms>  (516) 
nan

>  <Num_Not_Resolved_Atoms>  (516) 
nan

$$$$
CHEMBL3640462
     RDKit          3D

  0  0  0  0  0  0  0  0  0  0999 V3000
M  V30 BEGIN CTAB
M  V30 COUNTS 70 74 0 0 0
M  V30 BEGIN ATOM
M  V30 1 C 3.902098 -3.261175 1.782522 0
M  V30 2 C 4.383058 -2.848755 0.424949 0
M  V30 3 C 4.607795 -4.149264 -0.353282 0
M  V30 4 N 4.974864 -3.903502 -1.713676 0
M  V30 5 C 5.498617 -5.038674 -2.397045 0
M  V30 6 C 4.109719 -3.054566 -2.458858 0
M  V30 7 C 4.004155 -1.740474 -1.710476 0
M  V30 8 C 3.360035 -2.078809 -0.372627 0
M  V30 9 N 2.900750 -0.867856 0.209151 0
M  V30 10 C 3.802809 0.163347 0.529146 0
M  V30 11 N 5.125360 0.065635 0.313309 0
M  V30 12 C 6.031861 0.990330 0.587347 0
M  V30 13 N 5.644386 2.156723 1.134731 0
M  V30 14 C 4.329015 2.395819 1.409767 0
M  V30 15 C 3.910018 3.584354 1.970562 0
M  V30 16 C 2.594250 3.813981 2.241466 0
M  V30 17 C 1.675344 2.805197 1.933250 0
M  V30 18 C 0.312249 3.088684 2.233104 0
M  V30 19 C -0.845575 3.309953 2.485885 0
M  V30 20 C -2.272012 3.564431 2.786999 0
M  V30 21 N -3.085587 2.431231 2.397015 0
M  V30 22 C -4.492191 2.437281 2.586112 0
M  V30 23 O -4.836196 3.528608 3.111133 0
M  V30 24 C -5.415448 1.370072 2.239660 0
M  V30 25 C -6.754320 1.654110 2.541582 0
M  V30 26 N -7.720778 0.760835 2.277052 0
M  V30 27 C -7.479984 -0.435318 1.719715 0
M  V30 28 N -6.195734 -0.706845 1.430496 0
M  V30 29 C -5.914147 -1.993074 0.827108 0
M  V30 30 C -6.001987 -1.819700 -0.647651 0
M  V30 31 C -7.276089 -2.021961 -1.189624 0
M  V30 32 C -7.460594 -1.885946 -2.543967 0
M  V30 33 C -6.429841 -1.555045 -3.396609 0
M  V30 34 F -6.563675 -1.411261 -4.727297 0
M  V30 35 C -5.156368 -1.353082 -2.853616 0
M  V30 36 F -4.076460 -1.025944 -3.595814 0
M  V30 37 C -4.966600 -1.488490 -1.495283 0
M  V30 38 C -5.198884 0.151157 1.675547 0
M  V30 39 O -4.024144 -0.110281 1.405432 0
M  V30 40 C 2.135918 1.632546 1.373726 0
M  V30 41 C 3.459823 1.374914 1.089867 0
M  V30 42 H 4.766776 -3.368791 2.469522 0
M  V30 43 H 3.441071 -4.291572 1.771783 0
M  V30 44 H 3.104407 -2.607225 2.185917 0
M  V30 45 H 5.329057 -2.299382 0.409864 0
M  V30 46 H 3.648152 -4.698603 -0.347319 0
M  V30 47 H 5.412979 -4.753349 0.100235 0
M  V30 48 H 4.667657 -5.639777 -2.839714 0
M  V30 49 H 6.022090 -5.662559 -1.631549 0
M  V30 50 H 6.187117 -4.775593 -3.226841 0
M  V30 51 H 3.136636 -3.533992 -2.580755 0
M  V30 52 H 4.593129 -2.828714 -3.420480 0
M  V30 53 H 3.472500 -0.976026 -2.277737 0
M  V30 54 H 5.073361 -1.470620 -1.468233 0
M  V30 55 H 2.509826 -2.788354 -0.512584 0
M  V30 56 H 1.876700 -0.788130 0.382103 0
M  V30 57 H 7.074661 0.765537 0.354256 0
M  V30 58 H 4.683267 4.312060 2.178385 0
M  V30 59 H 2.365902 4.759818 2.673889 0
M  V30 60 H -2.560487 4.410374 2.108639 0
M  V30 61 H -2.415141 3.806361 3.848083 0
M  V30 62 H -2.630469 1.596742 1.970102 0
M  V30 63 H -7.179544 2.556625 2.994373 0
M  V30 64 H -8.249319 -1.159609 1.503355 0
M  V30 65 H -4.850463 -2.228039 1.044964 0
M  V30 66 H -6.596851 -2.785979 1.191171 0
M  V30 67 H -8.159572 -2.285571 -0.613806 0
M  V30 68 H -8.391901 -2.020707 -3.041290 0
M  V30 69 H -4.009461 -1.342577 -1.046845 0
M  V30 70 H 1.364184 0.934142 1.178208 0
M  V30 END ATOM
M  V30 BEGIN BOND
M  V30 1 1 1 2
M  V30 2 1 2 3
M  V30 3 1 3 4
M  V30 4 1 4 5
M  V30 5 1 4 6
M  V30 6 1 6 7
M  V30 7 1 7 8
M  V30 8 1 8 9
M  V30 9 1 9 10
M  V30 10 2 10 11
M  V30 11 1 11 12
M  V30 12 2 12 13
M  V30 13 1 13 14
M  V30 14 2 14 15
M  V30 15 1 15 16
M  V30 16 2 16 17
M  V30 17 1 17 18
M  V30 18 3 18 19
M  V30 19 1 19 20
M  V30 20 1 20 21
M  V30 21 1 21 22
M  V30 22 2 22 23
M  V30 23 1 22 24
M  V30 24 2 24 25
M  V30 25 1 25 26
M  V30 26 2 26 27
M  V30 27 1 27 28
M  V30 28 1 28 29
M  V30 29 1 29 30
M  V30 30 2 30 31
M  V30 31 1 31 32
M  V30 32 2 32 33
M  V30 33 1 33 34
M  V30 34 1 33 35
M  V30 35 1 35 36
M  V30 36 2 35 37
M  V30 37 1 28 38
M  V30 38 2 38 39
M  V30 39 1 17 40
M  V30 40 2 40 41
M  V30 41 1 8 2
M  V30 42 1 41 10
M  V30 43 1 41 14
M  V30 44 1 38 24
M  V30 45 1 37 30
M  V30 46 1 1 42
M  V30 47 1 1 43
M  V30 48 1 1 44
M  V30 49 1 2 45
M  V30 50 1 3 46
M  V30 51 1 3 47
M  V30 52 1 5 48
M  V30 53 1 5 49
M  V30 54 1 5 50
M  V30 55 1 6 51
M  V30 56 1 6 52
M  V30 57 1 7 53
M  V30 58 1 7 54
M  V30 59 1 8 55
M  V30 60 1 9 56
M  V30 61 1 12 57
M  V30 62 1 15 58
M  V30 63 1 16 59
M  V30 64 1 20 60
M  V30 65 1 20 61
M  V30 66 1 21 62
M  V30 67 1 25 63
M  V30 68 1 27 64
M  V30 69 1 29 65
M  V30 70 1 29 66
M  V30 71 1 31 67
M  V30 72 1 32 68
M  V30 73 1 37 69
M  V30 74 1 40 70
M  V30 END BOND
M  V30 END CTAB
M  END
>  <Dataset>  (517) 
ChEMBL_Kinases

>  <Ligand_Instance>  (517) 
nan

>  <PDB_ID>  (517) 
nan

>  <Standardized_SMILES>  (517) 
CC1CN(C)CCC1Nc1ncnc2ccc(C#CCNC(=O)c3cncn(Cc4ccc(F)c(F)c4)c3=O)cc12

>  <Name>  (517) 
nan

>  <Pocket>  (517) 
nan

>  <ATP_Site>  (517) 
nan

>  <Peripheral>  (517) 
nan

>  <Num_H_Atoms_ProtBoundConf>  (517) 
nan

>  <Num_Resolved_Atoms>  (517) 
nan

>  <Num_Not_Resolved_Atoms>  (517) 
nan

$$$$
CHEMBL3640461
     RDKit          3D

  0  0  0  0  0  0  0  0  0  0999 V3000
M  V30 BEGIN CTAB
M  V30 COUNTS 71 75 0 0 0
M  V30 BEGIN ATOM
M  V30 1 O -0.674511 -3.600568 5.707815 0
M  V30 2 C -0.093690 -2.946387 4.888229 0
M  V30 3 N -0.040267 -1.570911 5.203616 0
M  V30 4 C -0.043337 -0.217876 5.622512 0
M  V30 5 C 0.397354 0.649703 4.507523 0
M  V30 6 C 0.735821 1.329093 3.603953 0
M  V30 7 C 1.155759 2.150134 2.462615 0
M  V30 8 C 2.173053 3.062037 2.403038 0
M  V30 9 C 2.378056 3.711953 1.184710 0
M  V30 10 C 1.604852 3.465042 0.081976 0
M  V30 11 N 1.872563 4.109228 -1.068007 0
M  V30 12 C 1.129361 3.858921 -2.182400 0
M  V30 13 N 0.146771 2.987315 -2.136960 0
M  V30 14 C -0.194538 2.290194 -1.014488 0
M  V30 15 N -1.219127 1.352467 -1.031213 0
M  V30 16 C -2.184383 0.680221 -1.763707 0
M  V30 17 C -3.316519 1.504506 -2.384509 0
M  V30 18 C -4.337145 0.438518 -2.839509 0
M  V30 19 N -3.947865 -0.854998 -2.478054 0
M  V30 20 C -4.798721 -1.668003 -1.753540 0
M  V30 21 C -4.359818 -3.039178 -1.373911 0
M  V30 22 O -3.224246 -3.072157 -0.579565 0
M  V30 23 C -2.749489 -1.319142 -3.058866 0
M  V30 24 C -1.698071 -0.188690 -2.913750 0
M  V30 25 C 0.578679 2.567461 0.090532 0
M  V30 26 C 0.398429 1.941085 1.300385 0
M  V30 27 C 0.417054 -3.646617 3.756368 0
M  V30 28 C -0.300231 -4.850665 3.407582 0
M  V30 29 N -0.046708 -5.531539 2.219846 0
M  V30 30 C 0.931778 -5.015697 1.371438 0
M  V30 31 N 1.745978 -3.820065 1.584929 0
M  V30 32 C 2.644069 -3.797824 0.507473 0
M  V30 33 C 2.811045 -2.362248 -0.023729 0
M  V30 34 C 3.646786 -2.077911 0.999790 0
M  V30 35 C 3.965447 -0.668277 0.674122 0
M  V30 36 C 3.457262 0.062673 -0.443692 0
M  V30 37 F 3.653044 1.344576 -0.927596 0
M  V30 38 C 2.566675 -0.527817 -1.371635 0
M  V30 39 F 2.002076 0.021983 -2.435006 0
M  V30 40 C 2.255386 -1.872109 -1.073103 0
M  V30 41 C 1.138702 -3.744427 2.572937 0
M  V30 42 O 1.840938 -2.596194 2.890414 0
M  V30 43 H 0.496993 -1.352792 4.296767 0
M  V30 44 H -1.023902 0.176519 5.937404 0
M  V30 45 H 0.651221 -0.064139 6.504588 0
M  V30 46 H 2.696942 3.153503 3.336953 0
M  V30 47 H 3.183313 4.420063 1.167637 0
M  V30 48 H 1.267326 4.325856 -3.140574 0
M  V30 49 H -1.378048 0.949960 -0.089776 0
M  V30 50 H -2.763942 -0.045158 -1.099831 0
M  V30 51 H -2.984607 2.083541 -3.267690 0
M  V30 52 H -3.792406 2.111550 -1.609096 0
M  V30 53 H -5.358434 0.704751 -2.453325 0
M  V30 54 H -4.419317 0.487938 -3.943265 0
M  V30 55 H -5.134159 -1.164282 -0.825454 0
M  V30 56 H -5.760490 -1.767041 -2.358455 0
M  V30 57 H -5.156424 -3.511659 -0.723944 0
M  V30 58 H -4.185651 -3.727355 -2.198566 0
M  V30 59 H -3.014847 -4.059385 -0.475667 0
M  V30 60 H -2.344660 -2.254349 -2.741482 0
M  V30 61 H -2.940739 -1.399346 -4.163621 0
M  V30 62 H -1.708572 0.454601 -3.814970 0
M  V30 63 H -0.714305 -0.610206 -2.781873 0
M  V30 64 H -0.396942 1.226715 1.353709 0
M  V30 65 H -1.086674 -5.253859 4.075439 0
M  V30 66 H 0.841880 -5.816668 0.548738 0
M  V30 67 H 2.146211 -4.273382 -0.411566 0
M  V30 68 H 3.593071 -4.303429 0.682193 0
M  V30 69 H 4.321270 -1.837981 1.820999 0
M  V30 70 H 4.562495 0.193122 1.062046 0
M  V30 71 H 1.622404 -2.514326 -1.606282 0
M  V30 END ATOM
M  V30 BEGIN BOND
M  V30 1 2 1 2
M  V30 2 1 2 3
M  V30 3 1 3 4
M  V30 4 1 4 5
M  V30 5 3 5 6
M  V30 6 1 6 7
M  V30 7 2 7 8
M  V30 8 1 8 9
M  V30 9 2 9 10
M  V30 10 1 10 11
M  V30 11 2 11 12
M  V30 12 1 12 13
M  V30 13 2 13 14
M  V30 14 1 14 15
M  V30 15 1 15 16
M  V30 16 1 16 17
M  V30 17 1 17 18
M  V30 18 1 18 19
M  V30 19 1 19 20
M  V30 20 1 20 21
M  V30 21 1 21 22
M  V30 22 1 19 23
M  V30 23 1 23 24
M  V30 24 1 14 25
M  V30 25 2 25 26
M  V30 26 1 2 27
M  V30 27 2 27 28
M  V30 28 1 28 29
M  V30 29 2 29 30
M  V30 30 1 30 31
M  V30 31 1 31 32
M  V30 32 1 32 33
M  V30 33 2 33 34
M  V30 34 1 34 35
M  V30 35 2 35 36
M  V30 36 1 36 37
M  V30 37 1 36 38
M  V30 38 1 38 39
M  V30 39 2 38 40
M  V30 40 1 31 41
M  V30 41 2 41 42
M  V30 42 1 26 7
M  V30 43 1 41 27
M  V30 44 1 25 10
M  V30 45 1 40 33
M  V30 46 1 24 16
M  V30 47 1 3 43
M  V30 48 1 4 44
M  V30 49 1 4 45
M  V30 50 1 8 46
M  V30 51 1 9 47
M  V30 52 1 12 48
M  V30 53 1 15 49
M  V30 54 1 16 50
M  V30 55 1 17 51
M  V30 56 1 17 52
M  V30 57 1 18 53
M  V30 58 1 18 54
M  V30 59 1 20 55
M  V30 60 1 20 56
M  V30 61 1 21 57
M  V30 62 1 21 58
M  V30 63 1 22 59
M  V30 64 1 23 60
M  V30 65 1 23 61
M  V30 66 1 24 62
M  V30 67 1 24 63
M  V30 68 1 26 64
M  V30 69 1 28 65
M  V30 70 1 30 66
M  V30 71 1 32 67
M  V30 72 1 32 68
M  V30 73 1 34 69
M  V30 74 1 35 70
M  V30 75 1 40 71
M  V30 END BOND
M  V30 END CTAB
M  END
>  <Dataset>  (518) 
ChEMBL_Kinases

>  <Ligand_Instance>  (518) 
nan

>  <PDB_ID>  (518) 
nan

>  <Standardized_SMILES>  (518) 
O=C(NCC#Cc1ccc2ncnc(NC3CCN(CCO)CC3)c2c1)c1cncn(Cc2ccc(F)c(F)c2)c1=O

>  <Name>  (518) 
nan

>  <Pocket>  (518) 
nan

>  <ATP_Site>  (518) 
nan

>  <Peripheral>  (518) 
nan

>  <Num_H_Atoms_ProtBoundConf>  (518) 
nan

>  <Num_Resolved_Atoms>  (518) 
nan

>  <Num_Not_Resolved_Atoms>  (518) 
nan

$$$$
CHEMBL3640460
     RDKit          3D

  0  0  0  0  0  0  0  0  0  0999 V3000
M  V30 BEGIN CTAB
M  V30 COUNTS 77 82 0 0 0
M  V30 BEGIN ATOM
M  V30 1 O 3.480015 -5.279301 3.283086 0
M  V30 2 C 2.670601 -4.289298 3.218733 0
M  V30 3 N 2.961916 -3.560705 2.050780 0
M  V30 4 C 4.052311 -4.017401 1.174216 0
M  V30 5 C 4.085543 -3.041120 0.057051 0
M  V30 6 C 4.094539 -2.237941 -0.845543 0
M  V30 7 C 4.090368 -1.264470 -1.908994 0
M  V30 8 C 5.191925 -0.523750 -2.230603 0
M  V30 9 C 5.209007 0.423147 -3.252040 0
M  V30 10 C 4.019603 0.590945 -3.956030 0
M  V30 11 N 3.959136 1.495392 -4.963029 0
M  V30 12 C 2.807893 1.677727 -5.663921 0
M  V30 13 N 1.758740 0.940545 -5.323287 0
M  V30 14 C 1.711402 0.023519 -4.349973 0
M  V30 15 N 0.513156 -0.692411 -4.097215 0
M  V30 16 C -0.670278 -0.412176 -4.891547 0
M  V30 17 C -1.170318 0.993479 -4.694535 0
M  V30 18 C -1.939105 1.011327 -3.389914 0
M  V30 19 N -3.115091 0.216438 -3.485152 0
M  V30 20 C -3.597245 -0.266749 -2.211504 0
M  V30 21 C -3.942218 0.819142 -1.282145 0
M  V30 22 C -3.078483 1.411045 -0.381537 0
M  V30 23 C -3.482202 2.437311 0.467040 0
M  V30 24 C -4.806519 2.885235 0.406971 0
M  V30 25 C -5.670995 2.291868 -0.495402 0
M  V30 26 C -5.244809 1.261441 -1.339690 0
M  V30 27 C -3.147535 -0.735901 -4.536822 0
M  V30 28 C -1.786085 -1.380349 -4.641026 0
M  V30 29 C 2.880848 -0.153788 -3.646331 0
M  V30 30 C 2.928456 -1.071819 -2.627960 0
M  V30 31 C 1.649565 -4.028349 4.222124 0
M  V30 32 C 1.621970 -4.954263 5.271930 0
M  V30 33 N 0.710610 -4.815135 6.268954 0
M  V30 34 C -0.172763 -3.787663 6.256634 0
M  V30 35 N -0.168076 -2.885920 5.262296 0
M  V30 36 C -1.091023 -1.784924 5.221335 0
M  V30 37 C -0.609044 -0.563906 5.898853 0
M  V30 38 C -0.869185 -0.370451 7.244947 0
M  V30 39 C -0.473008 0.725912 7.986591 0
M  V30 40 C 0.250062 1.726136 7.331910 0
M  V30 41 F 0.675278 2.830410 7.985552 0
M  V30 42 C 0.517572 1.550684 5.994205 0
M  V30 43 F 1.225188 2.504826 5.303763 0
M  V30 44 C 0.105956 0.442448 5.285042 0
M  V30 45 C 0.729359 -3.033467 4.292207 0
M  V30 46 O 0.748796 -2.214123 3.369162 0
M  V30 47 H 2.378254 -2.710405 1.854790 0
M  V30 48 H 5.025983 -4.040112 1.723623 0
M  V30 49 H 3.821039 -4.982751 0.724308 0
M  V30 50 H 6.133258 -0.656455 -1.674078 0
M  V30 51 H 6.092275 1.001430 -3.493426 0
M  V30 52 H 2.762157 2.401463 -6.468617 0
M  V30 53 H 0.373016 -1.427288 -3.379012 0
M  V30 54 H -0.387308 -0.477368 -5.984128 0
M  V30 55 H -1.851179 1.260619 -5.525698 0
M  V30 56 H -0.365104 1.719844 -4.690659 0
M  V30 57 H -2.141324 2.068910 -3.098455 0
M  V30 58 H -1.291750 0.592360 -2.589743 0
M  V30 59 H -4.392386 -1.009379 -2.301576 0
M  V30 60 H -2.734138 -0.822023 -1.743090 0
M  V30 61 H -2.051554 1.042078 -0.356245 0
M  V30 62 H -2.793917 2.892795 1.168970 0
M  V30 63 H -5.183511 3.693682 1.053403 0
M  V30 64 H -6.711840 2.609396 -0.575772 0
M  V30 65 H -5.980112 0.829650 -2.035472 0
M  V30 66 H -3.474978 -0.335310 -5.513172 0
M  V30 67 H -3.844977 -1.577132 -4.256905 0
M  V30 68 H -1.831563 -2.134912 -5.478071 0
M  V30 69 H -1.588980 -1.973985 -3.724409 0
M  V30 70 H 2.073654 -1.662216 -2.360757 0
M  V30 71 H 2.288406 -5.800319 5.358182 0
M  V30 72 H -0.902995 -3.693282 7.073379 0
M  V30 73 H -1.259542 -1.536252 4.133049 0
M  V30 74 H -2.101439 -2.083941 5.581051 0
M  V30 75 H -1.437592 -1.159149 7.755692 0
M  V30 76 H -0.714501 0.809563 9.040273 0
M  V30 77 H 0.338553 0.353900 4.249064 0
M  V30 END ATOM
M  V30 BEGIN BOND
M  V30 1 2 1 2
M  V30 2 1 2 3
M  V30 3 1 3 4
M  V30 4 1 4 5
M  V30 5 3 5 6
M  V30 6 1 6 7
M  V30 7 2 7 8
M  V30 8 1 8 9
M  V30 9 2 9 10
M  V30 10 1 10 11
M  V30 11 2 11 12
M  V30 12 1 12 13
M  V30 13 2 13 14
M  V30 14 1 14 15
M  V30 15 1 15 16
M  V30 16 1 16 17
M  V30 17 1 17 18
M  V30 18 1 18 19
M  V30 19 1 19 20
M  V30 20 1 20 21
M  V30 21 2 21 22
M  V30 22 1 22 23
M  V30 23 2 23 24
M  V30 24 1 24 25
M  V30 25 2 25 26
M  V30 26 1 19 27
M  V30 27 1 27 28
M  V30 28 1 14 29
M  V30 29 2 29 30
M  V30 30 1 2 31
M  V30 31 2 31 32
M  V30 32 1 32 33
M  V30 33 2 33 34
M  V30 34 1 34 35
M  V30 35 1 35 36
M  V30 36 1 36 37
M  V30 37 2 37 38
M  V30 38 1 38 39
M  V30 39 2 39 40
M  V30 40 1 40 41
M  V30 41 1 40 42
M  V30 42 1 42 43
M  V30 43 2 42 44
M  V30 44 1 35 45
M  V30 45 2 45 46
M  V30 46 1 30 7
M  V30 47 1 45 31
M  V30 48 1 29 10
M  V30 49 1 44 37
M  V30 50 1 28 16
M  V30 51 1 26 21
M  V30 52 1 3 47
M  V30 53 1 4 48
M  V30 54 1 4 49
M  V30 55 1 8 50
M  V30 56 1 9 51
M  V30 57 1 12 52
M  V30 58 1 15 53
M  V30 59 1 16 54
M  V30 60 1 17 55
M  V30 61 1 17 56
M  V30 62 1 18 57
M  V30 63 1 18 58
M  V30 64 1 20 59
M  V30 65 1 20 60
M  V30 66 1 22 61
M  V30 67 1 23 62
M  V30 68 1 24 63
M  V30 69 1 25 64
M  V30 70 1 26 65
M  V30 71 1 27 66
M  V30 72 1 27 67
M  V30 73 1 28 68
M  V30 74 1 28 69
M  V30 75 1 30 70
M  V30 76 1 32 71
M  V30 77 1 34 72
M  V30 78 1 36 73
M  V30 79 1 36 74
M  V30 80 1 38 75
M  V30 81 1 39 76
M  V30 82 1 44 77
M  V30 END BOND
M  V30 END CTAB
M  END
>  <Dataset>  (519) 
ChEMBL_Kinases

>  <Ligand_Instance>  (519) 
nan

>  <PDB_ID>  (519) 
nan

>  <Standardized_SMILES>  (519) 
O=C(NCC#Cc1ccc2ncnc(NC3CCN(Cc4ccccc4)CC3)c2c1)c1cncn(Cc2ccc(F)c(F)c2)c1=O

>  <Name>  (519) 
nan

>  <Pocket>  (519) 
nan

>  <ATP_Site>  (519) 
nan

>  <Peripheral>  (519) 
nan

>  <Num_H_Atoms_ProtBoundConf>  (519) 
nan

>  <Num_Resolved_Atoms>  (519) 
nan

>  <Num_Not_Resolved_Atoms>  (519) 
nan

$$$$
CHEMBL3640459
     RDKit          3D

  0  0  0  0  0  0  0  0  0  0999 V3000
M  V30 BEGIN CTAB
M  V30 COUNTS 68 72 0 0 0
M  V30 BEGIN ATOM
M  V30 1 C 2.567506 -1.569411 -0.257053 0
M  V30 2 N 2.987754 -0.683320 0.824742 0
M  V30 3 C 3.772094 0.511430 0.667015 0
M  V30 4 N 4.960326 0.577441 1.301867 0
M  V30 5 C 5.767146 1.648741 1.218628 0
M  V30 6 N 5.445562 2.741513 0.490334 0
M  V30 7 C 4.258101 2.693834 -0.153270 0
M  V30 8 C 3.856745 3.771111 -0.918639 0
M  V30 9 C 2.637552 3.772494 -1.604659 0
M  V30 10 C 1.827807 2.652665 -1.498748 0
M  V30 11 C 0.542390 2.557108 -2.173415 0
M  V30 12 C -0.513922 2.460024 -2.736530 0
M  V30 13 C -1.796865 2.321565 -3.431197 0
M  V30 14 N -2.488400 1.102794 -3.004734 0
M  V30 15 C -2.719764 1.176075 -1.604774 0
M  V30 16 O -2.254038 2.270893 -1.175814 0
M  V30 17 C -3.377535 0.181362 -0.769026 0
M  V30 18 C -3.455665 0.541998 0.581645 0
M  V30 19 N -4.034812 -0.273376 1.475493 0
M  V30 20 C -4.566319 -1.461336 1.146719 0
M  V30 21 N -4.493088 -1.810961 -0.149545 0
M  V30 22 C -5.043633 -3.079361 -0.586804 0
M  V30 23 C -4.009219 -4.131947 -0.501917 0
M  V30 24 C -3.106981 -4.542304 -1.447132 0
M  V30 25 C -2.207501 -5.553669 -1.179506 0
M  V30 26 C -2.193164 -6.176868 0.044354 0
M  V30 27 F -1.245208 -7.145601 0.131251 0
M  V30 28 C -3.094661 -5.776764 1.008682 0
M  V30 29 F -3.004350 -6.448780 2.181581 0
M  V30 30 C -3.992906 -4.767326 0.742522 0
M  V30 31 C -3.924895 -1.029389 -1.074601 0
M  V30 32 O -3.854114 -1.344299 -2.267687 0
M  V30 33 C 2.193759 1.547789 -0.739452 0
M  V30 34 C 3.407745 1.616256 -0.091357 0
M  V30 35 C 2.497516 -1.178428 2.116665 0
M  V30 36 C 1.003911 -1.234070 2.077449 0
M  V30 37 C 0.341972 -1.218149 3.424620 0
M  V30 38 C 0.897627 -0.157633 4.337237 0
M  V30 39 C 2.374718 -0.475147 4.511390 0
M  V30 40 C 3.036127 -0.270976 3.188920 0
M  V30 41 H 2.983674 -2.599453 -0.081186 0
M  V30 42 H 1.478843 -1.685268 -0.257052 0
M  V30 43 H 2.906144 -1.218297 -1.252151 0
M  V30 44 H 6.714011 1.651766 1.749357 0
M  V30 45 H 4.497725 4.636973 -0.992167 0
M  V30 46 H 2.301647 4.604961 -2.210578 0
M  V30 47 H -1.576602 2.207782 -4.505032 0
M  V30 48 H -2.453937 3.206068 -3.308457 0
M  V30 49 H -2.814098 0.255571 -3.517972 0
M  V30 50 H -3.081341 1.458404 1.021686 0
M  V30 51 H -5.045176 -2.162989 1.813988 0
M  V30 52 H -5.980482 -3.362940 -0.074536 0
M  V30 53 H -5.323684 -3.007976 -1.669742 0
M  V30 54 H -3.180486 -4.006120 -2.380724 0
M  V30 55 H -1.547064 -5.777144 -2.025883 0
M  V30 56 H -4.637481 -4.561763 1.593769 0
M  V30 57 H 1.561103 0.683178 -0.661873 0
M  V30 58 H 2.873428 -2.201925 2.325613 0
M  V30 59 H 0.639458 -0.366802 1.518242 0
M  V30 60 H 0.691413 -2.202547 1.600282 0
M  V30 61 H -0.732671 -1.035410 3.271027 0
M  V30 62 H 0.523058 -2.197089 3.945867 0
M  V30 63 H 0.781611 0.867042 3.942897 0
M  V30 64 H 0.412372 -0.283757 5.325179 0
M  V30 65 H 2.770901 0.289017 5.205898 0
M  V30 66 H 2.465201 -1.495425 4.908341 0
M  V30 67 H 2.837564 0.774039 2.874261 0
M  V30 68 H 4.118326 -0.466735 3.270460 0
M  V30 END ATOM
M  V30 BEGIN BOND
M  V30 1 1 1 2
M  V30 2 1 2 3
M  V30 3 2 3 4
M  V30 4 1 4 5
M  V30 5 2 5 6
M  V30 6 1 6 7
M  V30 7 2 7 8
M  V30 8 1 8 9
M  V30 9 2 9 10
M  V30 10 1 10 11
M  V30 11 3 11 12
M  V30 12 1 12 13
M  V30 13 1 13 14
M  V30 14 1 14 15
M  V30 15 2 15 16
M  V30 16 1 15 17
M  V30 17 2 17 18
M  V30 18 1 18 19
M  V30 19 2 19 20
M  V30 20 1 20 21
M  V30 21 1 21 22
M  V30 22 1 22 23
M  V30 23 2 23 24
M  V30 24 1 24 25
M  V30 25 2 25 26
M  V30 26 1 26 27
M  V30 27 1 26 28
M  V30 28 1 28 29
M  V30 29 2 28 30
M  V30 30 1 21 31
M  V30 31 2 31 32
M  V30 32 1 10 33
M  V30 33 2 33 34
M  V30 34 1 2 35
M  V30 35 1 35 36
M  V30 36 1 36 37
M  V30 37 1 37 38
M  V30 38 1 38 39
M  V30 39 1 39 40
M  V30 40 1 34 3
M  V30 41 1 40 35
M  V30 42 1 34 7
M  V30 43 1 31 17
M  V30 44 1 30 23
M  V30 45 1 1 41
M  V30 46 1 1 42
M  V30 47 1 1 43
M  V30 48 1 5 44
M  V30 49 1 8 45
M  V30 50 1 9 46
M  V30 51 1 13 47
M  V30 52 1 13 48
M  V30 53 1 14 49
M  V30 54 1 18 50
M  V30 55 1 20 51
M  V30 56 1 22 52
M  V30 57 1 22 53
M  V30 58 1 24 54
M  V30 59 1 25 55
M  V30 60 1 30 56
M  V30 61 1 33 57
M  V30 62 1 35 58
M  V30 63 1 36 59
M  V30 64 1 36 60
M  V30 65 1 37 61
M  V30 66 1 37 62
M  V30 67 1 38 63
M  V30 68 1 38 64
M  V30 69 1 39 65
M  V30 70 1 39 66
M  V30 71 1 40 67
M  V30 72 1 40 68
M  V30 END BOND
M  V30 END CTAB
M  END
>  <Dataset>  (520) 
ChEMBL_Kinases

>  <Ligand_Instance>  (520) 
nan

>  <PDB_ID>  (520) 
nan

>  <Standardized_SMILES>  (520) 
CN(c1ncnc2ccc(C#CCNC(=O)c3cncn(Cc4ccc(F)c(F)c4)c3=O)cc12)C1CCCCC1

>  <Name>  (520) 
nan

>  <Pocket>  (520) 
nan

>  <ATP_Site>  (520) 
nan

>  <Peripheral>  (520) 
nan

>  <Num_H_Atoms_ProtBoundConf>  (520) 
nan

>  <Num_Resolved_Atoms>  (520) 
nan

>  <Num_Not_Resolved_Atoms>  (520) 
nan

$$$$
CHEMBL3640458
     RDKit          3D

  0  0  0  0  0  0  0  0  0  0999 V3000
M  V30 BEGIN CTAB
M  V30 COUNTS 63 67 0 0 0
M  V30 BEGIN ATOM
M  V30 1 O 3.036886 -3.037040 4.566266 0
M  V30 2 C 2.329482 -2.468326 3.714456 0
M  V30 3 N 3.147302 -1.991717 2.705009 0
M  V30 4 C 4.476727 -1.880090 2.159212 0
M  V30 5 C 4.355209 -1.138685 0.861046 0
M  V30 6 C 4.237745 -0.557315 -0.173798 0
M  V30 7 C 4.069415 0.141969 -1.427431 0
M  V30 8 C 4.940216 0.943916 -2.073649 0
M  V30 9 C 4.494753 1.510593 -3.258058 0
M  V30 10 C 3.254632 1.292371 -3.768824 0
M  V30 11 N 2.834924 1.861611 -4.933860 0
M  V30 12 C 1.588921 1.618287 -5.411637 0
M  V30 13 N 0.705715 0.816982 -4.777651 0
M  V30 14 C 1.050707 0.208232 -3.600643 0
M  V30 15 N 0.155761 -0.634216 -2.920791 0
M  V30 16 C -1.178162 -0.995711 -3.252528 0
M  V30 17 C -1.749209 -2.071254 -2.312785 0
M  V30 18 C -2.944097 -2.663082 -3.032756 0
M  V30 19 O -3.429578 -1.773517 -3.955481 0
M  V30 20 C -3.534814 -0.468922 -3.545023 0
M  V30 21 C -2.185790 0.145864 -3.143551 0
M  V30 22 C 2.318782 0.478885 -3.151768 0
M  V30 23 C 2.798843 -0.078767 -1.956565 0
M  V30 24 C 0.963834 -2.400226 3.903646 0
M  V30 25 C 0.490663 -2.408211 2.447751 0
M  V30 26 N -0.779722 -2.340589 1.862965 0
M  V30 27 C -1.822099 -2.245260 2.787546 0
M  V30 28 N -1.583053 -2.218828 4.154578 0
M  V30 29 C -2.557748 -2.020367 5.157206 0
M  V30 30 C -2.964225 -0.565365 5.218030 0
M  V30 31 C -4.200750 -0.292507 4.684279 0
M  V30 32 C -4.557112 1.028700 4.679509 0
M  V30 33 C -3.791762 2.061074 5.155848 0
M  V30 34 F -4.272242 3.337370 5.091384 0
M  V30 35 C -2.541209 1.743205 5.692007 0
M  V30 36 F -1.802333 2.782492 6.151340 0
M  V30 37 C -2.120788 0.400281 5.722208 0
M  V30 38 C -0.296914 -2.310659 4.020096 0
M  V30 39 O 0.050999 -2.292072 5.378492 0
M  V30 40 H 2.516068 -1.429682 2.046979 0
M  V30 41 H 5.188813 -1.408214 2.845359 0
M  V30 42 H 4.803848 -2.902512 1.893993 0
M  V30 43 H 5.886340 1.041487 -1.576661 0
M  V30 44 H 5.219307 2.158958 -3.771638 0
M  V30 45 H 1.312849 2.109003 -6.352242 0
M  V30 46 H 0.378459 -1.111459 -2.049482 0
M  V30 47 H -1.264028 -1.362343 -4.299928 0
M  V30 48 H -2.130634 -1.505279 -1.418783 0
M  V30 49 H -0.999247 -2.805114 -2.008815 0
M  V30 50 H -2.525103 -3.547093 -3.605407 0
M  V30 51 H -3.699500 -3.073392 -2.330014 0
M  V30 52 H -3.880346 0.125345 -4.437133 0
M  V30 53 H -4.311137 -0.287725 -2.761568 0
M  V30 54 H -1.930208 1.023470 -3.728243 0
M  V30 55 H -2.298271 0.382358 -2.041943 0
M  V30 56 H 2.070917 -0.716483 -1.469232 0
M  V30 57 H 1.014781 -2.484976 1.396964 0
M  V30 58 H -2.869508 -2.190656 2.442047 0
M  V30 59 H -2.095054 -2.242083 6.151481 0
M  V30 60 H -3.443127 -2.627001 5.006125 0
M  V30 61 H -4.902530 -1.044584 4.277146 0
M  V30 62 H -5.521468 1.282299 4.267354 0
M  V30 63 H -1.166595 0.164004 6.127863 0
M  V30 END ATOM
M  V30 BEGIN BOND
M  V30 1 2 1 2
M  V30 2 1 2 3
M  V30 3 1 3 4
M  V30 4 1 4 5
M  V30 5 3 5 6
M  V30 6 1 6 7
M  V30 7 2 7 8
M  V30 8 1 8 9
M  V30 9 2 9 10
M  V30 10 1 10 11
M  V30 11 2 11 12
M  V30 12 1 12 13
M  V30 13 2 13 14
M  V30 14 1 14 15
M  V30 15 1 15 16
M  V30 16 1 16 17
M  V30 17 1 17 18
M  V30 18 1 18 19
M  V30 19 1 19 20
M  V30 20 1 20 21
M  V30 21 1 14 22
M  V30 22 2 22 23
M  V30 23 1 2 24
M  V30 24 2 24 25
M  V30 25 1 25 26
M  V30 26 2 26 27
M  V30 27 1 27 28
M  V30 28 1 28 29
M  V30 29 1 29 30
M  V30 30 2 30 31
M  V30 31 1 31 32
M  V30 32 2 32 33
M  V30 33 1 33 34
M  V30 34 1 33 35
M  V30 35 1 35 36
M  V30 36 2 35 37
M  V30 37 1 28 38
M  V30 38 2 38 39
M  V30 39 1 23 7
M  V30 40 1 38 24
M  V30 41 1 22 10
M  V30 42 1 37 30
M  V30 43 1 21 16
M  V30 44 1 3 40
M  V30 45 1 4 41
M  V30 46 1 4 42
M  V30 47 1 8 43
M  V30 48 1 9 44
M  V30 49 1 12 45
M  V30 50 1 15 46
M  V30 51 1 16 47
M  V30 52 1 17 48
M  V30 53 1 17 49
M  V30 54 1 18 50
M  V30 55 1 18 51
M  V30 56 1 20 52
M  V30 57 1 20 53
M  V30 58 1 21 54
M  V30 59 1 21 55
M  V30 60 1 23 56
M  V30 61 1 25 57
M  V30 62 1 27 58
M  V30 63 1 29 59
M  V30 64 1 29 60
M  V30 65 1 31 61
M  V30 66 1 32 62
M  V30 67 1 37 63
M  V30 END BOND
M  V30 END CTAB
M  END
>  <Dataset>  (521) 
ChEMBL_Kinases

>  <Ligand_Instance>  (521) 
nan

>  <PDB_ID>  (521) 
nan

>  <Standardized_SMILES>  (521) 
O=C(NCC#Cc1ccc2ncnc(NC3CCOCC3)c2c1)c1cncn(Cc2ccc(F)c(F)c2)c1=O

>  <Name>  (521) 
nan

>  <Pocket>  (521) 
nan

>  <ATP_Site>  (521) 
nan

>  <Peripheral>  (521) 
nan

>  <Num_H_Atoms_ProtBoundConf>  (521) 
nan

>  <Num_Resolved_Atoms>  (521) 
nan

>  <Num_Not_Resolved_Atoms>  (521) 
nan

$$$$
CHEMBL3640506
     RDKit          3D

  0  0  0  0  0  0  0  0  0  0999 V3000
M  V30 BEGIN CTAB
M  V30 COUNTS 55 58 0 0 0
M  V30 BEGIN ATOM
M  V30 1 C 5.329538 -3.608000 5.058050 0
M  V30 2 N 4.898865 -2.495655 4.229286 0
M  V30 3 C 5.931188 -1.618709 3.794897 0
M  V30 4 O 7.128499 -1.795598 4.106904 0
M  V30 5 C 5.642862 -0.459078 2.956516 0
M  V30 6 C 6.689242 0.352242 2.568923 0
M  V30 7 N 6.536422 1.461172 1.786751 0
M  V30 8 C 5.305885 1.813622 1.349692 0
M  V30 9 C 5.092915 2.926988 0.554896 0
M  V30 10 C 3.826717 3.282769 0.109870 0
M  V30 11 C 2.761375 2.488809 0.482582 0
M  V30 12 C 1.405230 2.753173 0.085712 0
M  V30 13 C 0.258539 2.973371 -0.228438 0
M  V30 14 C -1.156943 3.231784 -0.592462 0
M  V30 15 N -1.807908 1.999647 -0.994790 0
M  V30 16 C -3.156822 1.980761 -1.387895 0
M  V30 17 O -3.627517 3.168097 -1.317485 0
M  V30 18 C -3.926660 0.823777 -1.811533 0
M  V30 19 C -5.257679 1.115942 -2.145445 0
M  V30 20 N -6.096440 0.171658 -2.552052 0
M  V30 21 C -5.747325 -1.111655 -2.674253 0
M  V30 22 N -4.486268 -1.401209 -2.360094 0
M  V30 23 C -4.030410 -2.769443 -2.465835 0
M  V30 24 C -4.239747 -3.507435 -1.198155 0
M  V30 25 C -5.461116 -4.139676 -1.092641 0
M  V30 26 C -5.759324 -4.853402 0.042668 0
M  V30 27 C -4.853834 -4.958727 1.103132 0
M  V30 28 F -5.085947 -5.645689 2.247462 0
M  V30 29 C -3.634501 -4.325125 0.993009 0
M  V30 30 F -2.707863 -4.374504 1.962440 0
M  V30 31 C -3.373666 -3.622865 -0.154702 0
M  V30 32 C -3.600671 -0.508318 -1.948898 0
M  V30 33 O -2.416706 -0.744497 -1.647787 0
M  V30 34 C 2.967516 1.382062 1.271769 0
M  V30 35 C 4.222757 1.012470 1.724476 0
M  V30 36 C 4.387821 -0.099350 2.510579 0
M  V30 37 H 4.538181 -4.392656 5.010518 0
M  V30 38 H 6.319862 -3.990468 4.759606 0
M  V30 39 H 5.307925 -3.258114 6.117845 0
M  V30 40 H 3.900722 -2.343217 3.965786 0
M  V30 41 H 7.728108 0.181633 2.851152 0
M  V30 42 H 5.940594 3.545670 0.267283 0
M  V30 43 H 3.637013 4.147193 -0.511091 0
M  V30 44 H -1.128813 3.967178 -1.424196 0
M  V30 45 H -1.728579 3.641124 0.264813 0
M  V30 46 H -1.261964 1.112491 -0.991271 0
M  V30 47 H -5.715741 2.113071 -2.104501 0
M  V30 48 H -6.438911 -1.852164 -3.002910 0
M  V30 49 H -4.501291 -3.277010 -3.331377 0
M  V30 50 H -2.934133 -2.806007 -2.658001 0
M  V30 51 H -6.263910 -4.151560 -1.824054 0
M  V30 52 H -6.679949 -5.390021 0.241320 0
M  V30 53 H -2.424931 -3.118473 -0.263526 0
M  V30 54 H 2.132698 0.739501 1.577798 0
M  V30 55 H 3.560173 -0.708516 2.794906 0
M  V30 END ATOM
M  V30 BEGIN BOND
M  V30 1 1 1 2
M  V30 2 1 2 3
M  V30 3 2 3 4
M  V30 4 1 3 5
M  V30 5 2 5 6
M  V30 6 1 6 7
M  V30 7 2 7 8
M  V30 8 1 8 9
M  V30 9 2 9 10
M  V30 10 1 10 11
M  V30 11 1 11 12
M  V30 12 3 12 13
M  V30 13 1 13 14
M  V30 14 1 14 15
M  V30 15 1 15 16
M  V30 16 2 16 17
M  V30 17 1 16 18
M  V30 18 2 18 19
M  V30 19 1 19 20
M  V30 20 2 20 21
M  V30 21 1 21 22
M  V30 22 1 22 23
M  V30 23 1 23 24
M  V30 24 2 24 25
M  V30 25 1 25 26
M  V30 26 2 26 27
M  V30 27 1 27 28
M  V30 28 1 27 29
M  V30 29 1 29 30
M  V30 30 2 29 31
M  V30 31 1 22 32
M  V30 32 2 32 33
M  V30 33 2 11 34
M  V30 34 1 34 35
M  V30 35 2 35 36
M  V30 36 1 36 5
M  V30 37 1 35 8
M  V30 38 1 32 18
M  V30 39 1 31 24
M  V30 40 1 1 37
M  V30 41 1 1 38
M  V30 42 1 1 39
M  V30 43 1 2 40
M  V30 44 1 6 41
M  V30 45 1 9 42
M  V30 46 1 10 43
M  V30 47 1 14 44
M  V30 48 1 14 45
M  V30 49 1 15 46
M  V30 50 1 19 47
M  V30 51 1 21 48
M  V30 52 1 23 49
M  V30 53 1 23 50
M  V30 54 1 25 51
M  V30 55 1 26 52
M  V30 56 1 31 53
M  V30 57 1 34 54
M  V30 58 1 36 55
M  V30 END BOND
M  V30 END CTAB
M  END
>  <Dataset>  (522) 
ChEMBL_Kinases

>  <Ligand_Instance>  (522) 
nan

>  <PDB_ID>  (522) 
nan

>  <Standardized_SMILES>  (522) 
CNC(=O)c1cnc2ccc(C#CCNC(=O)c3cncn(Cc4ccc(F)c(F)c4)c3=O)cc2c1

>  <Name>  (522) 
nan

>  <Pocket>  (522) 
nan

>  <ATP_Site>  (522) 
nan

>  <Peripheral>  (522) 
nan

>  <Num_H_Atoms_ProtBoundConf>  (522) 
nan

>  <Num_Resolved_Atoms>  (522) 
nan

>  <Num_Not_Resolved_Atoms>  (522) 
nan

$$$$
CHEMBL3640441
     RDKit          3D

  0  0  0  0  0  0  0  0  0  0999 V3000
M  V30 BEGIN CTAB
M  V30 COUNTS 55 58 0 0 0
M  V30 BEGIN ATOM
M  V30 1 C 2.054956 -1.707094 2.283746 0
M  V30 2 N 3.164387 -0.899454 2.787273 0
M  V30 3 C 3.401409 -1.329252 4.139727 0
M  V30 4 C 3.976516 0.145608 2.217044 0
M  V30 5 N 5.319933 0.008262 2.121263 0
M  V30 6 C 6.072875 0.984387 1.592436 0
M  V30 7 N 5.517801 2.123953 1.143494 0
M  V30 8 C 4.187683 2.342881 1.200884 0
M  V30 9 C 3.640926 3.518193 0.733196 0
M  V30 10 C 2.253822 3.663937 0.828712 0
M  V30 11 C 1.432483 2.674286 1.371159 0
M  V30 12 C 0.013783 2.889466 1.431673 0
M  V30 13 C -1.179658 3.073539 1.461710 0
M  V30 14 C -2.626874 3.295625 1.472318 0
M  V30 15 N -3.377011 2.048557 1.525143 0
M  V30 16 C -3.125296 1.221208 0.476125 0
M  V30 17 O -2.304117 1.508359 -0.471958 0
M  V30 18 C -3.189915 0.100094 -0.357239 0
M  V30 19 C -4.252146 -0.420594 0.578538 0
M  V30 20 N -4.984845 -1.611642 0.543475 0
M  V30 21 C -4.761158 -2.497068 -0.467451 0
M  V30 22 N -3.833763 -2.114794 -1.343172 0
M  V30 23 C -3.349921 -2.794696 -2.521519 0
M  V30 24 C -2.201215 -3.682636 -2.252578 0
M  V30 25 C -2.515343 -4.969665 -1.834035 0
M  V30 26 C -1.598030 -5.964301 -1.532531 0
M  V30 27 C -0.253810 -5.618322 -1.669102 0
M  V30 28 F 0.718195 -6.528068 -1.397525 0
M  V30 29 C 0.101223 -4.334581 -2.087345 0
M  V30 30 F 1.405783 -3.954609 -2.233398 0
M  V30 31 C -0.862126 -3.386916 -2.372735 0
M  V30 32 C -3.250639 -0.950405 -1.137865 0
M  V30 33 O -2.318863 -0.395560 -1.875361 0
M  V30 34 C 2.059187 1.530883 1.815296 0
M  V30 35 C 3.421211 1.317464 1.753682 0
M  V30 36 H 1.111732 -1.520914 2.827464 0
M  V30 37 H 1.866174 -1.467558 1.212477 0
M  V30 38 H 2.303769 -2.807020 2.295945 0
M  V30 39 H 4.213493 -0.717743 4.590449 0
M  V30 40 H 2.498352 -1.325346 4.781184 0
M  V30 41 H 3.730957 -2.398419 4.085270 0
M  V30 42 H 7.150859 0.823440 1.539906 0
M  V30 43 H 4.243004 4.308817 0.304920 0
M  V30 44 H 1.838013 4.607471 0.451183 0
M  V30 45 H -2.884561 3.903786 0.607633 0
M  V30 46 H -2.938511 3.866743 2.368688 0
M  V30 47 H -4.066049 1.495743 2.066976 0
M  V30 48 H -4.838250 -0.183100 1.522550 0
M  V30 49 H -5.110826 -3.454604 -0.804263 0
M  V30 50 H -4.207144 -3.420037 -2.916881 0
M  V30 51 H -3.091182 -2.112596 -3.352140 0
M  V30 52 H -3.539785 -5.281392 -1.714443 0
M  V30 53 H -1.869041 -6.937861 -1.214646 0
M  V30 54 H -0.631434 -2.387310 -2.698477 0
M  V30 55 H 1.408070 0.779917 2.230372 0
M  V30 END ATOM
M  V30 BEGIN BOND
M  V30 1 1 1 2
M  V30 2 1 2 3
M  V30 3 1 2 4
M  V30 4 2 4 5
M  V30 5 1 5 6
M  V30 6 2 6 7
M  V30 7 1 7 8
M  V30 8 2 8 9
M  V30 9 1 9 10
M  V30 10 2 10 11
M  V30 11 1 11 12
M  V30 12 3 12 13
M  V30 13 1 13 14
M  V30 14 1 14 15
M  V30 15 1 15 16
M  V30 16 2 16 17
M  V30 17 1 16 18
M  V30 18 2 18 19
M  V30 19 1 19 20
M  V30 20 2 20 21
M  V30 21 1 21 22
M  V30 22 1 22 23
M  V30 23 1 23 24
M  V30 24 2 24 25
M  V30 25 1 25 26
M  V30 26 2 26 27
M  V30 27 1 27 28
M  V30 28 1 27 29
M  V30 29 1 29 30
M  V30 30 2 29 31
M  V30 31 1 22 32
M  V30 32 2 32 33
M  V30 33 1 11 34
M  V30 34 2 34 35
M  V30 35 1 35 4
M  V30 36 1 35 8
M  V30 37 1 32 18
M  V30 38 1 31 24
M  V30 39 1 1 36
M  V30 40 1 1 37
M  V30 41 1 1 38
M  V30 42 1 3 39
M  V30 43 1 3 40
M  V30 44 1 3 41
M  V30 45 1 6 42
M  V30 46 1 9 43
M  V30 47 1 10 44
M  V30 48 1 14 45
M  V30 49 1 14 46
M  V30 50 1 15 47
M  V30 51 1 19 48
M  V30 52 1 21 49
M  V30 53 1 23 50
M  V30 54 1 23 51
M  V30 55 1 25 52
M  V30 56 1 26 53
M  V30 57 1 31 54
M  V30 58 1 34 55
M  V30 END BOND
M  V30 END CTAB
M  END
>  <Dataset>  (523) 
ChEMBL_Kinases

>  <Ligand_Instance>  (523) 
nan

>  <PDB_ID>  (523) 
nan

>  <Standardized_SMILES>  (523) 
CN(C)c1ncnc2ccc(C#CCNC(=O)c3cncn(Cc4ccc(F)c(F)c4)c3=O)cc12

>  <Name>  (523) 
nan

>  <Pocket>  (523) 
nan

>  <ATP_Site>  (523) 
nan

>  <Peripheral>  (523) 
nan

>  <Num_H_Atoms_ProtBoundConf>  (523) 
nan

>  <Num_Resolved_Atoms>  (523) 
nan

>  <Num_Not_Resolved_Atoms>  (523) 
nan

$$$$
CHEMBL3640442
     RDKit          3D

  0  0  0  0  0  0  0  0  0  0999 V3000
M  V30 BEGIN CTAB
M  V30 COUNTS 65 69 0 0 0
M  V30 BEGIN ATOM
M  V30 1 C 1.612130 -1.463171 -2.451467 0
M  V30 2 N 1.156445 -1.645660 -3.821195 0
M  V30 3 C 1.374309 -3.017199 -4.210036 0
M  V30 4 C 2.797058 -3.433944 -4.150591 0
M  V30 5 C 3.276998 -3.964154 -2.988916 0
M  V30 6 C 4.599377 -4.353018 -2.929539 0
M  V30 7 C 5.434146 -4.221659 -3.996326 0
M  V30 8 C 4.990412 -3.687368 -5.199509 0
M  V30 9 C 3.664494 -3.311773 -5.217108 0
M  V30 10 C 0.580603 -0.622976 -4.655267 0
M  V30 11 N 1.192853 -0.308030 -5.803861 0
M  V30 12 C 0.642399 0.648444 -6.569632 0
M  V30 13 N -0.498060 1.318289 -6.252996 0
M  V30 14 C -1.146609 1.025909 -5.096204 0
M  V30 15 C -2.318602 1.657766 -4.689427 0
M  V30 16 C -2.939000 1.328330 -3.511395 0
M  V30 17 C -2.398448 0.355313 -2.710653 0
M  V30 18 C -2.986072 -0.055110 -1.453043 0
M  V30 19 C -3.483743 -0.414094 -0.412365 0
M  V30 20 C -4.080651 -0.873664 0.845543 0
M  V30 21 N -3.151780 -0.657826 1.928615 0
M  V30 22 C -3.658977 -1.078073 3.174515 0
M  V30 23 O -4.837137 -1.548860 2.998981 0
M  V30 24 C -3.007353 -1.015843 4.475173 0
M  V30 25 C -3.779469 -1.517849 5.532405 0
M  V30 26 N -3.301294 -1.522212 6.788584 0
M  V30 27 C -2.078714 -1.054814 7.099563 0
M  V30 28 N -1.332958 -0.572900 6.096653 0
M  V30 29 C -0.028395 -0.064288 6.371106 0
M  V30 30 C 0.027920 1.379142 6.693930 0
M  V30 31 C 0.195579 2.393453 5.770803 0
M  V30 32 C 0.238632 3.724904 6.151538 0
M  V30 33 C 0.107535 4.023195 7.502954 0
M  V30 34 F 0.148671 5.327932 7.884429 0
M  V30 35 C -0.061290 3.022882 8.444727 0
M  V30 36 F -0.181638 3.393872 9.742549 0
M  V30 37 C -0.100533 1.697460 8.033110 0
M  V30 38 C -1.779514 -0.556283 4.847408 0
M  V30 39 O -1.096899 -0.111224 3.905248 0
M  V30 40 C -1.228299 -0.260595 -3.138347 0
M  V30 41 C -0.577243 0.043588 -4.314322 0
M  V30 42 H 1.153578 -2.142558 -1.732792 0
M  V30 43 H 2.718635 -1.642982 -2.377630 0
M  V30 44 H 1.473751 -0.421323 -2.119734 0
M  V30 45 H 1.074686 -3.124345 -5.291830 0
M  V30 46 H 0.799686 -3.734438 -3.575382 0
M  V30 47 H 2.685776 -4.103934 -2.096593 0
M  V30 48 H 5.029381 -4.781866 -2.023980 0
M  V30 49 H 6.486563 -4.520746 -3.979706 0
M  V30 50 H 5.606478 -3.557046 -6.084196 0
M  V30 51 H 3.240997 -2.884560 -6.123343 0
M  V30 52 H 1.122102 0.914093 -7.497199 0
M  V30 53 H -2.722261 2.421994 -5.341904 0
M  V30 54 H -3.844031 1.803072 -3.178242 0
M  V30 55 H -5.023173 -0.288182 1.009064 0
M  V30 56 H -4.400652 -1.920652 0.718090 0
M  V30 57 H -2.193186 -0.247245 1.904919 0
M  V30 58 H -4.772028 -1.919570 5.414913 0
M  V30 59 H -1.774949 -1.096534 8.133690 0
M  V30 60 H 0.446376 -0.683164 7.181564 0
M  V30 61 H 0.614737 -0.264983 5.480570 0
M  V30 62 H 0.292704 2.112389 4.734341 0
M  V30 63 H 0.372728 4.492965 5.387825 0
M  V30 64 H -0.237415 0.988650 8.854323 0
M  V30 65 H -0.818429 -1.014734 -2.507614 0
M  V30 END ATOM
M  V30 BEGIN BOND
M  V30 1 1 1 2
M  V30 2 1 2 3
M  V30 3 1 3 4
M  V30 4 2 4 5
M  V30 5 1 5 6
M  V30 6 2 6 7
M  V30 7 1 7 8
M  V30 8 2 8 9
M  V30 9 1 2 10
M  V30 10 2 10 11
M  V30 11 1 11 12
M  V30 12 2 12 13
M  V30 13 1 13 14
M  V30 14 2 14 15
M  V30 15 1 15 16
M  V30 16 2 16 17
M  V30 17 1 17 18
M  V30 18 3 18 19
M  V30 19 1 19 20
M  V30 20 1 20 21
M  V30 21 1 21 22
M  V30 22 2 22 23
M  V30 23 1 22 24
M  V30 24 2 24 25
M  V30 25 1 25 26
M  V30 26 2 26 27
M  V30 27 1 27 28
M  V30 28 1 28 29
M  V30 29 1 29 30
M  V30 30 2 30 31
M  V30 31 1 31 32
M  V30 32 2 32 33
M  V30 33 1 33 34
M  V30 34 1 33 35
M  V30 35 1 35 36
M  V30 36 2 35 37
M  V30 37 1 28 38
M  V30 38 2 38 39
M  V30 39 1 17 40
M  V30 40 2 40 41
M  V30 41 1 9 4
M  V30 42 1 41 10
M  V30 43 1 41 14
M  V30 44 1 38 24
M  V30 45 1 37 30
M  V30 46 1 1 42
M  V30 47 1 1 43
M  V30 48 1 1 44
M  V30 49 1 3 45
M  V30 50 1 3 46
M  V30 51 1 5 47
M  V30 52 1 6 48
M  V30 53 1 7 49
M  V30 54 1 8 50
M  V30 55 1 9 51
M  V30 56 1 12 52
M  V30 57 1 15 53
M  V30 58 1 16 54
M  V30 59 1 20 55
M  V30 60 1 20 56
M  V30 61 1 21 57
M  V30 62 1 25 58
M  V30 63 1 27 59
M  V30 64 1 29 60
M  V30 65 1 29 61
M  V30 66 1 31 62
M  V30 67 1 32 63
M  V30 68 1 37 64
M  V30 69 1 40 65
M  V30 END BOND
M  V30 END CTAB
M  END
>  <Dataset>  (524) 
ChEMBL_Kinases

>  <Ligand_Instance>  (524) 
nan

>  <PDB_ID>  (524) 
nan

>  <Standardized_SMILES>  (524) 
CN(Cc1ccccc1)c1ncnc2ccc(C#CCNC(=O)c3cncn(Cc4ccc(F)c(F)c4)c3=O)cc12

>  <Name>  (524) 
nan

>  <Pocket>  (524) 
nan

>  <ATP_Site>  (524) 
nan

>  <Peripheral>  (524) 
nan

>  <Num_H_Atoms_ProtBoundConf>  (524) 
nan

>  <Num_Resolved_Atoms>  (524) 
nan

>  <Num_Not_Resolved_Atoms>  (524) 
nan

$$$$
CHEMBL3640443
     RDKit          3D

  0  0  0  0  0  0  0  0  0  0999 V3000
M  V30 BEGIN CTAB
M  V30 COUNTS 62 66 0 0 0
M  V30 BEGIN ATOM
M  V30 1 O 3.147655 -5.359279 2.888344 0
M  V30 2 C 2.100637 -4.655995 2.674869 0
M  V30 3 N 2.472547 -3.563707 1.866782 0
M  V30 4 C 3.871259 -3.415292 1.435963 0
M  V30 5 C 3.883216 -2.176990 0.624277 0
M  V30 6 C 3.872401 -1.151572 -0.041298 0
M  V30 7 C 3.839623 0.063016 -0.811613 0
M  V30 8 C 5.022524 0.685609 -1.148409 0
M  V30 9 C 4.943641 1.859219 -1.892337 0
M  V30 10 C 3.710283 2.352858 -2.262048 0
M  V30 11 N 3.705898 3.492803 -2.979586 0
M  V30 12 C 2.508299 3.983000 -3.343764 0
M  V30 13 N 1.386548 3.360038 -3.004285 0
M  V30 14 C 1.294659 2.225915 -2.295003 0
M  V30 15 N 0.057600 1.619700 -1.965920 0
M  V30 16 C -1.212697 2.180179 -2.381893 0
M  V30 17 C -1.277459 2.156840 -3.879245 0
M  V30 18 C -2.578678 2.722988 -4.377017 0
M  V30 19 C -2.937098 2.837579 -5.697313 0
M  V30 20 C -4.182807 3.396594 -5.686090 0
M  V30 21 C -4.532093 3.599943 -4.347669 0
M  V30 22 O -3.534054 3.178442 -3.604304 0
M  V30 23 C 2.522597 1.736683 -1.929774 0
M  V30 24 C 2.600428 0.573751 -1.192555 0
M  V30 25 C 0.789258 -4.996188 3.212127 0
M  V30 26 C 0.771246 -6.157305 3.989113 0
M  V30 27 N -0.387841 -6.572431 4.545870 0
M  V30 28 C -1.537412 -5.899282 4.375972 0
M  V30 29 N -1.552436 -4.779514 3.634449 0
M  V30 30 C -2.738147 -3.979570 3.390156 0
M  V30 31 C -2.966147 -2.921797 4.382184 0
M  V30 32 C -3.717958 -3.268110 5.501884 0
M  V30 33 C -4.039156 -2.404908 6.547790 0
M  V30 34 C -3.568940 -1.112242 6.451324 0
M  V30 35 F -3.884829 -0.279692 7.472727 0
M  V30 36 C -2.825569 -0.730109 5.366375 0
M  V30 37 F -2.366016 0.543207 5.278798 0
M  V30 38 C -2.529716 -1.615378 4.352309 0
M  V30 39 C -0.413801 -4.343138 3.068308 0
M  V30 40 O -0.384086 -3.321007 2.380242 0
M  V30 41 H 1.703808 -2.883544 1.602130 0
M  V30 42 H 4.569759 -3.280159 2.257816 0
M  V30 43 H 4.165749 -4.290623 0.847525 0
M  V30 44 H 5.974344 0.273910 -0.844142 0
M  V30 45 H 5.864431 2.346973 -2.156602 0
M  V30 46 H 2.470205 4.902959 -3.924185 0
M  V30 47 H -0.007148 0.743094 -1.411555 0
M  V30 48 H -2.041144 1.622263 -1.914826 0
M  V30 49 H -1.330806 3.229014 -1.983944 0
M  V30 50 H -1.259034 1.114123 -4.228495 0
M  V30 51 H -0.450880 2.748763 -4.308760 0
M  V30 52 H -2.403322 2.567205 -6.588042 0
M  V30 53 H -4.822037 3.654414 -6.508964 0
M  V30 54 H -5.491232 4.041187 -4.038094 0
M  V30 55 H 1.728267 0.018354 -0.884340 0
M  V30 56 H 1.589429 -6.837397 4.243571 0
M  V30 57 H -2.471109 -6.208828 4.807936 0
M  V30 58 H -2.639370 -3.448883 2.397407 0
M  V30 59 H -3.612369 -4.641268 3.245347 0
M  V30 60 H -4.106765 -4.281370 5.613847 0
M  V30 61 H -4.621987 -2.729308 7.382988 0
M  V30 62 H -1.943347 -1.347978 3.477350 0
M  V30 END ATOM
M  V30 BEGIN BOND
M  V30 1 2 1 2
M  V30 2 1 2 3
M  V30 3 1 3 4
M  V30 4 1 4 5
M  V30 5 3 5 6
M  V30 6 1 6 7
M  V30 7 2 7 8
M  V30 8 1 8 9
M  V30 9 2 9 10
M  V30 10 1 10 11
M  V30 11 2 11 12
M  V30 12 1 12 13
M  V30 13 2 13 14
M  V30 14 1 14 15
M  V30 15 1 15 16
M  V30 16 1 16 17
M  V30 17 1 17 18
M  V30 18 2 18 19
M  V30 19 1 19 20
M  V30 20 2 20 21
M  V30 21 1 21 22
M  V30 22 1 14 23
M  V30 23 2 23 24
M  V30 24 1 2 25
M  V30 25 2 25 26
M  V30 26 1 26 27
M  V30 27 2 27 28
M  V30 28 1 28 29
M  V30 29 1 29 30
M  V30 30 1 30 31
M  V30 31 2 31 32
M  V30 32 1 32 33
M  V30 33 2 33 34
M  V30 34 1 34 35
M  V30 35 1 34 36
M  V30 36 1 36 37
M  V30 37 2 36 38
M  V30 38 1 29 39
M  V30 39 2 39 40
M  V30 40 1 24 7
M  V30 41 1 39 25
M  V30 42 1 23 10
M  V30 43 1 38 31
M  V30 44 1 22 18
M  V30 45 1 3 41
M  V30 46 1 4 42
M  V30 47 1 4 43
M  V30 48 1 8 44
M  V30 49 1 9 45
M  V30 50 1 12 46
M  V30 51 1 15 47
M  V30 52 1 16 48
M  V30 53 1 16 49
M  V30 54 1 17 50
M  V30 55 1 17 51
M  V30 56 1 19 52
M  V30 57 1 20 53
M  V30 58 1 21 54
M  V30 59 1 24 55
M  V30 60 1 26 56
M  V30 61 1 28 57
M  V30 62 1 30 58
M  V30 63 1 30 59
M  V30 64 1 32 60
M  V30 65 1 33 61
M  V30 66 1 38 62
M  V30 END BOND
M  V30 END CTAB
M  END
>  <Dataset>  (525) 
ChEMBL_Kinases

>  <Ligand_Instance>  (525) 
nan

>  <PDB_ID>  (525) 
nan

>  <Standardized_SMILES>  (525) 
O=C(NCC#Cc1ccc2ncnc(NCCc3ccco3)c2c1)c1cncn(Cc2ccc(F)c(F)c2)c1=O

>  <Name>  (525) 
nan

>  <Pocket>  (525) 
nan

>  <ATP_Site>  (525) 
nan

>  <Peripheral>  (525) 
nan

>  <Num_H_Atoms_ProtBoundConf>  (525) 
nan

>  <Num_Resolved_Atoms>  (525) 
nan

>  <Num_Not_Resolved_Atoms>  (525) 
nan

$$$$
CHEMBL3640444
     RDKit          3D

  0  0  0  0  0  0  0  0  0  0999 V3000
M  V30 BEGIN CTAB
M  V30 COUNTS 64 68 0 0 0
M  V30 BEGIN ATOM
M  V30 1 O 2.675136 -4.203264 3.585898 0
M  V30 2 C 1.776693 -3.341194 3.314131 0
M  V30 3 N 2.128161 -2.636546 2.164163 0
M  V30 4 C 3.364561 -2.903595 1.430470 0
M  V30 5 C 3.424733 -1.978695 0.269356 0
M  V30 6 C 3.461460 -1.212683 -0.664839 0
M  V30 7 C 3.489749 -0.282542 -1.767930 0
M  V30 8 C 4.564690 0.593047 -1.940180 0
M  V30 9 C 4.565304 1.485812 -3.011538 0
M  V30 10 C 3.500937 1.499588 -3.898325 0
M  V30 11 N 3.516747 2.379453 -4.938224 0
M  V30 12 C 2.453951 2.356191 -5.776557 0
M  V30 13 N 1.407800 1.524455 -5.634531 0
M  V30 14 C 1.339406 0.637154 -4.628904 0
M  V30 15 N 0.229873 -0.249460 -4.479174 0
M  V30 16 C -0.819564 -0.148310 -5.450633 0
M  V30 17 C -1.924486 -1.126101 -5.194369 0
M  V30 18 C -2.580441 -0.945461 -3.877070 0
M  V30 19 C -2.340609 -0.038857 -2.881517 0
M  V30 20 C -3.058210 -0.024473 -1.720929 0
M  V30 21 C -4.045035 -0.956037 -1.569183 0
M  V30 22 C -4.298937 -1.873275 -2.559305 0
M  V30 23 N -3.568831 -1.869056 -3.711189 0
M  V30 24 C 2.410487 0.644621 -3.764221 0
M  V30 25 C 2.469358 -0.204659 -2.696518 0
M  V30 26 C 0.592965 -3.188723 4.142259 0
M  V30 27 C 0.499297 -4.039410 5.250837 0
M  V30 28 N -0.544731 -3.987775 6.082839 0
M  V30 29 C -1.560061 -3.121482 5.906078 0
M  V30 30 N -1.514583 -2.291490 4.863738 0
M  V30 31 C -2.564267 -1.336997 4.611505 0
M  V30 32 C -2.329492 -0.027546 5.276121 0
M  V30 33 C -2.827758 0.131980 6.570294 0
M  V30 34 C -2.712694 1.258819 7.343313 0
M  V30 35 C -2.036866 2.343090 6.786556 0
M  V30 36 F -1.879533 3.491902 7.482555 0
M  V30 37 C -1.528937 2.221595 5.505389 0
M  V30 38 F -0.854442 3.256243 4.907836 0
M  V30 39 C -1.670261 1.068915 4.768957 0
M  V30 40 C -0.474198 -2.329095 4.017690 0
M  V30 41 O -0.413840 -1.556653 3.031722 0
M  V30 42 H 1.478614 -1.893667 1.823348 0
M  V30 43 H 4.218809 -2.702533 2.086353 0
M  V30 44 H 3.326404 -3.916191 1.007731 0
M  V30 45 H 5.389762 0.572225 -1.240090 0
M  V30 46 H 5.404125 2.172846 -3.149071 0
M  V30 47 H 2.368517 3.024470 -6.645402 0
M  V30 48 H 0.110987 -0.950905 -3.748666 0
M  V30 49 H -0.427919 -0.363031 -6.466865 0
M  V30 50 H -1.203574 0.883426 -5.481451 0
M  V30 51 H -2.727724 -1.056503 -5.958750 0
M  V30 52 H -1.570165 -2.179538 -5.234973 0
M  V30 53 H -1.552461 0.638008 -3.108212 0
M  V30 54 H -2.843272 0.699059 -0.963953 0
M  V30 55 H -4.619012 -0.949712 -0.646979 0
M  V30 56 H -5.094462 -2.573432 -2.358432 0
M  V30 57 H 1.678297 -0.892047 -2.517206 0
M  V30 58 H 1.274776 -4.766200 5.462938 0
M  V30 59 H -2.403599 -3.079083 6.578177 0
M  V30 60 H -3.557550 -1.695777 4.912214 0
M  V30 61 H -2.588625 -1.113843 3.507305 0
M  V30 62 H -3.363358 -0.703998 7.032676 0
M  V30 63 H -3.128488 1.298299 8.335602 0
M  V30 64 H -1.283151 0.943263 3.760850 0
M  V30 END ATOM
M  V30 BEGIN BOND
M  V30 1 2 1 2
M  V30 2 1 2 3
M  V30 3 1 3 4
M  V30 4 1 4 5
M  V30 5 3 5 6
M  V30 6 1 6 7
M  V30 7 2 7 8
M  V30 8 1 8 9
M  V30 9 2 9 10
M  V30 10 1 10 11
M  V30 11 2 11 12
M  V30 12 1 12 13
M  V30 13 2 13 14
M  V30 14 1 14 15
M  V30 15 1 15 16
M  V30 16 1 16 17
M  V30 17 1 17 18
M  V30 18 2 18 19
M  V30 19 1 19 20
M  V30 20 2 20 21
M  V30 21 1 21 22
M  V30 22 2 22 23
M  V30 23 1 14 24
M  V30 24 2 24 25
M  V30 25 1 2 26
M  V30 26 2 26 27
M  V30 27 1 27 28
M  V30 28 2 28 29
M  V30 29 1 29 30
M  V30 30 1 30 31
M  V30 31 1 31 32
M  V30 32 2 32 33
M  V30 33 1 33 34
M  V30 34 2 34 35
M  V30 35 1 35 36
M  V30 36 1 35 37
M  V30 37 1 37 38
M  V30 38 2 37 39
M  V30 39 1 30 40
M  V30 40 2 40 41
M  V30 41 1 25 7
M  V30 42 1 40 26
M  V30 43 1 24 10
M  V30 44 1 39 32
M  V30 45 1 23 18
M  V30 46 1 3 42
M  V30 47 1 4 43
M  V30 48 1 4 44
M  V30 49 1 8 45
M  V30 50 1 9 46
M  V30 51 1 12 47
M  V30 52 1 15 48
M  V30 53 1 16 49
M  V30 54 1 16 50
M  V30 55 1 17 51
M  V30 56 1 17 52
M  V30 57 1 19 53
M  V30 58 1 20 54
M  V30 59 1 21 55
M  V30 60 1 22 56
M  V30 61 1 25 57
M  V30 62 1 27 58
M  V30 63 1 29 59
M  V30 64 1 31 60
M  V30 65 1 31 61
M  V30 66 1 33 62
M  V30 67 1 34 63
M  V30 68 1 39 64
M  V30 END BOND
M  V30 END CTAB
M  END
>  <Dataset>  (526) 
ChEMBL_Kinases

>  <Ligand_Instance>  (526) 
nan

>  <PDB_ID>  (526) 
nan

>  <Standardized_SMILES>  (526) 
O=C(NCC#Cc1ccc2ncnc(NCCc3ccccn3)c2c1)c1cncn(Cc2ccc(F)c(F)c2)c1=O

>  <Name>  (526) 
nan

>  <Pocket>  (526) 
nan

>  <ATP_Site>  (526) 
nan

>  <Peripheral>  (526) 
nan

>  <Num_H_Atoms_ProtBoundConf>  (526) 
nan

>  <Num_Resolved_Atoms>  (526) 
nan

>  <Num_Not_Resolved_Atoms>  (526) 
nan

$$$$
CHEMBL3640445
     RDKit          3D

  0  0  0  0  0  0  0  0  0  0999 V3000
M  V30 BEGIN CTAB
M  V30 COUNTS 73 77 0 0 0
M  V30 BEGIN ATOM
M  V30 1 C 2.229780 -7.702481 -2.802008 0
M  V30 2 O 1.250170 -6.785165 -2.439156 0
M  V30 3 C 1.068597 -5.479318 -2.712496 0
M  V30 4 C 2.052890 -4.945353 -3.535317 0
M  V30 5 C 2.221933 -3.691923 -4.030216 0
M  V30 6 C 1.232984 -2.834084 -3.627920 0
M  V30 7 C 0.793289 -1.397127 -3.830037 0
M  V30 8 C -0.231801 -1.384001 -4.966162 0
M  V30 9 N -0.790343 -0.082234 -5.154102 0
M  V30 10 C -1.338680 1.201008 -5.349796 0
M  V30 11 N -1.355461 2.015491 -6.437748 0
M  V30 12 C -1.833317 3.210743 -6.479967 0
M  V30 13 N -2.149405 3.144746 -5.303863 0
M  V30 14 C -2.452243 3.047733 -4.129614 0
M  V30 15 C -3.011215 3.503135 -2.960062 0
M  V30 16 C -3.029085 2.679705 -1.872762 0
M  V30 17 C -2.546071 1.417733 -1.804965 0
M  V30 18 C -2.638304 0.480799 -0.748158 0
M  V30 19 C -2.702559 -0.332736 0.184290 0
M  V30 20 C -2.807677 -1.312767 1.315557 0
M  V30 21 N -2.136177 -0.780889 2.487593 0
M  V30 22 C -2.363251 0.462633 3.091626 0
M  V30 23 O -3.223966 0.865526 2.281050 0
M  V30 24 C -1.714434 0.987641 4.279543 0
M  V30 25 C -2.181457 2.235325 4.670015 0
M  V30 26 N -1.713833 2.815329 5.751746 0
M  V30 27 C -0.773127 2.303994 6.585351 0
M  V30 28 N -0.385695 1.078538 6.102882 0
M  V30 29 C 0.644715 0.404391 6.910988 0
M  V30 30 C 2.005332 0.836811 6.607697 0
M  V30 31 C 2.935002 0.426354 5.618328 0
M  V30 32 C 4.282014 0.836314 5.362601 0
M  V30 33 C 4.441333 1.713661 6.303648 0
M  V30 34 F 5.747711 2.173213 6.021914 0
M  V30 35 C 3.965472 2.393773 7.362450 0
M  V30 36 F 4.419500 3.312781 8.185708 0
M  V30 37 C 2.678542 1.851981 7.429587 0
M  V30 38 C -0.765746 0.365515 5.023698 0
M  V30 39 O -0.292355 -0.766553 4.731234 0
M  V30 40 C -1.942927 0.852521 -2.950241 0
M  V30 41 C -1.896355 1.673447 -4.106834 0
M  V30 42 C 0.182911 -3.288556 -2.780886 0
M  V30 43 C 0.005792 -4.541240 -2.281586 0
M  V30 44 O -0.672687 -5.507073 -1.543973 0
M  V30 45 C -1.918897 -5.130872 -0.908304 0
M  V30 46 H 1.770602 -8.527744 -3.372364 0
M  V30 47 H 2.701112 -8.143089 -1.882604 0
M  V30 48 H 3.051103 -7.261313 -3.393354 0
M  V30 49 H 2.939450 -5.421495 -4.008154 0
M  V30 50 H 2.734137 -2.968171 -4.599369 0
M  V30 51 H 0.570658 -0.902914 -2.926991 0
M  V30 52 H 1.757243 -0.888117 -4.197374 0
M  V30 53 H 0.275346 -1.808132 -5.840591 0
M  V30 54 H -1.028159 -2.126289 -4.649080 0
M  V30 55 H -0.637103 -0.175654 -6.227443 0
M  V30 56 H -1.834960 3.813481 -7.349479 0
M  V30 57 H -3.356742 4.462301 -3.111508 0
M  V30 58 H -3.443039 3.008140 -0.944089 0
M  V30 59 H -3.858622 -1.550142 1.441860 0
M  V30 60 H -2.266688 -2.236470 0.981683 0
M  V30 61 H -1.391702 -1.446428 2.915353 0
M  V30 62 H -2.948012 2.749975 4.058195 0
M  V30 63 H -0.329609 2.698685 7.473110 0
M  V30 64 H 0.539833 -0.715553 6.752187 0
M  V30 65 H 0.477450 0.533159 7.995814 0
M  V30 66 H 2.408734 -0.343858 4.995477 0
M  V30 67 H 4.665771 0.314216 4.541538 0
M  V30 68 H 1.957868 2.177965 8.210361 0
M  V30 69 H -1.572846 -0.144081 -2.973940 0
M  V30 70 H -0.707137 -2.850261 -2.300237 0
M  V30 71 H -2.012432 -5.722293 0.038536 0
M  V30 72 H -1.784087 -4.056676 -0.593743 0
M  V30 73 H -2.728331 -5.303335 -1.622003 0
M  V30 END ATOM
M  V30 BEGIN BOND
M  V30 1 1 1 2
M  V30 2 1 2 3
M  V30 3 2 3 4
M  V30 4 1 4 5
M  V30 5 2 5 6
M  V30 6 1 6 7
M  V30 7 1 7 8
M  V30 8 1 8 9
M  V30 9 1 9 10
M  V30 10 2 10 11
M  V30 11 1 11 12
M  V30 12 2 12 13
M  V30 13 1 13 14
M  V30 14 2 14 15
M  V30 15 1 15 16
M  V30 16 2 16 17
M  V30 17 1 17 18
M  V30 18 3 18 19
M  V30 19 1 19 20
M  V30 20 1 20 21
M  V30 21 1 21 22
M  V30 22 2 22 23
M  V30 23 1 22 24
M  V30 24 2 24 25
M  V30 25 1 25 26
M  V30 26 2 26 27
M  V30 27 1 27 28
M  V30 28 1 28 29
M  V30 29 1 29 30
M  V30 30 2 30 31
M  V30 31 1 31 32
M  V30 32 2 32 33
M  V30 33 1 33 34
M  V30 34 1 33 35
M  V30 35 1 35 36
M  V30 36 2 35 37
M  V30 37 1 28 38
M  V30 38 2 38 39
M  V30 39 1 17 40
M  V30 40 2 40 41
M  V30 41 1 6 42
M  V30 42 2 42 43
M  V30 43 1 43 44
M  V30 44 1 44 45
M  V30 45 1 43 3
M  V30 46 1 41 10
M  V30 47 1 41 14
M  V30 48 1 38 24
M  V30 49 1 37 30
M  V30 50 1 1 46
M  V30 51 1 1 47
M  V30 52 1 1 48
M  V30 53 1 4 49
M  V30 54 1 5 50
M  V30 55 1 7 51
M  V30 56 1 7 52
M  V30 57 1 8 53
M  V30 58 1 8 54
M  V30 59 1 9 55
M  V30 60 1 12 56
M  V30 61 1 15 57
M  V30 62 1 16 58
M  V30 63 1 20 59
M  V30 64 1 20 60
M  V30 65 1 21 61
M  V30 66 1 25 62
M  V30 67 1 27 63
M  V30 68 1 29 64
M  V30 69 1 29 65
M  V30 70 1 31 66
M  V30 71 1 32 67
M  V30 72 1 37 68
M  V30 73 1 40 69
M  V30 74 1 42 70
M  V30 75 1 45 71
M  V30 76 1 45 72
M  V30 77 1 45 73
M  V30 END BOND
M  V30 END CTAB
M  END
>  <Dataset>  (527) 
ChEMBL_Kinases

>  <Ligand_Instance>  (527) 
nan

>  <PDB_ID>  (527) 
nan

>  <Standardized_SMILES>  (527) 
COc1ccc(CCNc2ncnc3ccc(C#CCNC(=O)c4cncn(Cc5ccc(F)c(F)c5)c4=O)cc23)cc1OC

>  <Name>  (527) 
nan

>  <Pocket>  (527) 
nan

>  <ATP_Site>  (527) 
nan

>  <Peripheral>  (527) 
nan

>  <Num_H_Atoms_ProtBoundConf>  (527) 
nan

>  <Num_Resolved_Atoms>  (527) 
nan

>  <Num_Not_Resolved_Atoms>  (527) 
nan

$$$$
CHEMBL3640446
     RDKit          3D

  0  0  0  0  0  0  0  0  0  0999 V3000
M  V30 BEGIN CTAB
M  V30 COUNTS 61 65 0 0 0
M  V30 BEGIN ATOM
M  V30 1 O -2.397121 -4.139175 4.412433 0
M  V30 2 C -1.563950 -3.892157 3.428586 0
M  V30 3 N -1.039038 -2.667994 3.822331 0
M  V30 4 C -0.940947 -1.591792 4.732153 0
M  V30 5 C 0.008148 -0.562518 4.166804 0
M  V30 6 C 0.758078 0.247649 3.697565 0
M  V30 7 C 1.642733 1.193916 3.123744 0
M  V30 8 C 2.934743 1.393460 3.559324 0
M  V30 9 C 3.741650 2.329537 2.933456 0
M  V30 10 C 3.231542 3.041483 1.887111 0
M  V30 11 N 4.034791 3.951671 1.288884 0
M  V30 12 C 3.512919 4.659298 0.244505 0
M  V30 13 N 2.251775 4.472544 -0.187683 0
M  V30 14 C 1.393470 3.580953 0.361328 0
M  V30 15 N 0.078884 3.461675 -0.152183 0
M  V30 16 C -1.200066 3.662059 0.503652 0
M  V30 17 C -2.171071 2.564218 0.143035 0
M  V30 18 N -1.542518 1.410145 -0.477440 0
M  V30 19 C -0.982851 1.879270 -1.731296 0
M  V30 20 C -0.128659 3.090517 -1.561838 0
M  V30 21 C 1.954379 2.890572 1.404977 0
M  V30 22 C 1.184510 1.957539 2.045352 0
M  V30 23 C -1.488993 -4.813108 2.426443 0
M  V30 24 C -2.267410 -5.975433 2.347161 0
M  V30 25 N -2.116183 -6.825971 1.255867 0
M  V30 26 C -1.180809 -6.478556 0.271948 0
M  V30 27 N -0.292696 -5.302443 0.213184 0
M  V30 28 C 0.403391 -5.507316 -0.987172 0
M  V30 29 C -0.137716 -4.765272 -2.177280 0
M  V30 30 C -1.060819 -5.166481 -3.126752 0
M  V30 31 C -1.427168 -4.301354 -4.161183 0
M  V30 32 C -0.866983 -3.025165 -4.248410 0
M  V30 33 F -1.247445 -2.213502 -5.272441 0
M  V30 34 C 0.051026 -2.584375 -3.332055 0
M  V30 35 F 0.607259 -1.344670 -3.397770 0
M  V30 36 C 0.381362 -3.470537 -2.330231 0
M  V30 37 C -0.893456 -5.094152 1.286341 0
M  V30 38 O -0.055981 -3.952183 1.261414 0
M  V30 39 H -0.383313 -2.505233 2.973754 0
M  V30 40 H -0.622360 -1.783212 5.742504 0
M  V30 41 H -1.915826 -1.024249 4.817814 0
M  V30 42 H 3.268177 0.796976 4.389299 0
M  V30 43 H 4.725506 2.409882 3.341372 0
M  V30 44 H 4.173915 5.382557 -0.223247 0
M  V30 45 H -1.706231 4.611712 0.162904 0
M  V30 46 H -1.133426 3.742853 1.604869 0
M  V30 47 H -2.674610 2.169880 1.071847 0
M  V30 48 H -2.980730 2.904019 -0.540093 0
M  V30 49 H -2.354709 0.786340 -0.772309 0
M  V30 50 H -0.373362 1.106722 -2.245618 0
M  V30 51 H -1.847679 2.113892 -2.389707 0
M  V30 52 H 0.848087 3.021756 -2.068104 0
M  V30 53 H -0.624851 3.984352 -2.010957 0
M  V30 54 H 0.150168 1.785281 1.701115 0
M  V30 55 H -2.993208 -6.219828 3.140695 0
M  V30 56 H -1.369827 -7.396905 -0.407822 0
M  V30 57 H 1.468307 -5.120538 -0.841531 0
M  V30 58 H 0.605392 -6.575746 -1.267691 0
M  V30 59 H -1.429247 -6.169890 -2.958005 0
M  V30 60 H -2.148937 -4.714675 -4.843181 0
M  V30 61 H 1.122169 -3.078911 -1.616341 0
M  V30 END ATOM
M  V30 BEGIN BOND
M  V30 1 2 1 2
M  V30 2 1 2 3
M  V30 3 1 3 4
M  V30 4 1 4 5
M  V30 5 3 5 6
M  V30 6 1 6 7
M  V30 7 2 7 8
M  V30 8 1 8 9
M  V30 9 2 9 10
M  V30 10 1 10 11
M  V30 11 2 11 12
M  V30 12 1 12 13
M  V30 13 2 13 14
M  V30 14 1 14 15
M  V30 15 1 15 16
M  V30 16 1 16 17
M  V30 17 1 17 18
M  V30 18 1 18 19
M  V30 19 1 19 20
M  V30 20 1 14 21
M  V30 21 2 21 22
M  V30 22 1 2 23
M  V30 23 2 23 24
M  V30 24 1 24 25
M  V30 25 2 25 26
M  V30 26 1 26 27
M  V30 27 1 27 28
M  V30 28 1 28 29
M  V30 29 2 29 30
M  V30 30 1 30 31
M  V30 31 2 31 32
M  V30 32 1 32 33
M  V30 33 1 32 34
M  V30 34 1 34 35
M  V30 35 2 34 36
M  V30 36 1 27 37
M  V30 37 2 37 38
M  V30 38 1 22 7
M  V30 39 1 37 23
M  V30 40 1 21 10
M  V30 41 1 36 29
M  V30 42 1 20 15
M  V30 43 1 3 39
M  V30 44 1 4 40
M  V30 45 1 4 41
M  V30 46 1 8 42
M  V30 47 1 9 43
M  V30 48 1 12 44
M  V30 49 1 16 45
M  V30 50 1 16 46
M  V30 51 1 17 47
M  V30 52 1 17 48
M  V30 53 1 18 49
M  V30 54 1 19 50
M  V30 55 1 19 51
M  V30 56 1 20 52
M  V30 57 1 20 53
M  V30 58 1 22 54
M  V30 59 1 24 55
M  V30 60 1 26 56
M  V30 61 1 28 57
M  V30 62 1 28 58
M  V30 63 1 30 59
M  V30 64 1 31 60
M  V30 65 1 36 61
M  V30 END BOND
M  V30 END CTAB
M  END
>  <Dataset>  (528) 
ChEMBL_Kinases

>  <Ligand_Instance>  (528) 
nan

>  <PDB_ID>  (528) 
nan

>  <Standardized_SMILES>  (528) 
O=C(NCC#Cc1ccc2ncnc(N3CCNCC3)c2c1)c1cncn(Cc2ccc(F)c(F)c2)c1=O

>  <Name>  (528) 
nan

>  <Pocket>  (528) 
nan

>  <ATP_Site>  (528) 
nan

>  <Peripheral>  (528) 
nan

>  <Num_H_Atoms_ProtBoundConf>  (528) 
nan

>  <Num_Resolved_Atoms>  (528) 
nan

>  <Num_Not_Resolved_Atoms>  (528) 
nan

$$$$
CHEMBL3640447
     RDKit          3D

  0  0  0  0  0  0  0  0  0  0999 V3000
M  V30 BEGIN CTAB
M  V30 COUNTS 63 66 0 0 0
M  V30 BEGIN ATOM
M  V30 1 C 5.718012 -1.348383 4.255174 0
M  V30 2 N 4.943603 -0.106948 4.208184 0
M  V30 3 C 5.517496 0.679128 5.337576 0
M  V30 4 C 3.571566 -0.441336 4.550913 0
M  V30 5 C 2.633179 0.734567 4.443393 0
M  V30 6 N 2.502043 1.280633 3.129820 0
M  V30 7 C 3.406949 1.880107 2.220321 0
M  V30 8 N 4.697131 2.030782 2.537332 0
M  V30 9 C 5.574865 2.593312 1.702165 0
M  V30 10 N 5.161032 3.035402 0.480283 0
M  V30 11 C 3.880464 2.910827 0.108474 0
M  V30 12 C 3.473547 3.360150 -1.127087 0
M  V30 13 C 2.168017 3.256923 -1.560828 0
M  V30 14 C 1.259085 2.668025 -0.681479 0
M  V30 15 C -0.104854 2.553888 -1.122880 0
M  V30 16 C -1.247244 2.461718 -1.511962 0
M  V30 17 C -2.646474 2.322960 -1.986408 0
M  V30 18 N -3.200983 1.039568 -1.537044 0
M  V30 19 C -2.390652 0.008741 -2.083229 0
M  V30 20 O -1.466041 0.564076 -2.772448 0
M  V30 21 C -2.540021 -1.429037 -1.920431 0
M  V30 22 C -1.560066 -2.165509 -2.597177 0
M  V30 23 N -1.543444 -3.506325 -2.555857 0
M  V30 24 C -2.458602 -4.210528 -1.868527 0
M  V30 25 N -3.403833 -3.519826 -1.214997 0
M  V30 26 C -4.404387 -4.223640 -0.467305 0
M  V30 27 C -5.616348 -4.556510 -1.283190 0
M  V30 28 C -5.534503 -5.790109 -1.933759 0
M  V30 29 C -6.610545 -6.205656 -2.724862 0
M  V30 30 C -7.739851 -5.392838 -2.853505 0
M  V30 31 F -8.781860 -5.815682 -3.630933 0
M  V30 32 C -7.767250 -4.183633 -2.188422 0
M  V30 33 F -8.865046 -3.371441 -2.301092 0
M  V30 34 C -6.726308 -3.740002 -1.399776 0
M  V30 35 C -3.461173 -2.179554 -1.226950 0
M  V30 36 O -4.319181 -1.481513 -0.636403 0
M  V30 37 C 1.701165 2.232066 0.541316 0
M  V30 38 C 2.999583 2.328628 0.986953 0
M  V30 39 H 5.347501 -1.878484 5.176837 0
M  V30 40 H 6.776928 -1.075081 4.440565 0
M  V30 41 H 5.576255 -1.972934 3.374752 0
M  V30 42 H 5.205253 0.225580 6.299492 0
M  V30 43 H 6.611332 0.585410 5.250339 0
M  V30 44 H 5.241432 1.732818 5.265829 0
M  V30 45 H 3.256527 -1.219257 3.812140 0
M  V30 46 H 3.467382 -0.838892 5.565914 0
M  V30 47 H 3.006481 1.519069 5.175461 0
M  V30 48 H 1.666438 0.424371 4.880088 0
M  V30 49 H 1.516064 1.191290 2.829815 0
M  V30 50 H 6.617602 2.706339 1.978083 0
M  V30 51 H 4.189556 3.811738 -1.791988 0
M  V30 52 H 1.864445 3.613588 -2.531254 0
M  V30 53 H -3.219772 3.175362 -1.569379 0
M  V30 54 H -2.659849 2.397404 -3.082649 0
M  V30 55 H -4.009104 0.752619 -0.942314 0
M  V30 56 H -0.762403 -1.706033 -3.189827 0
M  V30 57 H -2.462228 -5.286817 -1.822938 0
M  V30 58 H -3.994221 -5.154667 0.002752 0
M  V30 59 H -4.714444 -3.596632 0.396837 0
M  V30 60 H -4.675207 -6.446422 -1.857395 0
M  V30 61 H -6.527347 -7.165584 -3.221105 0
M  V30 62 H -6.719810 -2.799699 -0.868059 0
M  V30 63 H 0.926650 1.799318 1.132942 0
M  V30 END ATOM
M  V30 BEGIN BOND
M  V30 1 1 1 2
M  V30 2 1 2 3
M  V30 3 1 2 4
M  V30 4 1 4 5
M  V30 5 1 5 6
M  V30 6 1 6 7
M  V30 7 2 7 8
M  V30 8 1 8 9
M  V30 9 2 9 10
M  V30 10 1 10 11
M  V30 11 2 11 12
M  V30 12 1 12 13
M  V30 13 2 13 14
M  V30 14 1 14 15
M  V30 15 3 15 16
M  V30 16 1 16 17
M  V30 17 1 17 18
M  V30 18 1 18 19
M  V30 19 2 19 20
M  V30 20 1 19 21
M  V30 21 2 21 22
M  V30 22 1 22 23
M  V30 23 2 23 24
M  V30 24 1 24 25
M  V30 25 1 25 26
M  V30 26 1 26 27
M  V30 27 2 27 28
M  V30 28 1 28 29
M  V30 29 2 29 30
M  V30 30 1 30 31
M  V30 31 1 30 32
M  V30 32 1 32 33
M  V30 33 2 32 34
M  V30 34 1 25 35
M  V30 35 2 35 36
M  V30 36 1 14 37
M  V30 37 2 37 38
M  V30 38 1 38 7
M  V30 39 1 38 11
M  V30 40 1 35 21
M  V30 41 1 34 27
M  V30 42 1 1 39
M  V30 43 1 1 40
M  V30 44 1 1 41
M  V30 45 1 3 42
M  V30 46 1 3 43
M  V30 47 1 3 44
M  V30 48 1 4 45
M  V30 49 1 4 46
M  V30 50 1 5 47
M  V30 51 1 5 48
M  V30 52 1 6 49
M  V30 53 1 9 50
M  V30 54 1 12 51
M  V30 55 1 13 52
M  V30 56 1 17 53
M  V30 57 1 17 54
M  V30 58 1 18 55
M  V30 59 1 22 56
M  V30 60 1 24 57
M  V30 61 1 26 58
M  V30 62 1 26 59
M  V30 63 1 28 60
M  V30 64 1 29 61
M  V30 65 1 34 62
M  V30 66 1 37 63
M  V30 END BOND
M  V30 END CTAB
M  END
>  <Dataset>  (529) 
ChEMBL_Kinases

>  <Ligand_Instance>  (529) 
nan

>  <PDB_ID>  (529) 
nan

>  <Standardized_SMILES>  (529) 
CN(C)CCNc1ncnc2ccc(C#CCNC(=O)c3cncn(Cc4ccc(F)c(F)c4)c3=O)cc12

>  <Name>  (529) 
nan

>  <Pocket>  (529) 
nan

>  <ATP_Site>  (529) 
nan

>  <Peripheral>  (529) 
nan

>  <Num_H_Atoms_ProtBoundConf>  (529) 
nan

>  <Num_Resolved_Atoms>  (529) 
nan

>  <Num_Not_Resolved_Atoms>  (529) 
nan

$$$$
CHEMBL3640457
     RDKit          3D

  0  0  0  0  0  0  0  0  0  0999 V3000
M  V30 BEGIN CTAB
M  V30 COUNTS 59 63 0 0 0
M  V30 BEGIN ATOM
M  V30 1 C 1.393121 -1.422639 2.384171 0
M  V30 2 N 2.776606 -1.543646 1.910846 0
M  V30 3 C 3.811697 -0.568997 2.133424 0
M  V30 4 N 4.894611 -1.014372 2.819093 0
M  V30 5 C 5.920455 -0.182749 3.081078 0
M  V30 6 N 5.887322 1.098176 2.668299 0
M  V30 7 C 4.834393 1.580951 1.986241 0
M  V30 8 C 4.718364 2.867233 1.529891 0
M  V30 9 C 3.629108 3.341166 0.832216 0
M  V30 10 C 2.598970 2.458016 0.583985 0
M  V30 11 C 1.410027 2.839438 -0.135654 0
M  V30 12 C 0.406558 3.144065 -0.753191 0
M  V30 13 C -0.814852 3.488397 -1.505394 0
M  V30 14 N -1.731559 2.362095 -1.537186 0
M  V30 15 C -2.101692 1.997764 -0.226686 0
M  V30 16 O -1.509366 2.780337 0.595388 0
M  V30 17 C -2.993713 0.932511 0.192896 0
M  V30 18 C -3.161849 0.820953 1.575398 0
M  V30 19 N -3.948428 -0.106802 2.114085 0
M  V30 20 C -4.627193 -0.989196 1.383815 0
M  V30 21 N -4.487483 -0.909174 0.050124 0
M  V30 22 C -5.185876 -1.825333 -0.816815 0
M  V30 23 C -4.421285 -3.055475 -1.111319 0
M  V30 24 C -4.599429 -4.135618 -0.239931 0
M  V30 25 C -3.933940 -5.329354 -0.424228 0
M  V30 26 C -3.070188 -5.472862 -1.489181 0
M  V30 27 F -2.405777 -6.645557 -1.684448 0
M  V30 28 C -2.869241 -4.420721 -2.374487 0
M  V30 29 F -2.022003 -4.534060 -3.435251 0
M  V30 30 C -3.547906 -3.245810 -2.161558 0
M  V30 31 C -3.705534 0.009658 -0.536047 0
M  V30 32 O -3.550209 0.115471 -1.773321 0
M  V30 33 C 2.676372 1.152651 1.026694 0
M  V30 34 C 3.790955 0.727975 1.721955 0
M  V30 35 C 3.119797 -2.727305 1.168781 0
M  V30 36 C 4.481757 -2.949478 0.647657 0
M  V30 37 C 4.056597 -3.672028 1.861907 0
M  V30 38 H 0.687143 -1.492348 1.546720 0
M  V30 39 H 1.195732 -2.327877 3.019424 0
M  V30 40 H 1.207543 -0.491330 2.924483 0
M  V30 41 H 6.750220 -0.609084 3.632706 0
M  V30 42 H 5.542764 3.555779 1.734163 0
M  V30 43 H 3.541112 4.346215 0.477002 0
M  V30 44 H -0.509902 3.699529 -2.535331 0
M  V30 45 H -1.316954 4.348978 -1.036396 0
M  V30 46 H -2.133171 1.815537 -2.328026 0
M  V30 47 H -2.668639 1.474504 2.285981 0
M  V30 48 H -5.281230 -1.766172 1.750593 0
M  V30 49 H -5.444495 -1.287327 -1.768650 0
M  V30 50 H -6.151613 -2.115619 -0.352763 0
M  V30 51 H -5.267529 -4.054341 0.601215 0
M  V30 52 H -4.095753 -6.146407 0.270892 0
M  V30 53 H -3.412026 -2.419427 -2.827902 0
M  V30 54 H 1.865170 0.471582 0.826747 0
M  V30 55 H 2.297700 -3.153211 0.557564 0
M  V30 56 H 4.609613 -3.546546 -0.277844 0
M  V30 57 H 5.295476 -2.189804 0.766290 0
M  V30 58 H 4.513880 -3.364264 2.825842 0
M  V30 59 H 3.724639 -4.728986 1.853589 0
M  V30 END ATOM
M  V30 BEGIN BOND
M  V30 1 1 1 2
M  V30 2 1 2 3
M  V30 3 2 3 4
M  V30 4 1 4 5
M  V30 5 2 5 6
M  V30 6 1 6 7
M  V30 7 2 7 8
M  V30 8 1 8 9
M  V30 9 2 9 10
M  V30 10 1 10 11
M  V30 11 3 11 12
M  V30 12 1 12 13
M  V30 13 1 13 14
M  V30 14 1 14 15
M  V30 15 2 15 16
M  V30 16 1 15 17
M  V30 17 2 17 18
M  V30 18 1 18 19
M  V30 19 2 19 20
M  V30 20 1 20 21
M  V30 21 1 21 22
M  V30 22 1 22 23
M  V30 23 2 23 24
M  V30 24 1 24 25
M  V30 25 2 25 26
M  V30 26 1 26 27
M  V30 27 1 26 28
M  V30 28 1 28 29
M  V30 29 2 28 30
M  V30 30 1 21 31
M  V30 31 2 31 32
M  V30 32 1 10 33
M  V30 33 2 33 34
M  V30 34 1 2 35
M  V30 35 1 35 36
M  V30 36 1 36 37
M  V30 37 1 34 3
M  V30 38 1 37 35
M  V30 39 1 34 7
M  V30 40 1 31 17
M  V30 41 1 30 23
M  V30 42 1 1 38
M  V30 43 1 1 39
M  V30 44 1 1 40
M  V30 45 1 5 41
M  V30 46 1 8 42
M  V30 47 1 9 43
M  V30 48 1 13 44
M  V30 49 1 13 45
M  V30 50 1 14 46
M  V30 51 1 18 47
M  V30 52 1 20 48
M  V30 53 1 22 49
M  V30 54 1 22 50
M  V30 55 1 24 51
M  V30 56 1 25 52
M  V30 57 1 30 53
M  V30 58 1 33 54
M  V30 59 1 35 55
M  V30 60 1 36 56
M  V30 61 1 36 57
M  V30 62 1 37 58
M  V30 63 1 37 59
M  V30 END BOND
M  V30 END CTAB
M  END
>  <Dataset>  (530) 
ChEMBL_Kinases

>  <Ligand_Instance>  (530) 
nan

>  <PDB_ID>  (530) 
nan

>  <Standardized_SMILES>  (530) 
CN(c1ncnc2ccc(C#CCNC(=O)c3cncn(Cc4ccc(F)c(F)c4)c3=O)cc12)C1CC1

>  <Name>  (530) 
nan

>  <Pocket>  (530) 
nan

>  <ATP_Site>  (530) 
nan

>  <Peripheral>  (530) 
nan

>  <Num_H_Atoms_ProtBoundConf>  (530) 
nan

>  <Num_Resolved_Atoms>  (530) 
nan

>  <Num_Not_Resolved_Atoms>  (530) 
nan

$$$$
CHEMBL3640449
     RDKit          3D

  0  0  0  0  0  0  0  0  0  0999 V3000
M  V30 BEGIN CTAB
M  V30 COUNTS 62 66 0 0 0
M  V30 BEGIN ATOM
M  V30 1 O 1.533942 -2.358505 5.062479 0
M  V30 2 C 1.463306 -1.555938 4.045430 0
M  V30 3 N 2.186866 -2.067316 3.109111 0
M  V30 4 C 3.030780 -2.900481 2.364085 0
M  V30 5 C 3.306850 -2.398088 1.014345 0
M  V30 6 C 3.527532 -1.969777 -0.095428 0
M  V30 7 C 3.807284 -1.470535 -1.431638 0
M  V30 8 C 5.107148 -1.171919 -1.765267 0
M  V30 9 C 5.410763 -0.695503 -3.004829 0
M  V30 10 C 4.367208 -0.539640 -3.869518 0
M  V30 11 N 4.625130 -0.059600 -5.120511 0
M  V30 12 C 3.628692 0.118685 -6.004671 0
M  V30 13 N 2.374104 -0.164950 -5.695516 0
M  V30 14 C 1.994957 -0.645214 -4.496617 0
M  V30 15 N 0.639860 -0.965689 -4.179674 0
M  V30 16 C -0.320144 -0.704467 -5.236141 0
M  V30 17 C -1.678832 -1.185034 -4.767293 0
M  V30 18 C -2.699553 -0.935051 -5.814203 0
M  V30 19 C -4.038524 -1.132647 -6.011281 0
M  V30 20 C -4.538086 -0.698720 -7.224237 0
M  V30 21 C -3.735805 -0.112927 -8.151460 0
M  V30 22 S -2.073461 -0.150101 -7.272752 0
M  V30 23 C 3.040408 -0.811009 -3.627097 0
M  V30 24 C 2.780468 -1.297848 -2.337611 0
M  V30 25 C 0.683391 -0.934248 4.944027 0
M  V30 26 C 0.504998 0.076555 3.814745 0
M  V30 27 N -0.251066 1.267198 3.784375 0
M  V30 28 C -0.949549 1.620610 4.911499 0
M  V30 29 N -0.840504 0.781315 5.946789 0
M  V30 30 C -1.463197 0.920294 7.236169 0
M  V30 31 C -2.800696 0.281248 7.344314 0
M  V30 32 C -3.961172 0.918310 6.951851 0
M  V30 33 C -5.144381 0.221317 7.110498 0
M  V30 34 C -5.255715 -1.054029 7.629394 0
M  V30 35 F -6.485502 -1.652095 7.737473 0
M  V30 36 C -4.075159 -1.698657 8.027479 0
M  V30 37 F -4.182216 -2.942102 8.532792 0
M  V30 38 C -2.869169 -0.996157 7.866915 0
M  V30 39 C -0.087712 -0.254310 5.743291 0
M  V30 40 O 0.142200 -1.184869 6.631178 0
M  V30 41 H 1.962309 -1.244138 2.442683 0
M  V30 42 H 2.629714 -3.956560 2.285193 0
M  V30 43 H 4.039924 -3.045340 2.832395 0
M  V30 44 H 5.857571 -1.330240 -1.007309 0
M  V30 45 H 6.433057 -0.462086 -3.259884 0
M  V30 46 H 3.801525 0.499404 -7.009658 0
M  V30 47 H 0.314783 -1.355420 -3.279010 0
M  V30 48 H -0.342037 0.374071 -5.508607 0
M  V30 49 H -0.100182 -1.279272 -6.161709 0
M  V30 50 H -1.969892 -0.799646 -3.789209 0
M  V30 51 H -1.568884 -2.320211 -4.771905 0
M  V30 52 H -4.578775 -1.605155 -5.210202 0
M  V30 53 H -5.611169 -0.831100 -7.445568 0
M  V30 54 H -3.957366 0.254060 -9.098915 0
M  V30 55 H 1.796403 -1.556453 -1.985262 0
M  V30 56 H 0.790595 0.327968 2.733636 0
M  V30 57 H -1.587619 2.445082 5.162952 0
M  V30 58 H -0.818470 0.535074 8.043519 0
M  V30 59 H -1.539315 2.026195 7.444276 0
M  V30 60 H -3.933895 1.916149 6.536471 0
M  V30 61 H -6.076499 0.686359 6.813178 0
M  V30 62 H -2.048407 -1.599084 8.214152 0
M  V30 END ATOM
M  V30 BEGIN BOND
M  V30 1 2 1 2
M  V30 2 1 2 3
M  V30 3 1 3 4
M  V30 4 1 4 5
M  V30 5 3 5 6
M  V30 6 1 6 7
M  V30 7 2 7 8
M  V30 8 1 8 9
M  V30 9 2 9 10
M  V30 10 1 10 11
M  V30 11 2 11 12
M  V30 12 1 12 13
M  V30 13 2 13 14
M  V30 14 1 14 15
M  V30 15 1 15 16
M  V30 16 1 16 17
M  V30 17 1 17 18
M  V30 18 2 18 19
M  V30 19 1 19 20
M  V30 20 2 20 21
M  V30 21 1 21 22
M  V30 22 1 14 23
M  V30 23 2 23 24
M  V30 24 1 2 25
M  V30 25 2 25 26
M  V30 26 1 26 27
M  V30 27 2 27 28
M  V30 28 1 28 29
M  V30 29 1 29 30
M  V30 30 1 30 31
M  V30 31 2 31 32
M  V30 32 1 32 33
M  V30 33 2 33 34
M  V30 34 1 34 35
M  V30 35 1 34 36
M  V30 36 1 36 37
M  V30 37 2 36 38
M  V30 38 1 29 39
M  V30 39 2 39 40
M  V30 40 1 24 7
M  V30 41 1 39 25
M  V30 42 1 23 10
M  V30 43 1 38 31
M  V30 44 1 22 18
M  V30 45 1 3 41
M  V30 46 1 4 42
M  V30 47 1 4 43
M  V30 48 1 8 44
M  V30 49 1 9 45
M  V30 50 1 12 46
M  V30 51 1 15 47
M  V30 52 1 16 48
M  V30 53 1 16 49
M  V30 54 1 17 50
M  V30 55 1 17 51
M  V30 56 1 19 52
M  V30 57 1 20 53
M  V30 58 1 21 54
M  V30 59 1 24 55
M  V30 60 1 26 56
M  V30 61 1 28 57
M  V30 62 1 30 58
M  V30 63 1 30 59
M  V30 64 1 32 60
M  V30 65 1 33 61
M  V30 66 1 38 62
M  V30 END BOND
M  V30 END CTAB
M  END
>  <Dataset>  (531) 
ChEMBL_Kinases

>  <Ligand_Instance>  (531) 
nan

>  <PDB_ID>  (531) 
nan

>  <Standardized_SMILES>  (531) 
O=C(NCC#Cc1ccc2ncnc(NCCc3cccs3)c2c1)c1cncn(Cc2ccc(F)c(F)c2)c1=O

>  <Name>  (531) 
nan

>  <Pocket>  (531) 
nan

>  <ATP_Site>  (531) 
nan

>  <Peripheral>  (531) 
nan

>  <Num_H_Atoms_ProtBoundConf>  (531) 
nan

>  <Num_Resolved_Atoms>  (531) 
nan

>  <Num_Not_Resolved_Atoms>  (531) 
nan

$$$$
CHEMBL3640450
     RDKit          3D

  0  0  0  0  0  0  0  0  0  0999 V3000
M  V30 BEGIN CTAB
M  V30 COUNTS 66 70 0 0 0
M  V30 BEGIN ATOM
M  V30 1 O 1.252192 -3.165687 5.270054 0
M  V30 2 C 0.775185 -2.530311 4.238264 0
M  V30 3 N -0.433008 -2.247767 4.642733 0
M  V30 4 C -1.719774 -1.976027 5.135909 0
M  V30 5 C -2.514910 -1.189460 4.200538 0
M  V30 6 C -3.158724 -0.524096 3.435621 0
M  V30 7 C -3.915216 0.287091 2.503626 0
M  V30 8 C -5.190905 0.730283 2.757815 0
M  V30 9 C -5.822956 1.510073 1.799104 0
M  V30 10 C -5.199832 1.834076 0.630720 0
M  V30 11 N -5.865833 2.588673 -0.252039 0
M  V30 12 C -5.301528 2.945207 -1.428557 0
M  V30 13 N -4.057085 2.514147 -1.675908 0
M  V30 14 C -3.320258 1.761535 -0.864194 0
M  V30 15 N -2.003152 1.328825 -1.166437 0
M  V30 16 C -1.206664 1.566719 -2.342010 0
M  V30 17 C -1.767448 1.050442 -3.625476 0
M  V30 18 O -2.977062 1.669592 -3.901690 0
M  V30 19 C -2.031826 -0.407357 -3.665581 0
M  V30 20 C -2.775382 -0.862616 -4.729852 0
M  V30 21 C -3.129961 -2.180276 -4.921264 0
M  V30 22 C -2.714010 -3.133394 -3.980285 0
M  V30 23 C -1.963628 -2.706036 -2.899772 0
M  V30 24 C -1.646386 -1.380214 -2.770139 0
M  V30 25 C -3.932328 1.419225 0.329684 0
M  V30 26 C -3.324174 0.651942 1.283463 0
M  V30 27 C 1.920716 -2.644796 3.505413 0
M  V30 28 C 1.171240 -2.137493 2.287604 0
M  V30 29 N 1.614624 -1.922091 0.977111 0
M  V30 30 C 2.923499 -2.191336 0.680195 0
M  V30 31 N 3.659774 -2.644489 1.705688 0
M  V30 32 C 5.037044 -2.957077 1.618310 0
M  V30 33 C 5.917103 -1.783631 1.869123 0
M  V30 34 C 6.093379 -0.937009 0.782502 0
M  V30 35 C 6.874283 0.228134 0.752654 0
M  V30 36 C 7.544651 0.572561 1.947503 0
M  V30 37 F 8.314901 1.682521 1.994831 0
M  V30 38 C 7.359108 -0.273539 3.012045 0
M  V30 39 F 8.019003 0.041781 4.161002 0
M  V30 40 C 6.588383 -1.405329 3.003434 0
M  V30 41 C 2.979148 -2.749536 2.825766 0
M  V30 42 O 3.548213 -3.178718 3.927614 0
M  V30 43 H -0.577937 -1.727138 3.712710 0
M  V30 44 H -1.716414 -1.495817 6.155448 0
M  V30 45 H -2.320415 -2.936844 5.313341 0
M  V30 46 H -5.606908 0.426276 3.706134 0
M  V30 47 H -6.843526 1.851630 2.026437 0
M  V30 48 H -5.672019 3.528045 -2.232016 0
M  V30 49 H -1.487978 0.750448 -0.469062 0
M  V30 50 H -1.211838 2.700719 -2.462114 0
M  V30 51 H -0.169036 1.309040 -2.155436 0
M  V30 52 H -1.108316 1.287500 -4.477324 0
M  V30 53 H -3.696708 1.029098 -4.098609 0
M  V30 54 H -3.181257 -0.278493 -5.561561 0
M  V30 55 H -3.708239 -2.600433 -5.729307 0
M  V30 56 H -2.967540 -4.179685 -4.083805 0
M  V30 57 H -1.646381 -3.422884 -2.180453 0
M  V30 58 H -1.066781 -1.039697 -1.943153 0
M  V30 59 H -2.324043 0.279604 1.147799 0
M  V30 60 H 0.139080 -1.781528 1.944264 0
M  V30 61 H 3.493590 -2.108475 -0.212320 0
M  V30 62 H 5.238736 -3.376127 0.604034 0
M  V30 63 H 5.279850 -3.781691 2.320950 0
M  V30 64 H 5.638334 -1.071911 -0.214443 0
M  V30 65 H 7.002551 0.878847 -0.102468 0
M  V30 66 H 6.449581 -2.069327 3.853067 0
M  V30 END ATOM
M  V30 BEGIN BOND
M  V30 1 2 1 2
M  V30 2 1 2 3
M  V30 3 1 3 4
M  V30 4 1 4 5
M  V30 5 3 5 6
M  V30 6 1 6 7
M  V30 7 2 7 8
M  V30 8 1 8 9
M  V30 9 2 9 10
M  V30 10 1 10 11
M  V30 11 2 11 12
M  V30 12 1 12 13
M  V30 13 2 13 14
M  V30 14 1 14 15
M  V30 15 1 15 16
M  V30 16 1 16 17
M  V30 17 1 17 18
M  V30 18 1 17 19
M  V30 19 2 19 20
M  V30 20 1 20 21
M  V30 21 2 21 22
M  V30 22 1 22 23
M  V30 23 2 23 24
M  V30 24 1 14 25
M  V30 25 2 25 26
M  V30 26 1 2 27
M  V30 27 2 27 28
M  V30 28 1 28 29
M  V30 29 2 29 30
M  V30 30 1 30 31
M  V30 31 1 31 32
M  V30 32 1 32 33
M  V30 33 2 33 34
M  V30 34 1 34 35
M  V30 35 2 35 36
M  V30 36 1 36 37
M  V30 37 1 36 38
M  V30 38 1 38 39
M  V30 39 2 38 40
M  V30 40 1 31 41
M  V30 41 2 41 42
M  V30 42 1 26 7
M  V30 43 1 41 27
M  V30 44 1 25 10
M  V30 45 1 40 33
M  V30 46 1 24 19
M  V30 47 1 3 43
M  V30 48 1 4 44
M  V30 49 1 4 45
M  V30 50 1 8 46
M  V30 51 1 9 47
M  V30 52 1 12 48
M  V30 53 1 15 49
M  V30 54 1 16 50
M  V30 55 1 16 51
M  V30 56 1 17 52
M  V30 57 1 18 53
M  V30 58 1 20 54
M  V30 59 1 21 55
M  V30 60 1 22 56
M  V30 61 1 23 57
M  V30 62 1 24 58
M  V30 63 1 26 59
M  V30 64 1 28 60
M  V30 65 1 30 61
M  V30 66 1 32 62
M  V30 67 1 32 63
M  V30 68 1 34 64
M  V30 69 1 35 65
M  V30 70 1 40 66
M  V30 END BOND
M  V30 END CTAB
M  END
>  <Dataset>  (532) 
ChEMBL_Kinases

>  <Ligand_Instance>  (532) 
nan

>  <PDB_ID>  (532) 
nan

>  <Standardized_SMILES>  (532) 
O=C(NCC#Cc1ccc2ncnc(NCC(O)c3ccccc3)c2c1)c1cncn(Cc2ccc(F)c(F)c2)c1=O

>  <Name>  (532) 
nan

>  <Pocket>  (532) 
nan

>  <ATP_Site>  (532) 
nan

>  <Peripheral>  (532) 
nan

>  <Num_H_Atoms_ProtBoundConf>  (532) 
nan

>  <Num_Resolved_Atoms>  (532) 
nan

>  <Num_Not_Resolved_Atoms>  (532) 
nan

$$$$
CHEMBL3640451
     RDKit          3D

  0  0  0  0  0  0  0  0  0  0999 V3000
M  V30 BEGIN CTAB
M  V30 COUNTS 62 65 0 0 0
M  V30 BEGIN ATOM
M  V30 1 C 4.085918 -0.550519 3.287257 0
M  V30 2 O 2.810523 -0.195041 3.662858 0
M  V30 3 C 2.656546 -0.305673 5.041309 0
M  V30 4 C 1.282761 0.074450 5.438346 0
M  V30 5 C 0.826799 1.460051 5.183764 0
M  V30 6 N 0.867184 1.951096 3.857411 0
M  V30 7 C 1.915209 2.567668 3.121191 0
M  V30 8 N 3.091353 2.825704 3.754010 0
M  V30 9 C 4.137467 3.440831 3.188541 0
M  V30 10 N 4.039945 3.842004 1.899826 0
M  V30 11 C 2.887845 3.613453 1.207115 0
M  V30 12 C 2.809625 4.019535 -0.091190 0
M  V30 13 C 1.630175 3.769510 -0.770581 0
M  V30 14 C 0.537868 3.139396 -0.218159 0
M  V30 15 C -0.691650 2.866380 -0.908841 0
M  V30 16 C -1.721144 2.618271 -1.486287 0
M  V30 17 C -2.991771 2.289810 -2.185420 0
M  V30 18 N -3.573844 1.086526 -1.559820 0
M  V30 19 C -2.789597 -0.025666 -1.623597 0
M  V30 20 O -1.646797 -0.042694 -2.186613 0
M  V30 21 C -2.383152 -1.321328 -1.443835 0
M  V30 22 C -3.663846 -1.547353 -0.673538 0
M  V30 23 N -4.183604 -2.668527 -0.040795 0
M  V30 24 C -3.466965 -3.813689 -0.077122 0
M  V30 25 N -2.306465 -3.737827 -0.736305 0
M  V30 26 C -1.307875 -4.758868 -0.972018 0
M  V30 27 C -1.672637 -5.474271 -2.223684 0
M  V30 28 C -2.572337 -6.533516 -2.074658 0
M  V30 29 C -3.054581 -7.347869 -3.099694 0
M  V30 30 C -2.569366 -7.040307 -4.358897 0
M  V30 31 F -3.005441 -7.805193 -5.386002 0
M  V30 32 C -1.678345 -6.009290 -4.583645 0
M  V30 33 F -1.212661 -5.719103 -5.814234 0
M  V30 34 C -1.240914 -5.240272 -3.520288 0
M  V30 35 C -1.990820 -2.575422 -1.269286 0
M  V30 36 O -0.916176 -2.286837 -1.943529 0
M  V30 37 C 0.646901 2.735414 1.113311 0
M  V30 38 C 1.816273 2.981600 1.791131 0
M  V30 39 H 4.822285 0.097550 3.767574 0
M  V30 40 H 4.233143 -0.392900 2.179050 0
M  V30 41 H 4.326923 -1.618621 3.517952 0
M  V30 42 H 2.755114 -1.410499 5.248918 0
M  V30 43 H 3.475222 0.169437 5.600103 0
M  V30 44 H 0.593069 -0.667484 4.926450 0
M  V30 45 H 1.164963 -0.197953 6.531975 0
M  V30 46 H 1.520486 2.138667 5.785396 0
M  V30 47 H -0.157559 1.580853 5.693504 0
M  V30 48 H -0.065733 1.786172 3.440989 0
M  V30 49 H 5.053776 3.629131 3.724133 0
M  V30 50 H 3.588609 4.515274 -0.618782 0
M  V30 51 H 1.501188 4.068009 -1.814003 0
M  V30 52 H -2.779279 2.084123 -3.232878 0
M  V30 53 H -3.636403 3.146412 -2.043236 0
M  V30 54 H -4.406470 0.760730 -1.064857 0
M  V30 55 H -4.619461 -1.001066 -0.316347 0
M  V30 56 H -3.536980 -4.815072 0.272491 0
M  V30 57 H -1.310764 -5.505673 -0.124557 0
M  V30 58 H -0.284452 -4.383687 -1.042356 0
M  V30 59 H -2.959769 -6.776690 -1.093933 0
M  V30 60 H -3.749818 -8.145076 -2.899370 0
M  V30 61 H -0.546945 -4.417459 -3.601682 0
M  V30 62 H -0.184732 2.251146 1.549140 0
M  V30 END ATOM
M  V30 BEGIN BOND
M  V30 1 1 1 2
M  V30 2 1 2 3
M  V30 3 1 3 4
M  V30 4 1 4 5
M  V30 5 1 5 6
M  V30 6 1 6 7
M  V30 7 2 7 8
M  V30 8 1 8 9
M  V30 9 2 9 10
M  V30 10 1 10 11
M  V30 11 2 11 12
M  V30 12 1 12 13
M  V30 13 2 13 14
M  V30 14 1 14 15
M  V30 15 3 15 16
M  V30 16 1 16 17
M  V30 17 1 17 18
M  V30 18 1 18 19
M  V30 19 2 19 20
M  V30 20 1 19 21
M  V30 21 2 21 22
M  V30 22 1 22 23
M  V30 23 2 23 24
M  V30 24 1 24 25
M  V30 25 1 25 26
M  V30 26 1 26 27
M  V30 27 2 27 28
M  V30 28 1 28 29
M  V30 29 2 29 30
M  V30 30 1 30 31
M  V30 31 1 30 32
M  V30 32 1 32 33
M  V30 33 2 32 34
M  V30 34 1 25 35
M  V30 35 2 35 36
M  V30 36 1 14 37
M  V30 37 2 37 38
M  V30 38 1 38 7
M  V30 39 1 38 11
M  V30 40 1 35 21
M  V30 41 1 34 27
M  V30 42 1 1 39
M  V30 43 1 1 40
M  V30 44 1 1 41
M  V30 45 1 3 42
M  V30 46 1 3 43
M  V30 47 1 4 44
M  V30 48 1 4 45
M  V30 49 1 5 46
M  V30 50 1 5 47
M  V30 51 1 6 48
M  V30 52 1 9 49
M  V30 53 1 12 50
M  V30 54 1 13 51
M  V30 55 1 17 52
M  V30 56 1 17 53
M  V30 57 1 18 54
M  V30 58 1 22 55
M  V30 59 1 24 56
M  V30 60 1 26 57
M  V30 61 1 26 58
M  V30 62 1 28 59
M  V30 63 1 29 60
M  V30 64 1 34 61
M  V30 65 1 37 62
M  V30 END BOND
M  V30 END CTAB
M  END
>  <Dataset>  (533) 
ChEMBL_Kinases

>  <Ligand_Instance>  (533) 
nan

>  <PDB_ID>  (533) 
nan

>  <Standardized_SMILES>  (533) 
COCCCNc1ncnc2ccc(C#CCNC(=O)c3cncn(Cc4ccc(F)c(F)c4)c3=O)cc12

>  <Name>  (533) 
nan

>  <Pocket>  (533) 
nan

>  <ATP_Site>  (533) 
nan

>  <Peripheral>  (533) 
nan

>  <Num_H_Atoms_ProtBoundConf>  (533) 
nan

>  <Num_Resolved_Atoms>  (533) 
nan

>  <Num_Not_Resolved_Atoms>  (533) 
nan

$$$$
CHEMBL3640452
     RDKit          3D

  0  0  0  0  0  0  0  0  0  0999 V3000
M  V30 BEGIN CTAB
M  V30 COUNTS 68 72 0 0 0
M  V30 BEGIN ATOM
M  V30 1 C 3.144468 -2.724783 2.236785 0
M  V30 2 C 4.420264 -1.951905 2.374162 0
M  V30 3 C 4.961151 -1.630991 1.023067 0
M  V30 4 N 4.094086 -0.850973 0.175448 0
M  V30 5 C 4.600263 -0.491720 -1.102254 0
M  V30 6 N 5.824775 -0.852583 -1.514187 0
M  V30 7 C 6.319149 -0.521038 -2.718660 0
M  V30 8 N 5.608156 0.212599 -3.619726 0
M  V30 9 C 4.358061 0.612436 -3.267576 0
M  V30 10 C 3.605957 1.356135 -4.151180 0
M  V30 11 C 2.333173 1.779351 -3.828811 0
M  V30 12 C 1.843943 1.428498 -2.587089 0
M  V30 13 C 0.515920 1.881121 -2.275299 0
M  V30 14 C -0.600362 2.251686 -1.995054 0
M  V30 15 C -1.967896 2.679764 -1.647185 0
M  V30 16 N -2.650594 1.657840 -0.839607 0
M  V30 17 C -2.720355 0.461609 -1.579215 0
M  V30 18 O -2.169248 0.635339 -2.721620 0
M  V30 19 C -3.312265 -0.804725 -1.165151 0
M  V30 20 C -3.229353 -1.823838 -2.125700 0
M  V30 21 N -3.736149 -3.042857 -1.873750 0
M  V30 22 C -4.340885 -3.362168 -0.716403 0
M  V30 23 N -4.417871 -2.381916 0.201217 0
M  V30 24 C -5.057475 -2.673056 1.459610 0
M  V30 25 C -6.504362 -2.416517 1.490705 0
M  V30 26 C -7.378659 -3.430253 1.135121 0
M  V30 27 C -8.751564 -3.267016 1.138994 0
M  V30 28 C -9.283226 -2.034076 1.515176 0
M  V30 29 F -10.627021 -1.875566 1.518214 0
M  V30 30 C -8.427011 -1.000927 1.876390 0
M  V30 31 F -8.979585 0.197543 2.240690 0
M  V30 32 C -7.060071 -1.206557 1.858735 0
M  V30 33 C -3.935599 -1.167140 0.002577 0
M  V30 34 O -4.003210 -0.263924 0.840417 0
M  V30 35 C 2.625107 0.683067 -1.728123 0
M  V30 36 C 3.896611 0.247861 -2.023318 0
M  V30 37 C 4.362958 -0.845043 3.328322 0
M  V30 38 C 3.415646 0.155365 3.397043 0
M  V30 39 C 3.398782 1.189592 4.307784 0
M  V30 40 C 4.395830 1.256789 5.238190 0
M  V30 41 C 5.395301 0.317697 5.270265 0
M  V30 42 C 5.326108 -0.677864 4.318840 0
M  V30 43 H 2.634484 -2.832675 3.234011 0
M  V30 44 H 3.293860 -3.740086 1.828269 0
M  V30 45 H 2.401889 -2.216997 1.574639 0
M  V30 46 H 5.175472 -2.685397 2.811297 0
M  V30 47 H 5.067297 -2.621035 0.491450 0
M  V30 48 H 6.001005 -1.234959 1.041542 0
M  V30 49 H 3.162581 -0.608461 0.547068 0
M  V30 50 H 7.331889 -0.902184 -2.878865 0
M  V30 51 H 4.040952 1.603826 -5.115166 0
M  V30 52 H 1.806429 2.358020 -4.573353 0
M  V30 53 H -1.879416 3.592382 -1.041251 0
M  V30 54 H -2.516344 2.909857 -2.568248 0
M  V30 55 H -3.052938 1.680348 0.107243 0
M  V30 56 H -2.757420 -1.677997 -3.107555 0
M  V30 57 H -4.716568 -4.355069 -0.596948 0
M  V30 58 H -4.805751 -3.734931 1.720082 0
M  V30 59 H -4.535945 -2.075344 2.248019 0
M  V30 60 H -7.026001 -4.426267 0.828253 0
M  V30 61 H -9.438828 -4.062806 0.859841 0
M  V30 62 H -6.419059 -0.385737 2.144394 0
M  V30 63 H 2.156024 0.465156 -0.795573 0
M  V30 64 H 2.598777 0.150996 2.690950 0
M  V30 65 H 2.617569 1.936899 4.294535 0
M  V30 66 H 4.420529 2.045244 5.965230 0
M  V30 67 H 6.189860 0.345938 5.989013 0
M  V30 68 H 6.139479 -1.416440 4.368046 0
M  V30 END ATOM
M  V30 BEGIN BOND
M  V30 1 1 1 2
M  V30 2 1 2 3
M  V30 3 1 3 4
M  V30 4 1 4 5
M  V30 5 2 5 6
M  V30 6 1 6 7
M  V30 7 2 7 8
M  V30 8 1 8 9
M  V30 9 2 9 10
M  V30 10 1 10 11
M  V30 11 2 11 12
M  V30 12 1 12 13
M  V30 13 3 13 14
M  V30 14 1 14 15
M  V30 15 1 15 16
M  V30 16 1 16 17
M  V30 17 2 17 18
M  V30 18 1 17 19
M  V30 19 2 19 20
M  V30 20 1 20 21
M  V30 21 2 21 22
M  V30 22 1 22 23
M  V30 23 1 23 24
M  V30 24 1 24 25
M  V30 25 2 25 26
M  V30 26 1 26 27
M  V30 27 2 27 28
M  V30 28 1 28 29
M  V30 29 1 28 30
M  V30 30 1 30 31
M  V30 31 2 30 32
M  V30 32 1 23 33
M  V30 33 2 33 34
M  V30 34 1 12 35
M  V30 35 2 35 36
M  V30 36 1 2 37
M  V30 37 2 37 38
M  V30 38 1 38 39
M  V30 39 2 39 40
M  V30 40 1 40 41
M  V30 41 2 41 42
M  V30 42 1 36 5
M  V30 43 1 42 37
M  V30 44 1 36 9
M  V30 45 1 33 19
M  V30 46 1 32 25
M  V30 47 1 1 43
M  V30 48 1 1 44
M  V30 49 1 1 45
M  V30 50 1 2 46
M  V30 51 1 3 47
M  V30 52 1 3 48
M  V30 53 1 4 49
M  V30 54 1 7 50
M  V30 55 1 10 51
M  V30 56 1 11 52
M  V30 57 1 15 53
M  V30 58 1 15 54
M  V30 59 1 16 55
M  V30 60 1 20 56
M  V30 61 1 22 57
M  V30 62 1 24 58
M  V30 63 1 24 59
M  V30 64 1 26 60
M  V30 65 1 27 61
M  V30 66 1 32 62
M  V30 67 1 35 63
M  V30 68 1 38 64
M  V30 69 1 39 65
M  V30 70 1 40 66
M  V30 71 1 41 67
M  V30 72 1 42 68
M  V30 END BOND
M  V30 END CTAB
M  END
>  <Dataset>  (534) 
ChEMBL_Kinases

>  <Ligand_Instance>  (534) 
nan

>  <PDB_ID>  (534) 
nan

>  <Standardized_SMILES>  (534) 
CC(CNc1ncnc2ccc(C#CCNC(=O)c3cncn(Cc4ccc(F)c(F)c4)c3=O)cc12)c1ccccc1

>  <Name>  (534) 
nan

>  <Pocket>  (534) 
nan

>  <ATP_Site>  (534) 
nan

>  <Peripheral>  (534) 
nan

>  <Num_H_Atoms_ProtBoundConf>  (534) 
nan

>  <Num_Resolved_Atoms>  (534) 
nan

>  <Num_Not_Resolved_Atoms>  (534) 
nan

$$$$
CHEMBL3640453
     RDKit          3D

  0  0  0  0  0  0  0  0  0  0999 V3000
M  V30 BEGIN CTAB
M  V30 COUNTS 64 68 0 0 0
M  V30 BEGIN ATOM
M  V30 1 O 5.324422 -1.981822 5.005426 0
M  V30 2 C 4.462319 -1.265064 4.366613 0
M  V30 3 C 5.076887 -1.211745 3.075160 0
M  V30 4 N 4.395800 -0.541943 2.000797 0
M  V30 5 C 5.171929 -0.497120 0.787772 0
M  V30 6 N 6.432885 -1.013989 0.679726 0
M  V30 7 C 7.143874 -0.947387 -0.455987 0
M  V30 8 N 6.685204 -0.372810 -1.577054 0
M  V30 9 C 5.447804 0.153350 -1.528539 0
M  V30 10 C 4.958523 0.747049 -2.684258 0
M  V30 11 C 3.697429 1.303551 -2.714487 0
M  V30 12 C 2.912378 1.264443 -1.567982 0
M  V30 13 C 1.582379 1.813626 -1.526136 0
M  V30 14 C 0.451643 2.262213 -1.477839 0
M  V30 15 C -0.932502 2.788560 -1.406146 0
M  V30 16 N -1.843872 1.686099 -1.751123 0
M  V30 17 C -3.237368 1.935323 -1.734101 0
M  V30 18 O -3.406469 3.157288 -1.401379 0
M  V30 19 C -4.316827 1.019020 -2.027523 0
M  V30 20 C -5.593793 1.583019 -1.915639 0
M  V30 21 N -6.685996 0.846014 -2.155683 0
M  V30 22 C -6.634342 -0.450530 -2.510631 0
M  V30 23 N -5.403564 -0.992982 -2.617988 0
M  V30 24 C -5.369015 -2.375872 -2.991254 0
M  V30 25 C -5.409324 -3.223100 -1.762434 0
M  V30 26 C -4.211716 -3.625614 -1.192431 0
M  V30 27 C -4.189391 -4.413474 -0.048879 0
M  V30 28 C -5.392476 -4.788792 0.510191 0
M  V30 29 F -5.418098 -5.547095 1.610296 0
M  V30 30 C -6.608915 -4.413342 -0.019741 0
M  V30 31 F -7.785590 -4.795959 0.549824 0
M  V30 32 C -6.581337 -3.624693 -1.165024 0
M  V30 33 C -4.291993 -0.307168 -2.391808 0
M  V30 34 O -3.143789 -0.796348 -2.488310 0
M  V30 35 C 3.468350 0.652526 -0.442637 0
M  V30 36 C 4.701254 0.092878 -0.365152 0
M  V30 37 C 3.342523 -0.869619 5.192768 0
M  V30 38 C 2.299212 -0.073550 4.789559 0
M  V30 39 C 1.205548 0.337076 5.508234 0
M  V30 40 C 1.200142 -0.146168 6.816039 0
M  V30 41 C 2.198634 -0.948441 7.310144 0
M  V30 42 C 3.248703 -1.301180 6.510344 0
M  V30 43 H 5.374684 -2.239111 2.668109 0
M  V30 44 H 6.093629 -0.701931 3.132194 0
M  V30 45 H 3.473584 -0.115622 1.974730 0
M  V30 46 H 8.139184 -1.367250 -0.504386 0
M  V30 47 H 5.586232 0.769108 -3.570179 0
M  V30 48 H 3.301056 1.772548 -3.607512 0
M  V30 49 H -1.180992 3.147010 -0.402111 0
M  V30 50 H -1.018944 3.534115 -2.213483 0
M  V30 51 H -1.520747 0.729343 -2.007842 0
M  V30 52 H -5.744413 2.634010 -1.630638 0
M  V30 53 H -7.585939 -0.929299 -2.673560 0
M  V30 54 H -6.233872 -2.648769 -3.648882 0
M  V30 55 H -4.457190 -2.646071 -3.557289 0
M  V30 56 H -3.230687 -3.375198 -1.568804 0
M  V30 57 H -3.276249 -4.750317 0.430631 0
M  V30 58 H -7.528316 -3.305103 -1.618074 0
M  V30 59 H 2.811667 0.659790 0.396002 0
M  V30 60 H 2.262384 0.328528 3.795987 0
M  V30 61 H 0.412401 0.963371 5.147561 0
M  V30 62 H 0.406516 0.087991 7.503140 0
M  V30 63 H 2.166023 -1.308238 8.331420 0
M  V30 64 H 4.008986 -1.940510 6.963977 0
M  V30 END ATOM
M  V30 BEGIN BOND
M  V30 1 2 1 2
M  V30 2 1 2 3
M  V30 3 1 3 4
M  V30 4 1 4 5
M  V30 5 2 5 6
M  V30 6 1 6 7
M  V30 7 2 7 8
M  V30 8 1 8 9
M  V30 9 2 9 10
M  V30 10 1 10 11
M  V30 11 2 11 12
M  V30 12 1 12 13
M  V30 13 3 13 14
M  V30 14 1 14 15
M  V30 15 1 15 16
M  V30 16 1 16 17
M  V30 17 2 17 18
M  V30 18 1 17 19
M  V30 19 2 19 20
M  V30 20 1 20 21
M  V30 21 2 21 22
M  V30 22 1 22 23
M  V30 23 1 23 24
M  V30 24 1 24 25
M  V30 25 2 25 26
M  V30 26 1 26 27
M  V30 27 2 27 28
M  V30 28 1 28 29
M  V30 29 1 28 30
M  V30 30 1 30 31
M  V30 31 2 30 32
M  V30 32 1 23 33
M  V30 33 2 33 34
M  V30 34 1 12 35
M  V30 35 2 35 36
M  V30 36 1 2 37
M  V30 37 2 37 38
M  V30 38 1 38 39
M  V30 39 2 39 40
M  V30 40 1 40 41
M  V30 41 2 41 42
M  V30 42 1 36 5
M  V30 43 1 42 37
M  V30 44 1 36 9
M  V30 45 1 33 19
M  V30 46 1 32 25
M  V30 47 1 3 43
M  V30 48 1 3 44
M  V30 49 1 4 45
M  V30 50 1 7 46
M  V30 51 1 10 47
M  V30 52 1 11 48
M  V30 53 1 15 49
M  V30 54 1 15 50
M  V30 55 1 16 51
M  V30 56 1 20 52
M  V30 57 1 22 53
M  V30 58 1 24 54
M  V30 59 1 24 55
M  V30 60 1 26 56
M  V30 61 1 27 57
M  V30 62 1 32 58
M  V30 63 1 35 59
M  V30 64 1 38 60
M  V30 65 1 39 61
M  V30 66 1 40 62
M  V30 67 1 41 63
M  V30 68 1 42 64
M  V30 END BOND
M  V30 END CTAB
M  END
>  <Dataset>  (535) 
ChEMBL_Kinases

>  <Ligand_Instance>  (535) 
nan

>  <PDB_ID>  (535) 
nan

>  <Standardized_SMILES>  (535) 
O=C(CNc1ncnc2ccc(C#CCNC(=O)c3cncn(Cc4ccc(F)c(F)c4)c3=O)cc12)c1ccccc1

>  <Name>  (535) 
nan

>  <Pocket>  (535) 
nan

>  <ATP_Site>  (535) 
nan

>  <Peripheral>  (535) 
nan

>  <Num_H_Atoms_ProtBoundConf>  (535) 
nan

>  <Num_Resolved_Atoms>  (535) 
nan

>  <Num_Not_Resolved_Atoms>  (535) 
nan

$$$$
CHEMBL3640454
     RDKit          3D

  0  0  0  0  0  0  0  0  0  0999 V3000
M  V30 BEGIN CTAB
M  V30 COUNTS 69 73 0 0 0
M  V30 BEGIN ATOM
M  V30 1 N 2.869113 -0.279591 1.056140 0
M  V30 2 C 2.198102 -0.604875 -0.188719 0
M  V30 3 O 3.420814 -1.031370 -0.299114 0
M  V30 4 C 1.655020 -1.009718 -1.523312 0 CFG=1
M  V30 5 C 1.722904 -2.527939 -1.520056 0
M  V30 6 C 1.277077 -3.227326 -2.696182 0
M  V30 7 C 2.216916 -3.437264 -3.705058 0
M  V30 8 C 1.922011 -4.116124 -4.899103 0
M  V30 9 C 0.607806 -4.610761 -5.090444 0
M  V30 10 C -0.421558 -4.448384 -4.122421 0
M  V30 11 C 0.091906 -3.777710 -3.075633 0
M  V30 12 N 0.268882 -0.546727 -1.556987 0
M  V30 13 C -0.189851 -0.493427 -2.882425 0
M  V30 14 N 0.510802 -0.740046 -3.975403 0
M  V30 15 C 0.091743 -0.668187 -5.230827 0
M  V30 16 N -1.202426 -0.303305 -5.467925 0
M  V30 17 C -1.992197 -0.029853 -4.362778 0
M  V30 18 C -3.318924 0.312524 -4.721880 0
M  V30 19 C -3.649949 0.447329 -3.452485 0
M  V30 20 C -3.991446 0.583912 -2.212835 0
M  V30 21 C -4.308122 0.711710 -0.930332 0
M  V30 22 C -4.597957 0.803244 0.195125 0
M  V30 23 C -4.942658 0.899572 1.605902 0
M  V30 24 N -3.658031 0.970595 2.371609 0
M  V30 25 C -3.746155 0.968549 3.727968 0
M  V30 26 O -4.850248 0.868669 4.318143 0
M  V30 27 C -2.682788 1.074154 4.675413 0
M  V30 28 C -2.705278 1.062214 6.101410 0
M  V30 29 N -1.605821 1.201847 6.686051 0
M  V30 30 C -0.369667 1.365944 6.243385 0
M  V30 31 N -0.278408 1.384232 4.854389 0
M  V30 32 C 1.136690 1.588396 4.566009 0
M  V30 33 C 1.954580 0.372848 4.538615 0
M  V30 34 C 1.563476 -0.984554 4.861178 0
M  V30 35 C 2.677269 -1.697766 4.711321 0
M  V30 36 C 3.978539 -1.700112 4.396154 0
M  V30 37 F 4.825946 -2.721974 4.355878 0
M  V30 38 C 4.279862 -0.312827 4.089717 0
M  V30 39 F 5.559265 -0.049727 3.738115 0
M  V30 40 C 3.261215 0.600968 4.183337 0
M  V30 41 C -1.426671 1.236257 4.116565 0
M  V30 42 O -0.892321 1.301676 2.998486 0
M  V30 43 C -2.495597 0.182313 -2.061958 0
M  V30 44 C -1.494130 -0.123139 -3.057667 0
M  V30 45 H 1.848325 -0.209952 1.357832 0
M  V30 46 H 2.037472 -0.115227 1.704093 0
M  V30 47 H 2.240250 -0.539990 -2.310733 0
M  V30 48 H 0.996752 -2.816281 -0.682952 0
M  V30 49 H 2.698217 -2.873557 -1.155109 0
M  V30 50 H 3.258072 -3.138328 -3.739991 0
M  V30 51 H 2.621867 -4.315185 -5.721925 0
M  V30 52 H 0.387404 -5.139125 -6.024909 0
M  V30 53 H -1.402295 -4.829500 -4.262122 0
M  V30 54 H -0.673178 -3.615078 -2.288201 0
M  V30 55 H -0.087301 -0.356587 -0.613926 0
M  V30 56 H 0.766968 -0.892054 -6.027349 0
M  V30 57 H -3.823847 0.418791 -5.634082 0
M  V30 58 H -4.835561 0.756003 -3.505436 0
M  V30 59 H -5.583102 1.758731 1.789413 0
M  V30 60 H -5.398833 -0.071306 1.935709 0
M  V30 61 H -2.758282 1.008569 1.871328 0
M  V30 62 H -3.738099 0.923661 6.427404 0
M  V30 63 H 0.316097 1.436771 7.092220 0
M  V30 64 H 1.580238 2.323629 5.271611 0
M  V30 65 H 1.225901 2.152090 3.571760 0
M  V30 66 H 0.538023 -1.065109 5.122320 0
M  V30 67 H 2.311879 -2.750472 4.973883 0
M  V30 68 H 3.655852 1.609454 3.912438 0
M  V30 69 H -1.843713 0.040024 -1.116314 0
M  V30 END ATOM
M  V30 BEGIN BOND
M  V30 1 1 1 2
M  V30 2 2 2 3
M  V30 3 1 2 4
M  V30 4 1 4 5
M  V30 5 1 5 6
M  V30 6 2 6 7
M  V30 7 1 7 8
M  V30 8 2 8 9
M  V30 9 1 9 10
M  V30 10 2 10 11
M  V30 11 1 4 12
M  V30 12 1 12 13
M  V30 13 2 13 14
M  V30 14 1 14 15
M  V30 15 2 15 16
M  V30 16 1 16 17
M  V30 17 2 17 18
M  V30 18 1 18 19
M  V30 19 2 19 20
M  V30 20 1 20 21
M  V30 21 3 21 22
M  V30 22 1 22 23
M  V30 23 1 23 24
M  V30 24 1 24 25
M  V30 25 2 25 26
M  V30 26 1 25 27
M  V30 27 2 27 28
M  V30 28 1 28 29
M  V30 29 2 29 30
M  V30 30 1 30 31
M  V30 31 1 31 32
M  V30 32 1 32 33
M  V30 33 2 33 34
M  V30 34 1 34 35
M  V30 35 2 35 36
M  V30 36 1 36 37
M  V30 37 1 36 38
M  V30 38 1 38 39
M  V30 39 2 38 40
M  V30 40 1 31 41
M  V30 41 2 41 42
M  V30 42 1 20 43
M  V30 43 2 43 44
M  V30 44 1 11 6
M  V30 45 1 44 13
M  V30 46 1 44 17
M  V30 47 1 41 27
M  V30 48 1 40 33
M  V30 49 1 1 45
M  V30 50 1 1 46
M  V30 51 1 4 47 CFG=3
M  V30 52 1 5 48
M  V30 53 1 5 49
M  V30 54 1 7 50
M  V30 55 1 8 51
M  V30 56 1 9 52
M  V30 57 1 10 53
M  V30 58 1 11 54
M  V30 59 1 12 55
M  V30 60 1 15 56
M  V30 61 1 18 57
M  V30 62 1 19 58
M  V30 63 1 23 59
M  V30 64 1 23 60
M  V30 65 1 24 61
M  V30 66 1 28 62
M  V30 67 1 30 63
M  V30 68 1 32 64
M  V30 69 1 32 65
M  V30 70 1 34 66
M  V30 71 1 35 67
M  V30 72 1 40 68
M  V30 73 1 43 69
M  V30 END BOND
M  V30 END CTAB
M  END
>  <Dataset>  (536) 
ChEMBL_Kinases

>  <Ligand_Instance>  (536) 
nan

>  <PDB_ID>  (536) 
nan

>  <Standardized_SMILES>  (536) 
NC(=O)[C@@H](Cc1ccccc1)Nc1ncnc2ccc(C#CCNC(=O)c3cncn(Cc4ccc(F)c(F)c4)c3=O)cc12

>  <Name>  (536) 
nan

>  <Pocket>  (536) 
nan

>  <ATP_Site>  (536) 
nan

>  <Peripheral>  (536) 
nan

>  <Num_H_Atoms_ProtBoundConf>  (536) 
nan

>  <Num_Resolved_Atoms>  (536) 
nan

>  <Num_Not_Resolved_Atoms>  (536) 
nan

$$$$
CHEMBL3640455
     RDKit          3D

  0  0  0  0  0  0  0  0  0  0999 V3000
M  V30 BEGIN CTAB
M  V30 COUNTS 69 73 0 0 0
M  V30 BEGIN ATOM
M  V30 1 C -4.577734 0.866413 -0.227193 0
M  V30 2 O -3.980021 1.593013 -1.281041 0
M  V30 3 C -3.188051 1.045226 -2.257936 0
M  V30 4 C -2.818177 -0.293788 -2.409720 0
M  V30 5 C -2.006296 -0.642579 -3.472393 0
M  V30 6 C -1.530055 0.255917 -4.405498 0
M  V30 7 C -0.657735 -0.159100 -5.522938 0
M  V30 8 C 0.800534 -0.003555 -5.238938 0
M  V30 9 N 1.201117 -0.770148 -4.115012 0
M  V30 10 C 2.605153 -0.703889 -3.781923 0
M  V30 11 N 3.456913 0.033963 -4.512819 0
M  V30 12 C 4.768392 0.126747 -4.252670 0
M  V30 13 N 5.338180 -0.537114 -3.204529 0
M  V30 14 C 4.513269 -1.296109 -2.437032 0
M  V30 15 C 5.127636 -1.942657 -1.386646 0
M  V30 16 C 4.308995 -2.720252 -0.579487 0
M  V30 17 C 2.963082 -2.805847 -0.858921 0
M  V30 18 C 2.204421 -3.629398 0.057220 0
M  V30 19 C 1.572842 -4.301222 0.836034 0
M  V30 20 C 0.805495 -5.115400 1.814542 0
M  V30 21 N 0.243995 -4.212806 2.837080 0
M  V30 22 C -0.621715 -3.274582 2.243540 0
M  V30 23 O -0.651078 -3.508134 0.990278 0
M  V30 24 C -1.372675 -2.209987 2.894799 0
M  V30 25 C -2.156663 -1.460051 2.006523 0
M  V30 26 N -2.915046 -0.444260 2.451644 0
M  V30 27 C -2.968959 -0.090015 3.746357 0
M  V30 28 N -2.213856 -0.818069 4.573787 0
M  V30 29 C -2.246089 -0.435709 5.982713 0
M  V30 30 C -1.160938 0.602702 6.110067 0
M  V30 31 C -1.552459 1.926770 5.894315 0
M  V30 32 C -0.706143 3.011892 5.964054 0
M  V30 33 C 0.624369 2.780722 6.268148 0
M  V30 34 F 1.489203 3.822796 6.344069 0
M  V30 35 C 1.015205 1.483451 6.481027 0
M  V30 36 F 2.307928 1.224158 6.781286 0
M  V30 37 C 0.163446 0.404398 6.409973 0
M  V30 38 C -1.440898 -1.834693 4.210393 0
M  V30 39 O -0.741580 -2.512871 4.970333 0
M  V30 40 C 2.351565 -2.158366 -1.911008 0
M  V30 41 C 3.176894 -1.385480 -2.709056 0
M  V30 42 C -1.893118 1.597632 -4.263236 0
M  V30 43 C -2.709782 1.937528 -3.191696 0
M  V30 44 H -4.078474 -0.093563 -0.060896 0
M  V30 45 H -4.506048 1.489545 0.686532 0
M  V30 46 H -5.677223 0.713272 -0.444082 0
M  V30 47 H -3.200195 -0.959319 -1.676834 0
M  V30 48 H -1.799547 -1.691595 -3.491762 0
M  V30 49 H -0.915758 0.408903 -6.450503 0
M  V30 50 H -0.925712 -1.226225 -5.781955 0
M  V30 51 H 0.967873 1.081256 -4.967659 0
M  V30 52 H 1.428481 -0.168724 -6.140126 0
M  V30 53 H 0.503855 -1.323380 -3.601825 0
M  V30 54 H 5.401967 0.727665 -4.865080 0
M  V30 55 H 6.181933 -1.880004 -1.162682 0
M  V30 56 H 4.787859 -3.231574 0.251544 0
M  V30 57 H 1.526584 -5.796620 2.286077 0
M  V30 58 H -0.062814 -5.607805 1.339474 0
M  V30 59 H 0.382854 -4.167666 3.877196 0
M  V30 60 H -2.238783 -1.596534 0.938428 0
M  V30 61 H -3.598219 0.736173 4.054836 0
M  V30 62 H -1.974212 -1.333448 6.592398 0
M  V30 63 H -3.206511 0.002546 6.244558 0
M  V30 64 H -2.577653 2.212770 5.649243 0
M  V30 65 H -0.994744 4.027626 5.803225 0
M  V30 66 H 0.441487 -0.635359 6.574927 0
M  V30 67 H 1.293021 -2.279855 -2.061327 0
M  V30 68 H -1.536634 2.327891 -4.979527 0
M  V30 69 H -2.944114 3.010999 -3.158344 0
M  V30 END ATOM
M  V30 BEGIN BOND
M  V30 1 1 1 2
M  V30 2 1 2 3
M  V30 3 2 3 4
M  V30 4 1 4 5
M  V30 5 2 5 6
M  V30 6 1 6 7
M  V30 7 1 7 8
M  V30 8 1 8 9
M  V30 9 1 9 10
M  V30 10 2 10 11
M  V30 11 1 11 12
M  V30 12 2 12 13
M  V30 13 1 13 14
M  V30 14 2 14 15
M  V30 15 1 15 16
M  V30 16 2 16 17
M  V30 17 1 17 18
M  V30 18 3 18 19
M  V30 19 1 19 20
M  V30 20 1 20 21
M  V30 21 1 21 22
M  V30 22 2 22 23
M  V30 23 1 22 24
M  V30 24 2 24 25
M  V30 25 1 25 26
M  V30 26 2 26 27
M  V30 27 1 27 28
M  V30 28 1 28 29
M  V30 29 1 29 30
M  V30 30 2 30 31
M  V30 31 1 31 32
M  V30 32 2 32 33
M  V30 33 1 33 34
M  V30 34 1 33 35
M  V30 35 1 35 36
M  V30 36 2 35 37
M  V30 37 1 28 38
M  V30 38 2 38 39
M  V30 39 1 17 40
M  V30 40 2 40 41
M  V30 41 1 6 42
M  V30 42 2 42 43
M  V30 43 1 43 3
M  V30 44 1 41 10
M  V30 45 1 41 14
M  V30 46 1 38 24
M  V30 47 1 37 30
M  V30 48 1 1 44
M  V30 49 1 1 45
M  V30 50 1 1 46
M  V30 51 1 4 47
M  V30 52 1 5 48
M  V30 53 1 7 49
M  V30 54 1 7 50
M  V30 55 1 8 51
M  V30 56 1 8 52
M  V30 57 1 9 53
M  V30 58 1 12 54
M  V30 59 1 15 55
M  V30 60 1 16 56
M  V30 61 1 20 57
M  V30 62 1 20 58
M  V30 63 1 21 59
M  V30 64 1 25 60
M  V30 65 1 27 61
M  V30 66 1 29 62
M  V30 67 1 29 63
M  V30 68 1 31 64
M  V30 69 1 32 65
M  V30 70 1 37 66
M  V30 71 1 40 67
M  V30 72 1 42 68
M  V30 73 1 43 69
M  V30 END BOND
M  V30 END CTAB
M  END
>  <Dataset>  (537) 
ChEMBL_Kinases

>  <Ligand_Instance>  (537) 
nan

>  <PDB_ID>  (537) 
nan

>  <Standardized_SMILES>  (537) 
COc1ccc(CCNc2ncnc3ccc(C#CCNC(=O)c4cncn(Cc5ccc(F)c(F)c5)c4=O)cc23)cc1

>  <Name>  (537) 
nan

>  <Pocket>  (537) 
nan

>  <ATP_Site>  (537) 
nan

>  <Peripheral>  (537) 
nan

>  <Num_H_Atoms_ProtBoundConf>  (537) 
nan

>  <Num_Resolved_Atoms>  (537) 
nan

>  <Num_Not_Resolved_Atoms>  (537) 
nan

$$$$
CHEMBL3640456
     RDKit          3D

  0  0  0  0  0  0  0  0  0  0999 V3000
M  V30 BEGIN CTAB
M  V30 COUNTS 64 67 0 0 0
M  V30 BEGIN ATOM
M  V30 1 C 3.009577 0.669345 2.654121 0
M  V30 2 N 2.986005 -0.259380 1.509475 0
M  V30 3 C 3.487586 0.293470 0.270350 0
M  V30 4 N 4.634882 -0.121446 -0.336653 0
M  V30 5 C 5.064364 0.443775 -1.480590 0
M  V30 6 N 4.387430 1.446157 -2.087333 0
M  V30 7 C 3.254675 1.920444 -1.572318 0
M  V30 8 C 2.521454 2.932460 -2.150701 0
M  V30 9 C 1.342143 3.417128 -1.618980 0
M  V30 10 C 0.898072 2.856940 -0.468842 0
M  V30 11 C -0.293190 3.181083 0.258336 0
M  V30 12 C -1.312836 3.436550 0.885321 0
M  V30 13 C -2.556826 3.721649 1.655882 0
M  V30 14 N -2.944855 2.455239 2.331784 0
M  V30 15 C -3.222325 1.465256 1.426621 0
M  V30 16 O -3.185290 1.622652 0.158440 0
M  V30 17 C -3.573752 0.194147 0.943016 0
M  V30 18 C -3.400310 -0.291689 2.357210 0
M  V30 19 N -3.554450 -1.572812 2.900569 0
M  V30 20 C -3.919637 -2.586421 2.059689 0
M  V30 21 N -4.100454 -2.250345 0.775997 0
M  V30 22 C -4.496876 -3.056561 -0.340028 0
M  V30 23 C -3.365560 -3.619347 -1.089966 0
M  V30 24 C -2.607630 -4.726679 -0.788776 0
M  V30 25 C -1.581718 -5.148207 -1.601343 0
M  V30 26 C -1.244520 -4.479657 -2.783267 0
M  V30 27 F -0.222512 -4.948642 -3.536594 0
M  V30 28 C -2.008411 -3.376062 -3.073621 0
M  V30 29 F -1.602713 -2.788259 -4.245347 0
M  V30 30 C -3.047401 -2.944775 -2.255602 0
M  V30 31 C -3.900214 -0.986727 0.494245 0
M  V30 32 O -4.017455 -0.428929 -0.680481 0
M  V30 33 C 1.630122 1.824626 0.138002 0
M  V30 34 C 2.824186 1.329808 -0.394854 0
M  V30 35 C 2.478127 -1.586085 1.693765 0
M  V30 36 C 2.617829 -2.446633 0.455279 0
M  V30 37 C 3.168000 -2.293370 2.839950 0
M  V30 38 C 1.000620 -1.508641 2.096157 0
M  V30 39 H 2.151195 0.577041 3.311695 0
M  V30 40 H 3.280037 1.690766 2.361689 0
M  V30 41 H 3.904450 0.309104 3.250148 0
M  V30 42 H 5.984253 0.061118 -1.901281 0
M  V30 43 H 2.858850 3.395727 -3.068789 0
M  V30 44 H 0.712708 4.195479 -2.000973 0
M  V30 45 H -2.358486 4.419405 2.479950 0
M  V30 46 H -3.300734 4.065791 0.956018 0
M  V30 47 H -3.109499 1.965195 3.224438 0
M  V30 48 H -3.128108 0.033864 3.417087 0
M  V30 49 H -4.117414 -3.635488 2.126900 0
M  V30 50 H -5.043952 -3.937713 0.117471 0
M  V30 51 H -5.223824 -2.550191 -1.015904 0
M  V30 52 H -2.877455 -5.235765 0.133627 0
M  V30 53 H -1.013185 -6.038434 -1.311209 0
M  V30 54 H -3.477758 -2.076442 -2.718428 0
M  V30 55 H 1.319444 1.340277 1.050788 0
M  V30 56 H 1.867669 -2.100131 -0.279414 0
M  V30 57 H 2.292082 -3.484203 0.733401 0
M  V30 58 H 3.619901 -2.416722 0.028504 0
M  V30 59 H 2.618552 -3.248258 3.025175 0
M  V30 60 H 3.022572 -1.717051 3.799127 0
M  V30 61 H 4.236979 -2.465456 2.650269 0
M  V30 62 H 0.719474 -2.327672 2.789524 0
M  V30 63 H 0.424593 -1.692207 1.145305 0
M  V30 64 H 0.701987 -0.503475 2.429681 0
M  V30 END ATOM
M  V30 BEGIN BOND
M  V30 1 1 1 2
M  V30 2 1 2 3
M  V30 3 2 3 4
M  V30 4 1 4 5
M  V30 5 2 5 6
M  V30 6 1 6 7
M  V30 7 2 7 8
M  V30 8 1 8 9
M  V30 9 2 9 10
M  V30 10 1 10 11
M  V30 11 3 11 12
M  V30 12 1 12 13
M  V30 13 1 13 14
M  V30 14 1 14 15
M  V30 15 2 15 16
M  V30 16 1 15 17
M  V30 17 2 17 18
M  V30 18 1 18 19
M  V30 19 2 19 20
M  V30 20 1 20 21
M  V30 21 1 21 22
M  V30 22 1 22 23
M  V30 23 2 23 24
M  V30 24 1 24 25
M  V30 25 2 25 26
M  V30 26 1 26 27
M  V30 27 1 26 28
M  V30 28 1 28 29
M  V30 29 2 28 30
M  V30 30 1 21 31
M  V30 31 2 31 32
M  V30 32 1 10 33
M  V30 33 2 33 34
M  V30 34 1 2 35
M  V30 35 1 35 36
M  V30 36 1 35 37
M  V30 37 1 35 38
M  V30 38 1 34 3
M  V30 39 1 34 7
M  V30 40 1 31 17
M  V30 41 1 30 23
M  V30 42 1 1 39
M  V30 43 1 1 40
M  V30 44 1 1 41
M  V30 45 1 5 42
M  V30 46 1 8 43
M  V30 47 1 9 44
M  V30 48 1 13 45
M  V30 49 1 13 46
M  V30 50 1 14 47
M  V30 51 1 18 48
M  V30 52 1 20 49
M  V30 53 1 22 50
M  V30 54 1 22 51
M  V30 55 1 24 52
M  V30 56 1 25 53
M  V30 57 1 30 54
M  V30 58 1 33 55
M  V30 59 1 36 56
M  V30 60 1 36 57
M  V30 61 1 36 58
M  V30 62 1 37 59
M  V30 63 1 37 60
M  V30 64 1 37 61
M  V30 65 1 38 62
M  V30 66 1 38 63
M  V30 67 1 38 64
M  V30 END BOND
M  V30 END CTAB
M  END
>  <Dataset>  (538) 
ChEMBL_Kinases

>  <Ligand_Instance>  (538) 
nan

>  <PDB_ID>  (538) 
nan

>  <Standardized_SMILES>  (538) 
CN(c1ncnc2ccc(C#CCNC(=O)c3cncn(Cc4ccc(F)c(F)c4)c3=O)cc12)C(C)(C)C

>  <Name>  (538) 
nan

>  <Pocket>  (538) 
nan

>  <ATP_Site>  (538) 
nan

>  <Peripheral>  (538) 
nan

>  <Num_H_Atoms_ProtBoundConf>  (538) 
nan

>  <Num_Resolved_Atoms>  (538) 
nan

>  <Num_Not_Resolved_Atoms>  (538) 
nan

$$$$
CHEMBL3640448
     RDKit          3D

  0  0  0  0  0  0  0  0  0  0999 V3000
M  V30 BEGIN CTAB
M  V30 COUNTS 65 69 0 0 0
M  V30 BEGIN ATOM
M  V30 1 O 0.764169 -4.904491 4.911107 0
M  V30 2 C 0.077124 -3.868174 4.613580 0
M  V30 3 N 0.901357 -2.973013 3.884089 0
M  V30 4 C 2.293755 -3.263074 3.568001 0
M  V30 5 C 2.885240 -2.144729 2.801728 0
M  V30 6 C 3.352832 -1.217908 2.181148 0
M  V30 7 C 3.888300 -0.103764 1.432303 0
M  V30 8 C 4.856977 0.712337 2.005129 0
M  V30 9 C 5.346028 1.765283 1.263928 0
M  V30 10 C 4.885430 1.998914 -0.008067 0
M  V30 11 N 5.383194 3.047347 -0.723867 0
M  V30 12 C 4.899442 3.245104 -1.981414 0
M  V30 13 N 3.963151 2.459918 -2.540264 0
M  V30 14 C 3.430096 1.412558 -1.895182 0
M  V30 15 N 2.440105 0.583822 -2.490896 0
M  V30 16 C 2.027562 0.927443 -3.843721 0
M  V30 17 C 0.981462 -0.060968 -4.303342 0
M  V30 18 C 0.485603 0.217612 -5.709745 0
M  V30 19 N -0.114221 1.534887 -5.801834 0
M  V30 20 C 0.605024 2.648373 -6.120897 0
M  V30 21 C -0.380622 3.635332 -6.083430 0
M  V30 22 N -1.602605 3.171810 -5.768632 0
M  V30 23 C -1.410056 1.840337 -5.594785 0
M  V30 24 C 3.928642 1.224035 -0.623794 0
M  V30 25 C 3.458064 0.178713 0.141348 0
M  V30 26 C -1.304961 -3.680736 4.978950 0
M  V30 27 C -1.862704 -4.737873 5.702918 0
M  V30 28 N -3.124299 -4.720659 6.115462 0
M  V30 29 C -3.901293 -3.662184 5.836347 0
M  V30 30 N -3.437633 -2.610054 5.146292 0
M  V30 31 C -4.226001 -1.464348 4.826394 0
M  V30 32 C -4.957341 -1.522306 3.561219 0
M  V30 33 C -6.234305 -2.052946 3.609954 0
M  V30 34 C -7.051142 -2.170909 2.479841 0
M  V30 35 C -6.493186 -1.715329 1.284778 0
M  V30 36 F -7.293452 -1.831529 0.179090 0
M  V30 37 C -5.227200 -1.179355 1.184752 0
M  V30 38 F -4.763632 -0.760014 -0.020899 0
M  V30 39 C -4.473888 -1.092689 2.343438 0
M  V30 40 C -2.181109 -2.644153 4.744154 0
M  V30 41 O -1.687244 -1.706527 4.102502 0
M  V30 42 H 0.498695 -2.068847 3.558375 0
M  V30 43 H 2.900489 -3.398605 4.479534 0
M  V30 44 H 2.421659 -4.172409 2.955141 0
M  V30 45 H 5.235332 0.551316 2.999912 0
M  V30 46 H 6.109014 2.455893 1.638590 0
M  V30 47 H 5.226970 4.052163 -2.640452 0
M  V30 48 H 2.000672 -0.227131 -2.044437 0
M  V30 49 H 2.875753 0.882291 -4.554176 0
M  V30 50 H 1.553783 1.939066 -3.894263 0
M  V30 51 H 0.086147 0.138332 -3.645532 0
M  V30 52 H 1.247934 -1.110743 -4.156753 0
M  V30 53 H -0.236493 -0.588181 -5.951781 0
M  V30 54 H 1.308013 0.151347 -6.422886 0
M  V30 55 H 1.633307 2.789699 -6.346696 0
M  V30 56 H -0.229901 4.704533 -6.283492 0
M  V30 57 H -2.162381 1.084118 -5.326114 0
M  V30 58 H 2.718232 -0.493518 -0.216835 0
M  V30 59 H -1.325186 -5.647952 5.986281 0
M  V30 60 H -4.950175 -3.612823 6.161288 0
M  V30 61 H -4.911962 -1.297464 5.708116 0
M  V30 62 H -3.549121 -0.561672 4.872147 0
M  V30 63 H -6.724730 -2.426779 4.521538 0
M  V30 64 H -8.045859 -2.585327 2.523319 0
M  V30 65 H -3.487919 -0.681208 2.296282 0
M  V30 END ATOM
M  V30 BEGIN BOND
M  V30 1 2 1 2
M  V30 2 1 2 3
M  V30 3 1 3 4
M  V30 4 1 4 5
M  V30 5 3 5 6
M  V30 6 1 6 7
M  V30 7 2 7 8
M  V30 8 1 8 9
M  V30 9 2 9 10
M  V30 10 1 10 11
M  V30 11 2 11 12
M  V30 12 1 12 13
M  V30 13 2 13 14
M  V30 14 1 14 15
M  V30 15 1 15 16
M  V30 16 1 16 17
M  V30 17 1 17 18
M  V30 18 1 18 19
M  V30 19 1 19 20
M  V30 20 2 20 21
M  V30 21 1 21 22
M  V30 22 2 22 23
M  V30 23 1 14 24
M  V30 24 2 24 25
M  V30 25 1 2 26
M  V30 26 2 26 27
M  V30 27 1 27 28
M  V30 28 2 28 29
M  V30 29 1 29 30
M  V30 30 1 30 31
M  V30 31 1 31 32
M  V30 32 2 32 33
M  V30 33 1 33 34
M  V30 34 2 34 35
M  V30 35 1 35 36
M  V30 36 1 35 37
M  V30 37 1 37 38
M  V30 38 2 37 39
M  V30 39 1 30 40
M  V30 40 2 40 41
M  V30 41 1 25 7
M  V30 42 1 40 26
M  V30 43 1 24 10
M  V30 44 1 39 32
M  V30 45 1 23 19
M  V30 46 1 3 42
M  V30 47 1 4 43
M  V30 48 1 4 44
M  V30 49 1 8 45
M  V30 50 1 9 46
M  V30 51 1 12 47
M  V30 52 1 15 48
M  V30 53 1 16 49
M  V30 54 1 16 50
M  V30 55 1 17 51
M  V30 56 1 17 52
M  V30 57 1 18 53
M  V30 58 1 18 54
M  V30 59 1 20 55
M  V30 60 1 21 56
M  V30 61 1 23 57
M  V30 62 1 25 58
M  V30 63 1 27 59
M  V30 64 1 29 60
M  V30 65 1 31 61
M  V30 66 1 31 62
M  V30 67 1 33 63
M  V30 68 1 34 64
M  V30 69 1 39 65
M  V30 END BOND
M  V30 END CTAB
M  END
>  <Dataset>  (539) 
ChEMBL_Kinases

>  <Ligand_Instance>  (539) 
nan

>  <PDB_ID>  (539) 
nan

>  <Standardized_SMILES>  (539) 
O=C(NCC#Cc1ccc2ncnc(NCCCn3ccnc3)c2c1)c1cncn(Cc2ccc(F)c(F)c2)c1=O

>  <Name>  (539) 
nan

>  <Pocket>  (539) 
nan

>  <ATP_Site>  (539) 
nan

>  <Peripheral>  (539) 
nan

>  <Num_H_Atoms_ProtBoundConf>  (539) 
nan

>  <Num_Resolved_Atoms>  (539) 
nan

>  <Num_Not_Resolved_Atoms>  (539) 
nan

$$$$
CHEMBL3640505
     RDKit          3D

  0  0  0  0  0  0  0  0  0  0999 V3000
M  V30 BEGIN CTAB
M  V30 COUNTS 64 67 0 0 0
M  V30 BEGIN ATOM
M  V30 1 C 6.533908 -2.057817 4.914189 0
M  V30 2 C 5.775265 -1.546994 6.115095 0
M  V30 3 N 4.363504 -1.409376 5.725445 0
M  V30 4 C 3.503620 -2.559046 5.909684 0
M  V30 5 C 2.851098 -2.523127 7.273265 0
M  V30 6 C 4.061124 -0.125683 5.202200 0
M  V30 7 O 5.040004 0.665651 5.163519 0
M  V30 8 C 2.790112 0.387468 4.712309 0
M  V30 9 C 1.723169 0.511441 5.578696 0
M  V30 10 N 0.573465 0.991177 5.039544 0
M  V30 11 C 0.503595 1.317407 3.742917 0
M  V30 12 C -0.693856 1.792573 3.259056 0
M  V30 13 C -0.832086 2.141009 1.934078 0
M  V30 14 C 0.265686 2.006765 1.068734 0
M  V30 15 C -0.029324 2.391993 -0.286164 0
M  V30 16 C -0.296200 2.712728 -1.413753 0
M  V30 17 C -0.653674 3.104994 -2.812065 0
M  V30 18 N -1.227262 1.973821 -3.509540 0
M  V30 19 C -1.791537 1.800948 -4.792827 0
M  V30 20 O -1.774788 2.912893 -5.420401 0
M  V30 21 C -2.345398 0.641970 -5.438430 0
M  V30 22 C -2.965615 0.794819 -6.652836 0
M  V30 23 N -3.582473 -0.243000 -7.231966 0
M  V30 24 C -3.607421 -1.461207 -6.633690 0
M  V30 25 N -2.988211 -1.598543 -5.433262 0
M  V30 26 C -3.004969 -2.918091 -4.788083 0
M  V30 27 C -4.158241 -3.091145 -3.874870 0
M  V30 28 C -5.412619 -3.486540 -4.273430 0
M  V30 29 C -6.462424 -3.638618 -3.369035 0
M  V30 30 C -6.243757 -3.384760 -2.020647 0
M  V30 31 F -7.242730 -3.518458 -1.083230 0
M  V30 32 C -4.981726 -2.977233 -1.550165 0
M  V30 33 F -4.837160 -2.743110 -0.231534 0
M  V30 34 C -3.993836 -2.853184 -2.529681 0
M  V30 35 C -2.343374 -0.592357 -4.790061 0
M  V30 36 O -1.815572 -0.834462 -3.709221 0
M  V30 37 C 1.471692 1.536360 1.522088 0
M  V30 38 C 1.562963 1.200923 2.854932 0
M  V30 39 C 2.736795 0.718457 3.373042 0
M  V30 40 H 7.297337 -1.290681 4.637294 0
M  V30 41 H 6.996856 -3.048780 5.141627 0
M  V30 42 H 5.850609 -2.221261 4.055479 0
M  V30 43 H 5.869784 -2.305610 6.924406 0
M  V30 44 H 6.181368 -0.586150 6.503795 0
M  V30 45 H 4.124586 -3.495212 5.881619 0
M  V30 46 H 2.759242 -2.685200 5.096378 0
M  V30 47 H 3.020510 -1.567045 7.812071 0
M  V30 48 H 3.219998 -3.315372 7.942067 0
M  V30 49 H 1.762553 -2.750281 7.138149 0
M  V30 50 H 1.786081 0.250968 6.601957 0
M  V30 51 H -1.537636 1.889397 3.946564 0
M  V30 52 H -1.819222 2.507697 1.646235 0
M  V30 53 H -1.404617 3.916328 -2.783213 0
M  V30 54 H 0.292735 3.402054 -3.313124 0
M  V30 55 H -1.214490 1.113686 -2.926479 0
M  V30 56 H -2.991021 1.743125 -7.197033 0
M  V30 57 H -4.108570 -2.301783 -7.096165 0
M  V30 58 H -2.041573 -3.059488 -4.292662 0
M  V30 59 H -3.087667 -3.730652 -5.549816 0
M  V30 60 H -5.554624 -3.678630 -5.336199 0
M  V30 61 H -7.444173 -3.953662 -3.698680 0
M  V30 62 H -3.064080 -2.540967 -2.046377 0
M  V30 63 H 2.274883 1.457509 0.809725 0
M  V30 64 H 3.569850 0.623991 2.692192 0
M  V30 END ATOM
M  V30 BEGIN BOND
M  V30 1 1 1 2
M  V30 2 1 2 3
M  V30 3 1 3 4
M  V30 4 1 4 5
M  V30 5 1 3 6
M  V30 6 2 6 7
M  V30 7 1 6 8
M  V30 8 2 8 9
M  V30 9 1 9 10
M  V30 10 2 10 11
M  V30 11 1 11 12
M  V30 12 2 12 13
M  V30 13 1 13 14
M  V30 14 1 14 15
M  V30 15 3 15 16
M  V30 16 1 16 17
M  V30 17 1 17 18
M  V30 18 1 18 19
M  V30 19 2 19 20
M  V30 20 1 19 21
M  V30 21 2 21 22
M  V30 22 1 22 23
M  V30 23 2 23 24
M  V30 24 1 24 25
M  V30 25 1 25 26
M  V30 26 1 26 27
M  V30 27 2 27 28
M  V30 28 1 28 29
M  V30 29 2 29 30
M  V30 30 1 30 31
M  V30 31 1 30 32
M  V30 32 1 32 33
M  V30 33 2 32 34
M  V30 34 1 25 35
M  V30 35 2 35 36
M  V30 36 2 14 37
M  V30 37 1 37 38
M  V30 38 2 38 39
M  V30 39 1 39 8
M  V30 40 1 38 11
M  V30 41 1 35 21
M  V30 42 1 34 27
M  V30 43 1 1 40
M  V30 44 1 1 41
M  V30 45 1 1 42
M  V30 46 1 2 43
M  V30 47 1 2 44
M  V30 48 1 4 45
M  V30 49 1 4 46
M  V30 50 1 5 47
M  V30 51 1 5 48
M  V30 52 1 5 49
M  V30 53 1 9 50
M  V30 54 1 12 51
M  V30 55 1 13 52
M  V30 56 1 17 53
M  V30 57 1 17 54
M  V30 58 1 18 55
M  V30 59 1 22 56
M  V30 60 1 24 57
M  V30 61 1 26 58
M  V30 62 1 26 59
M  V30 63 1 28 60
M  V30 64 1 29 61
M  V30 65 1 34 62
M  V30 66 1 37 63
M  V30 67 1 39 64
M  V30 END BOND
M  V30 END CTAB
M  END
>  <Dataset>  (540) 
ChEMBL_Kinases

>  <Ligand_Instance>  (540) 
nan

>  <PDB_ID>  (540) 
nan

>  <Standardized_SMILES>  (540) 
CCN(CC)C(=O)c1cnc2ccc(C#CCNC(=O)c3cncn(Cc4ccc(F)c(F)c4)c3=O)cc2c1

>  <Name>  (540) 
nan

>  <Pocket>  (540) 
nan

>  <ATP_Site>  (540) 
nan

>  <Peripheral>  (540) 
nan

>  <Num_H_Atoms_ProtBoundConf>  (540) 
nan

>  <Num_Resolved_Atoms>  (540) 
nan

>  <Num_Not_Resolved_Atoms>  (540) 
nan

$$$$
CHEMBL3640504
     RDKit          3D

  0  0  0  0  0  0  0  0  0  0999 V3000
M  V30 BEGIN CTAB
M  V30 COUNTS 69 72 0 0 0
M  V30 BEGIN ATOM
M  V30 1 C 3.187317 0.444262 -0.200397 0
M  V30 2 N 3.604130 -0.668740 -1.035024 0
M  V30 3 C 3.418127 -1.958868 -0.431646 0
M  V30 4 C 3.067986 -0.550622 -2.376226 0
M  V30 5 C 3.712080 0.610018 -3.123800 0
M  V30 6 C 3.054550 0.671280 -4.512060 0
M  V30 7 N 1.631099 0.905159 -4.188594 0
M  V30 8 C 1.508777 2.161579 -3.555238 0
M  V30 9 O 2.065517 3.178083 -3.152071 0
M  V30 10 C 0.157243 2.595738 -3.110516 0
M  V30 11 C -0.463605 3.808958 -3.034239 0
M  V30 12 N -1.716372 4.119584 -2.570022 0
M  V30 13 C -2.485113 3.060381 -2.105415 0
M  V30 14 C -3.746123 3.285825 -1.625141 0
M  V30 15 C -4.501985 2.224438 -1.160978 0
M  V30 16 C -3.959750 0.957071 -1.195845 0
M  V30 17 C -4.564663 -0.294027 -0.763833 0
M  V30 18 C -5.041099 -1.327262 -0.406998 0
M  V30 19 C -5.610496 -2.607121 0.012739 0
M  V30 20 N -4.530406 -3.403322 0.601175 0
M  V30 21 C -3.918440 -2.944373 1.726600 0
M  V30 22 O -4.217876 -1.855836 2.318970 0
M  V30 23 C -3.062464 -2.938759 2.746159 0
M  V30 24 C -2.457294 -4.223436 2.243043 0
M  V30 25 N -1.417364 -5.055817 2.681239 0
M  V30 26 C -0.767152 -4.645716 3.841599 0
M  V30 27 N -1.191454 -3.517320 4.410523 0
M  V30 28 C -0.699457 -2.836646 5.580636 0
M  V30 29 C 0.419590 -1.968837 5.150830 0
M  V30 30 C 0.441499 -0.706885 4.644679 0
M  V30 31 C 1.586109 -0.035916 4.303612 0
M  V30 32 C 2.831268 -0.646897 4.468786 0
M  V30 33 F 3.927385 0.062101 4.112709 0
M  V30 34 C 2.882280 -1.946456 4.985524 0
M  V30 35 F 4.136213 -2.420697 5.099430 0
M  V30 36 C 1.685544 -2.536952 5.298172 0
M  V30 37 C -2.185118 -2.945087 3.780611 0
M  V30 38 O -2.742251 -1.836917 4.186218 0
M  V30 39 C -2.660200 0.806772 -1.702588 0
M  V30 40 C -1.859977 1.861211 -2.184020 0
M  V30 41 C -0.624376 1.515408 -2.635871 0
M  V30 42 H 3.363759 0.175755 0.849911 0
M  V30 43 H 2.102521 0.657060 -0.339581 0
M  V30 44 H 3.815497 1.311462 -0.478399 0
M  V30 45 H 4.307402 -2.581362 -0.717446 0
M  V30 46 H 2.458690 -2.436329 -0.735022 0
M  V30 47 H 3.476497 -1.861769 0.676343 0
M  V30 48 H 1.958623 -0.419935 -2.369554 0
M  V30 49 H 3.345126 -1.473460 -2.922847 0
M  V30 50 H 4.791461 0.363907 -3.244112 0
M  V30 51 H 3.579787 1.580410 -2.651750 0
M  V30 52 H 3.466530 1.556818 -5.021418 0
M  V30 53 H 3.194399 -0.243707 -5.069549 0
M  V30 54 H 0.756642 0.344235 -4.340991 0
M  V30 55 H 0.204876 4.588399 -3.412227 0
M  V30 56 H -4.192702 4.264493 -1.591601 0
M  V30 57 H -5.490958 2.244952 -0.763784 0
M  V30 58 H -6.382465 -2.465940 0.787059 0
M  V30 59 H -5.988178 -3.171955 -0.839244 0
M  V30 60 H -4.054754 -4.299496 0.390039 0
M  V30 61 H -2.559168 -4.989607 1.385629 0
M  V30 62 H 0.033512 -5.022983 4.432936 0
M  V30 63 H -0.350884 -3.599129 6.337573 0
M  V30 64 H -1.455003 -2.199683 6.051032 0
M  V30 65 H -0.539209 -0.260641 4.529787 0
M  V30 66 H 1.489363 0.979212 3.903473 0
M  V30 67 H 1.854925 -3.540023 5.696283 0
M  V30 68 H -2.205375 -0.195517 -1.733300 0
M  V30 69 H -0.265757 0.493696 -2.627646 0
M  V30 END ATOM
M  V30 BEGIN BOND
M  V30 1 1 1 2
M  V30 2 1 2 3
M  V30 3 1 2 4
M  V30 4 1 4 5
M  V30 5 1 5 6
M  V30 6 1 6 7
M  V30 7 1 7 8
M  V30 8 2 8 9
M  V30 9 1 8 10
M  V30 10 2 10 11
M  V30 11 1 11 12
M  V30 12 2 12 13
M  V30 13 1 13 14
M  V30 14 2 14 15
M  V30 15 1 15 16
M  V30 16 1 16 17
M  V30 17 3 17 18
M  V30 18 1 18 19
M  V30 19 1 19 20
M  V30 20 1 20 21
M  V30 21 2 21 22
M  V30 22 1 21 23
M  V30 23 2 23 24
M  V30 24 1 24 25
M  V30 25 2 25 26
M  V30 26 1 26 27
M  V30 27 1 27 28
M  V30 28 1 28 29
M  V30 29 2 29 30
M  V30 30 1 30 31
M  V30 31 2 31 32
M  V30 32 1 32 33
M  V30 33 1 32 34
M  V30 34 1 34 35
M  V30 35 2 34 36
M  V30 36 1 27 37
M  V30 37 2 37 38
M  V30 38 2 16 39
M  V30 39 1 39 40
M  V30 40 2 40 41
M  V30 41 1 41 10
M  V30 42 1 40 13
M  V30 43 1 37 23
M  V30 44 1 36 29
M  V30 45 1 1 42
M  V30 46 1 1 43
M  V30 47 1 1 44
M  V30 48 1 3 45
M  V30 49 1 3 46
M  V30 50 1 3 47
M  V30 51 1 4 48
M  V30 52 1 4 49
M  V30 53 1 5 50
M  V30 54 1 5 51
M  V30 55 1 6 52
M  V30 56 1 6 53
M  V30 57 1 7 54
M  V30 58 1 11 55
M  V30 59 1 14 56
M  V30 60 1 15 57
M  V30 61 1 19 58
M  V30 62 1 19 59
M  V30 63 1 20 60
M  V30 64 1 24 61
M  V30 65 1 26 62
M  V30 66 1 28 63
M  V30 67 1 28 64
M  V30 68 1 30 65
M  V30 69 1 31 66
M  V30 70 1 36 67
M  V30 71 1 39 68
M  V30 72 1 41 69
M  V30 END BOND
M  V30 END CTAB
M  END
>  <Dataset>  (541) 
ChEMBL_Kinases

>  <Ligand_Instance>  (541) 
nan

>  <PDB_ID>  (541) 
nan

>  <Standardized_SMILES>  (541) 
CN(C)CCCNC(=O)c1cnc2ccc(C#CCNC(=O)c3cncn(Cc4ccc(F)c(F)c4)c3=O)cc2c1

>  <Name>  (541) 
nan

>  <Pocket>  (541) 
nan

>  <ATP_Site>  (541) 
nan

>  <Peripheral>  (541) 
nan

>  <Num_H_Atoms_ProtBoundConf>  (541) 
nan

>  <Num_Resolved_Atoms>  (541) 
nan

>  <Num_Not_Resolved_Atoms>  (541) 
nan

$$$$
CHEMBL3640503
     RDKit          3D

  0  0  0  0  0  0  0  0  0  0999 V3000
M  V30 BEGIN CTAB
M  V30 COUNTS 60 64 0 0 0
M  V30 BEGIN ATOM
M  V30 1 O 1.130224 -1.925980 3.374253 0
M  V30 2 C 1.800009 -2.469827 2.432433 0
M  V30 3 N 3.167579 -2.128899 2.602659 0
M  V30 4 C 3.332165 -1.281382 3.786145 0
M  V30 5 C 2.533572 -0.084610 3.562836 0
M  V30 6 C 1.862148 0.888291 3.369497 0
M  V30 7 C 1.034952 2.048513 3.123589 0
M  V30 8 C 1.583768 3.277262 3.480641 0
M  V30 9 C 0.785902 4.393304 3.242245 0
M  V30 10 C -0.469991 4.300982 2.688946 0
M  V30 11 N -1.249940 5.340429 2.418697 0
M  V30 12 C -2.442139 5.176720 1.857365 0
M  V30 13 N -2.886416 3.976419 1.553572 0
M  V30 14 C -2.194417 2.816057 1.775757 0
M  V30 15 C -2.882202 1.636003 1.358622 0
M  V30 16 C -2.876613 0.336640 1.474556 0
M  V30 17 C -3.744161 -0.718247 0.904667 0
M  V30 18 N -3.935524 -0.424713 -0.501817 0
M  V30 19 C -3.804241 0.962395 -0.806004 0
M  V30 20 C -4.045836 1.798903 0.400795 0
M  V30 21 C -0.985828 3.082407 2.349258 0
M  V30 22 C -0.208223 1.991767 2.579169 0
M  V30 23 C 1.201702 -3.286303 1.395471 0
M  V30 24 C -0.177309 -3.440377 1.497595 0
M  V30 25 N -0.873891 -4.158414 0.625690 0
M  V30 26 C -0.307702 -4.779811 -0.403819 0
M  V30 27 N 1.024248 -4.653663 -0.535135 0
M  V30 28 C 1.687359 -5.304255 -1.630406 0
M  V30 29 C 1.768201 -4.433082 -2.856516 0
M  V30 30 C 0.715405 -4.521176 -3.746476 0
M  V30 31 C 0.678951 -3.764677 -4.914855 0
M  V30 32 C 1.728891 -2.895987 -5.196752 0
M  V30 33 F 1.747792 -2.129139 -6.326893 0
M  V30 34 C 2.765779 -2.827521 -4.292871 0
M  V30 35 F 3.784561 -1.987137 -4.562542 0
M  V30 36 C 2.812538 -3.574349 -3.128983 0
M  V30 37 C 1.756115 -3.942280 0.318867 0
M  V30 38 O 3.000339 -3.798919 0.233040 0
M  V30 39 H 3.849670 -2.500303 1.906748 0
M  V30 40 H 4.410483 -1.061255 3.885162 0
M  V30 41 H 2.940287 -1.848974 4.642306 0
M  V30 42 H 2.561376 3.447087 3.921419 0
M  V30 43 H 1.092182 5.405944 3.472480 0
M  V30 44 H -3.094433 6.023328 1.629286 0
M  V30 45 H -2.122718 0.010208 2.142747 0
M  V30 46 H -3.216642 -1.673107 0.952964 0
M  V30 47 H -4.700542 -0.827177 1.454125 0
M  V30 48 H -3.369944 -1.043010 -1.121568 0
M  V30 49 H -4.448084 1.299699 -1.646695 0
M  V30 50 H -2.752487 1.158652 -1.141404 0
M  V30 51 H -4.963973 1.503182 0.898705 0
M  V30 52 H -4.124489 2.888339 0.116398 0
M  V30 53 H -0.499680 1.009225 2.321233 0
M  V30 54 H -0.764117 -2.988940 2.286856 0
M  V30 55 H -0.887882 -5.360779 -1.105444 0
M  V30 56 H 1.140890 -6.244964 -1.864659 0
M  V30 57 H 2.728594 -5.540273 -1.330642 0
M  V30 58 H -0.125989 -5.155649 -3.613100 0
M  V30 59 H -0.129281 -3.821822 -5.613805 0
M  V30 60 H 3.615683 -3.519720 -2.431539 0
M  V30 END ATOM
M  V30 BEGIN BOND
M  V30 1 2 1 2
M  V30 2 1 2 3
M  V30 3 1 3 4
M  V30 4 1 4 5
M  V30 5 3 5 6
M  V30 6 1 6 7
M  V30 7 2 7 8
M  V30 8 1 8 9
M  V30 9 2 9 10
M  V30 10 1 10 11
M  V30 11 2 11 12
M  V30 12 1 12 13
M  V30 13 2 13 14
M  V30 14 1 14 15
M  V30 15 2 15 16
M  V30 16 1 16 17
M  V30 17 1 17 18
M  V30 18 1 18 19
M  V30 19 1 19 20
M  V30 20 1 14 21
M  V30 21 2 21 22
M  V30 22 1 2 23
M  V30 23 2 23 24
M  V30 24 1 24 25
M  V30 25 2 25 26
M  V30 26 1 26 27
M  V30 27 1 27 28
M  V30 28 1 28 29
M  V30 29 2 29 30
M  V30 30 1 30 31
M  V30 31 2 31 32
M  V30 32 1 32 33
M  V30 33 1 32 34
M  V30 34 1 34 35
M  V30 35 2 34 36
M  V30 36 1 27 37
M  V30 37 2 37 38
M  V30 38 1 22 7
M  V30 39 1 37 23
M  V30 40 1 21 10
M  V30 41 1 36 29
M  V30 42 1 20 15
M  V30 43 1 3 39
M  V30 44 1 4 40
M  V30 45 1 4 41
M  V30 46 1 8 42
M  V30 47 1 9 43
M  V30 48 1 12 44
M  V30 49 1 16 45
M  V30 50 1 17 46
M  V30 51 1 17 47
M  V30 52 1 18 48
M  V30 53 1 19 49
M  V30 54 1 19 50
M  V30 55 1 20 51
M  V30 56 1 20 52
M  V30 57 1 22 53
M  V30 58 1 24 54
M  V30 59 1 26 55
M  V30 60 1 28 56
M  V30 61 1 28 57
M  V30 62 1 30 58
M  V30 63 1 31 59
M  V30 64 1 36 60
M  V30 END BOND
M  V30 END CTAB
M  END
>  <Dataset>  (542) 
ChEMBL_Kinases

>  <Ligand_Instance>  (542) 
nan

>  <PDB_ID>  (542) 
nan

>  <Standardized_SMILES>  (542) 
O=C(NCC#Cc1ccc2ncnc(C3=CCNCC3)c2c1)c1cncn(Cc2ccc(F)c(F)c2)c1=O

>  <Name>  (542) 
nan

>  <Pocket>  (542) 
nan

>  <ATP_Site>  (542) 
nan

>  <Peripheral>  (542) 
nan

>  <Num_H_Atoms_ProtBoundConf>  (542) 
nan

>  <Num_Resolved_Atoms>  (542) 
nan

>  <Num_Not_Resolved_Atoms>  (542) 
nan

$$$$
CHEMBL3640502
     RDKit          3D

  0  0  0  0  0  0  0  0  0  0999 V3000
M  V30 BEGIN CTAB
M  V30 COUNTS 50 53 0 0 0
M  V30 BEGIN ATOM
M  V30 1 C 5.527778 -3.468765 -0.462043 0
M  V30 2 C 5.462673 -3.467051 1.023119 0
M  V30 3 N 6.007578 -4.467676 1.725751 0
M  V30 4 C 5.973109 -4.509071 3.075330 0
M  V30 5 N 5.374081 -3.517803 3.750886 0
M  V30 6 C 4.806352 -2.483806 3.132547 0
M  V30 7 C 4.188490 -1.461073 3.825366 0
M  V30 8 C 3.597561 -0.384433 3.176588 0
M  V30 9 C 3.668559 -0.403700 1.788680 0
M  V30 10 C 3.091131 0.660104 0.999100 0
M  V30 11 C 2.594336 1.543960 0.328015 0
M  V30 12 C 1.981266 2.597295 -0.496248 0
M  V30 13 N 0.568035 2.281314 -0.661515 0
M  V30 14 C -0.108374 2.219305 0.587147 0
M  V30 15 O 0.745504 2.465296 1.506574 0
M  V30 16 C -1.518183 1.930672 0.817745 0
M  V30 17 C -1.862127 1.947920 2.177626 0
M  V30 18 N -3.122190 1.702515 2.570368 0
M  V30 19 C -4.108905 1.431322 1.702789 0
M  V30 20 N -3.789849 1.412308 0.396627 0
M  V30 21 C -4.787050 1.130622 -0.587119 0
M  V30 22 C -4.899608 -0.312862 -0.889082 0
M  V30 23 C -4.200885 -0.993128 -1.865019 0
M  V30 24 C -4.359469 -2.345265 -2.088393 0
M  V30 25 C -5.239668 -3.087472 -1.331222 0
M  V30 26 F -5.337010 -4.409462 -1.613619 0
M  V30 27 C -5.958246 -2.443904 -0.344114 0
M  V30 28 F -6.820665 -3.184880 0.393690 0
M  V30 29 C -5.783565 -1.091414 -0.138485 0
M  V30 30 C -2.551535 1.649418 -0.049906 0
M  V30 31 O -2.197669 1.645677 -1.241547 0
M  V30 32 C 4.279655 -1.411582 1.054816 0
M  V30 33 C 4.855409 -2.465643 1.754449 0
M  V30 34 H 6.207613 -2.670247 -0.836678 0
M  V30 35 H 5.798957 -4.486166 -0.799219 0
M  V30 36 H 4.536545 -3.236495 -0.926903 0
M  V30 37 H 6.452837 -5.374958 3.493442 0
M  V30 38 H 4.176547 -1.520444 4.892548 0
M  V30 39 H 3.114742 0.417000 3.688171 0
M  V30 40 H 2.470351 2.590079 -1.483898 0
M  V30 41 H 2.007244 3.577027 0.025034 0
M  V30 42 H 0.013835 2.103578 -1.527259 0
M  V30 43 H -1.169219 2.151785 2.986542 0
M  V30 44 H -5.102807 1.242445 2.082370 0
M  V30 45 H -4.597874 1.642773 -1.557764 0
M  V30 46 H -5.772946 1.457544 -0.170575 0
M  V30 47 H -3.518838 -0.434577 -2.456971 0
M  V30 48 H -3.772258 -2.800822 -2.874269 0
M  V30 49 H -6.344679 -0.598563 0.629442 0
M  V30 50 H 4.324952 -1.410134 -0.013649 0
M  V30 END ATOM
M  V30 BEGIN BOND
M  V30 1 1 1 2
M  V30 2 2 2 3
M  V30 3 1 3 4
M  V30 4 2 4 5
M  V30 5 1 5 6
M  V30 6 2 6 7
M  V30 7 1 7 8
M  V30 8 2 8 9
M  V30 9 1 9 10
M  V30 10 3 10 11
M  V30 11 1 11 12
M  V30 12 1 12 13
M  V30 13 1 13 14
M  V30 14 2 14 15
M  V30 15 1 14 16
M  V30 16 2 16 17
M  V30 17 1 17 18
M  V30 18 2 18 19
M  V30 19 1 19 20
M  V30 20 1 20 21
M  V30 21 1 21 22
M  V30 22 2 22 23
M  V30 23 1 23 24
M  V30 24 2 24 25
M  V30 25 1 25 26
M  V30 26 1 25 27
M  V30 27 1 27 28
M  V30 28 2 27 29
M  V30 29 1 20 30
M  V30 30 2 30 31
M  V30 31 1 9 32
M  V30 32 2 32 33
M  V30 33 1 33 2
M  V30 34 1 33 6
M  V30 35 1 30 16
M  V30 36 1 29 22
M  V30 37 1 1 34
M  V30 38 1 1 35
M  V30 39 1 1 36
M  V30 40 1 4 37
M  V30 41 1 7 38
M  V30 42 1 8 39
M  V30 43 1 12 40
M  V30 44 1 12 41
M  V30 45 1 13 42
M  V30 46 1 17 43
M  V30 47 1 19 44
M  V30 48 1 21 45
M  V30 49 1 21 46
M  V30 50 1 23 47
M  V30 51 1 24 48
M  V30 52 1 29 49
M  V30 53 1 32 50
M  V30 END BOND
M  V30 END CTAB
M  END
>  <Dataset>  (543) 
ChEMBL_Kinases

>  <Ligand_Instance>  (543) 
nan

>  <PDB_ID>  (543) 
nan

>  <Standardized_SMILES>  (543) 
Cc1ncnc2ccc(C#CCNC(=O)c3cncn(Cc4ccc(F)c(F)c4)c3=O)cc12

>  <Name>  (543) 
nan

>  <Pocket>  (543) 
nan

>  <ATP_Site>  (543) 
nan

>  <Peripheral>  (543) 
nan

>  <Num_H_Atoms_ProtBoundConf>  (543) 
nan

>  <Num_Resolved_Atoms>  (543) 
nan

>  <Num_Not_Resolved_Atoms>  (543) 
nan

$$$$
CHEMBL3640501
     RDKit          3D

  0  0  0  0  0  0  0  0  0  0999 V3000
M  V30 BEGIN CTAB
M  V30 COUNTS 54 58 0 0 0
M  V30 BEGIN ATOM
M  V30 1 O 0.688389 -4.585303 3.432598 0
M  V30 2 C 0.593556 -4.104634 2.251005 0
M  V30 3 N 1.040765 -2.774152 2.272800 0
M  V30 4 C 1.510541 -2.154647 3.496699 0
M  V30 5 C 1.922597 -0.752095 3.243323 0
M  V30 6 C 2.241431 0.399607 3.041281 0
M  V30 7 C 2.603612 1.763834 2.782288 0
M  V30 8 C 3.889654 2.180637 3.025257 0
M  V30 9 C 4.244758 3.508036 2.773850 0
M  V30 10 C 3.313543 4.399686 2.284528 0
M  V30 11 N 3.543446 5.694449 2.001373 0
M  V30 12 C 2.572707 6.501708 1.518028 0
M  V30 13 N 1.317281 6.081025 1.285206 0
M  V30 14 C 1.023988 4.774881 1.554350 0
M  V30 15 C -0.355983 4.413047 1.270610 0
M  V30 16 C -0.959060 4.766787 0.056791 0
M  V30 17 N -2.246192 4.320505 0.055667 0
M  V30 18 N -2.480650 3.707437 1.202202 0
M  V30 19 C -1.361804 3.752363 1.943165 0
M  V30 20 C 2.027350 3.969260 2.045485 0
M  V30 21 C 1.684443 2.658997 2.295305 0
M  V30 22 C 0.100039 -4.853563 1.117008 0
M  V30 23 C -0.272171 -6.154567 1.395766 0
M  V30 24 N -0.745082 -6.959819 0.443173 0
M  V30 25 C -0.898996 -6.594499 -0.833920 0
M  V30 26 N -0.541982 -5.331623 -1.124343 0
M  V30 27 C -0.669306 -4.838930 -2.472383 0
M  V30 28 C -1.990160 -4.216346 -2.751511 0
M  V30 29 C -2.983497 -5.049821 -3.222258 0
M  V30 30 C -4.249016 -4.628413 -3.524852 0
M  V30 31 C -4.530161 -3.290519 -3.342820 0
M  V30 32 F -5.765578 -2.776140 -3.617553 0
M  V30 33 C -3.568604 -2.409847 -2.872342 0
M  V30 34 F -3.880139 -1.105910 -2.706398 0
M  V30 35 C -2.312686 -2.901369 -2.586731 0
M  V30 36 C -0.061128 -4.484235 -0.199915 0
M  V30 37 O 0.275805 -3.306591 -0.452290 0
M  V30 38 H 1.038809 -2.211539 1.395364 0
M  V30 39 H 2.374952 -2.660980 3.930154 0
M  V30 40 H 0.701507 -2.206038 4.245107 0
M  V30 41 H 4.656843 1.526191 3.407464 0
M  V30 42 H 5.224957 3.890860 2.941822 0
M  V30 43 H 2.931680 7.505465 1.347990 0
M  V30 44 H -0.564353 5.306189 -0.810596 0
M  V30 45 H -3.378667 3.259182 1.496442 0
M  V30 46 H -1.223649 3.355120 2.919448 0
M  V30 47 H 0.708688 2.285192 2.119148 0
M  V30 48 H -0.236463 -6.665110 2.348380 0
M  V30 49 H -1.272585 -7.194626 -1.641959 0
M  V30 50 H -0.508665 -5.661582 -3.227143 0
M  V30 51 H 0.105719 -4.075981 -2.653587 0
M  V30 52 H -2.790226 -6.108735 -3.375284 0
M  V30 53 H -5.056836 -5.240188 -3.894421 0
M  V30 54 H -1.542460 -2.246108 -2.220069 0
M  V30 END ATOM
M  V30 BEGIN BOND
M  V30 1 2 1 2
M  V30 2 1 2 3
M  V30 3 1 3 4
M  V30 4 1 4 5
M  V30 5 3 5 6
M  V30 6 1 6 7
M  V30 7 2 7 8
M  V30 8 1 8 9
M  V30 9 2 9 10
M  V30 10 1 10 11
M  V30 11 2 11 12
M  V30 12 1 12 13
M  V30 13 2 13 14
M  V30 14 1 14 15
M  V30 15 1 15 16
M  V30 16 2 16 17
M  V30 17 1 17 18
M  V30 18 1 18 19
M  V30 19 1 14 20
M  V30 20 2 20 21
M  V30 21 1 2 22
M  V30 22 2 22 23
M  V30 23 1 23 24
M  V30 24 2 24 25
M  V30 25 1 25 26
M  V30 26 1 26 27
M  V30 27 1 27 28
M  V30 28 2 28 29
M  V30 29 1 29 30
M  V30 30 2 30 31
M  V30 31 1 31 32
M  V30 32 1 31 33
M  V30 33 1 33 34
M  V30 34 2 33 35
M  V30 35 1 26 36
M  V30 36 2 36 37
M  V30 37 1 21 7
M  V30 38 1 36 22
M  V30 39 1 20 10
M  V30 40 1 35 28
M  V30 41 2 19 15
M  V30 42 1 3 38
M  V30 43 1 4 39
M  V30 44 1 4 40
M  V30 45 1 8 41
M  V30 46 1 9 42
M  V30 47 1 12 43
M  V30 48 1 16 44
M  V30 49 1 18 45
M  V30 50 1 19 46
M  V30 51 1 21 47
M  V30 52 1 23 48
M  V30 53 1 25 49
M  V30 54 1 27 50
M  V30 55 1 27 51
M  V30 56 1 29 52
M  V30 57 1 30 53
M  V30 58 1 35 54
M  V30 END BOND
M  V30 END CTAB
M  END
>  <Dataset>  (544) 
ChEMBL_Kinases

>  <Ligand_Instance>  (544) 
nan

>  <PDB_ID>  (544) 
nan

>  <Standardized_SMILES>  (544) 
O=C(NCC#Cc1ccc2ncnc(-c3cn[nH]c3)c2c1)c1cncn(Cc2ccc(F)c(F)c2)c1=O

>  <Name>  (544) 
nan

>  <Pocket>  (544) 
nan

>  <ATP_Site>  (544) 
nan

>  <Peripheral>  (544) 
nan

>  <Num_H_Atoms_ProtBoundConf>  (544) 
nan

>  <Num_Resolved_Atoms>  (544) 
nan

>  <Num_Not_Resolved_Atoms>  (544) 
nan

$$$$
CHEMBL3640500
     RDKit          3D

  0  0  0  0  0  0  0  0  0  0999 V3000
M  V30 BEGIN CTAB
M  V30 COUNTS 57 60 0 0 0
M  V30 BEGIN ATOM
M  V30 1 C 4.600365 -3.044993 3.116794 0
M  V30 2 N 4.449882 -1.741487 2.506179 0
M  V30 3 C 5.510007 -0.858457 2.162109 0
M  V30 4 N 6.747604 -1.315408 2.446938 0
M  V30 5 C 7.849603 -0.585757 2.176205 0
M  V30 6 N 7.706890 0.643129 1.600676 0
M  V30 7 C 6.484507 1.121701 1.306810 0
M  V30 8 C 6.294062 2.374870 0.717405 0
M  V30 9 C 5.029288 2.849468 0.422921 0
M  V30 10 C 3.921272 2.052984 0.724059 0
M  V30 11 C 2.572229 2.485883 0.443608 0
M  V30 12 C 1.446693 2.837459 0.191066 0
M  V30 13 C 0.058402 3.249096 -0.132974 0
M  V30 14 N -0.791589 2.078079 -0.038259 0
M  V30 15 C -2.183496 2.152510 -0.293618 0
M  V30 16 O -2.482629 3.357426 -0.593414 0
M  V30 17 C -3.177181 1.098424 -0.247889 0
M  V30 18 C -4.478688 1.498786 -0.555299 0
M  V30 19 C -5.512176 0.590478 -0.546722 0
M  V30 20 C -5.256852 -0.726409 -0.231260 0
M  V30 21 N -3.985751 -1.122067 0.069851 0
M  V30 22 C -3.869614 -2.512321 0.376258 0 CFG=2
M  V30 23 C -2.609102 -2.949313 1.039302 0
M  V30 24 O -2.488001 -2.263503 2.248722 0
M  V30 25 C -4.207524 -3.378193 -0.807394 0
M  V30 26 C -5.417810 -3.945463 -1.146195 0
M  V30 27 C -5.489247 -4.707889 -2.291945 0
M  V30 28 C -4.409309 -4.929662 -3.113903 0
M  V30 29 C -3.197623 -4.356317 -2.766347 0
M  V30 30 C -3.088614 -3.583680 -1.621422 0
M  V30 31 C -3.004871 -0.210843 0.051632 0
M  V30 32 O -1.864260 -0.585127 0.325911 0
M  V30 33 C 4.056062 0.797546 1.311225 0
M  V30 34 C 5.349745 0.382832 1.579833 0
M  V30 35 H 4.146791 -3.050930 4.145042 0
M  V30 36 H 5.696223 -3.262698 3.247137 0
M  V30 37 H 4.197209 -3.873253 2.494350 0
M  V30 38 H 3.432187 -1.648201 2.402108 0
M  V30 39 H 8.833861 -0.979988 2.416986 0
M  V30 40 H 7.171762 2.959602 0.500138 0
M  V30 41 H 4.868342 3.827910 -0.037954 0
M  V30 42 H -0.318190 4.008045 0.558971 0
M  V30 43 H 0.110361 3.626916 -1.183516 0
M  V30 44 H -0.403785 1.146713 0.220558 0
M  V30 45 H -4.708836 2.544644 -0.810482 0
M  V30 46 H -6.508539 0.967360 -0.796397 0
M  V30 47 H -6.150167 -1.338826 -0.258693 0
M  V30 48 H -4.680472 -2.718016 1.140606 0
M  V30 49 H -1.688612 -2.868111 0.472664 0
M  V30 50 H -2.761230 -4.034577 1.303728 0
M  V30 51 H -3.265088 -2.599768 2.798019 0
M  V30 52 H -6.206795 -3.719749 -0.444531 0
M  V30 53 H -6.484164 -5.122996 -2.491455 0
M  V30 54 H -4.512192 -5.536240 -4.004779 0
M  V30 55 H -2.384380 -4.569161 -3.455889 0
M  V30 56 H -2.084607 -3.214708 -1.497453 0
M  V30 57 H 3.200061 0.188496 1.541070 0
M  V30 END ATOM
M  V30 BEGIN BOND
M  V30 1 1 1 2
M  V30 2 1 2 3
M  V30 3 2 3 4
M  V30 4 1 4 5
M  V30 5 2 5 6
M  V30 6 1 6 7
M  V30 7 2 7 8
M  V30 8 1 8 9
M  V30 9 2 9 10
M  V30 10 1 10 11
M  V30 11 3 11 12
M  V30 12 1 12 13
M  V30 13 1 13 14
M  V30 14 1 14 15
M  V30 15 2 15 16
M  V30 16 1 15 17
M  V30 17 2 17 18
M  V30 18 1 18 19
M  V30 19 2 19 20
M  V30 20 1 20 21
M  V30 21 1 21 22
M  V30 22 1 22 23
M  V30 23 1 23 24
M  V30 24 1 22 25
M  V30 25 2 25 26
M  V30 26 1 26 27
M  V30 27 2 27 28
M  V30 28 1 28 29
M  V30 29 2 29 30
M  V30 30 1 21 31
M  V30 31 2 31 32
M  V30 32 1 10 33
M  V30 33 2 33 34
M  V30 34 1 34 3
M  V30 35 1 34 7
M  V30 36 1 31 17
M  V30 37 1 30 25
M  V30 38 1 1 35
M  V30 39 1 1 36
M  V30 40 1 1 37
M  V30 41 1 2 38
M  V30 42 1 5 39
M  V30 43 1 8 40
M  V30 44 1 9 41
M  V30 45 1 13 42
M  V30 46 1 13 43
M  V30 47 1 14 44
M  V30 48 1 18 45
M  V30 49 1 19 46
M  V30 50 1 20 47
M  V30 51 1 22 48 CFG=1
M  V30 52 1 23 49
M  V30 53 1 23 50
M  V30 54 1 24 51
M  V30 55 1 26 52
M  V30 56 1 27 53
M  V30 57 1 28 54
M  V30 58 1 29 55
M  V30 59 1 30 56
M  V30 60 1 33 57
M  V30 END BOND
M  V30 END CTAB
M  END
>  <Dataset>  (545) 
ChEMBL_Kinases

>  <Ligand_Instance>  (545) 
nan

>  <PDB_ID>  (545) 
nan

>  <Standardized_SMILES>  (545) 
CNc1ncnc2ccc(C#CCNC(=O)c3cccn([C@H](CO)c4ccccc4)c3=O)cc12

>  <Name>  (545) 
nan

>  <Pocket>  (545) 
nan

>  <ATP_Site>  (545) 
nan

>  <Peripheral>  (545) 
nan

>  <Num_H_Atoms_ProtBoundConf>  (545) 
nan

>  <Num_Resolved_Atoms>  (545) 
nan

>  <Num_Not_Resolved_Atoms>  (545) 
nan

$$$$
CHEMBL3640499
     RDKit          3D

  0  0  0  0  0  0  0  0  0  0999 V3000
M  V30 BEGIN CTAB
M  V30 COUNTS 56 59 0 0 0
M  V30 BEGIN ATOM
M  V30 1 C 4.493347 0.298650 4.193476 0
M  V30 2 O 5.316957 1.164388 3.523427 0
M  V30 3 N 4.931167 1.547027 2.314002 0
M  V30 4 C 4.548004 0.467596 1.446457 0
M  V30 5 C 5.013670 2.926874 2.225882 0
M  V30 6 N 5.775799 3.918347 2.331131 0
M  V30 7 C 6.203719 5.068133 2.346752 0
M  V30 8 N 5.031376 5.732310 2.025212 0
M  V30 9 C 3.882481 5.022390 1.806341 0
M  V30 10 C 2.695160 5.727506 1.472316 0
M  V30 11 C 1.497619 5.100994 1.235743 0
M  V30 12 C 1.407318 3.700629 1.316953 0
M  V30 13 C 0.207600 2.956093 1.100489 0
M  V30 14 C -0.794482 2.324052 0.938748 0
M  V30 15 C -2.031915 1.520367 0.750373 0
M  V30 16 N -1.686478 0.397361 -0.111861 0
M  V30 17 C -2.635895 -0.500448 -0.428745 0
M  V30 18 O -3.856265 -0.496878 -0.041410 0
M  V30 19 C -3.116804 -1.622107 -1.047698 0
M  V30 20 C -1.774680 -1.847407 -1.683481 0
M  V30 21 N -1.299545 -2.841369 -2.555311 0
M  V30 22 C -2.171364 -3.825803 -2.939107 0
M  V30 23 N -3.429593 -3.719256 -2.413792 0
M  V30 24 C -4.516500 -4.631755 -2.645158 0
M  V30 25 C -4.439371 -5.764782 -1.651775 0
M  V30 26 C -3.671484 -6.860188 -2.028700 0
M  V30 27 C -3.550589 -7.946590 -1.172403 0
M  V30 28 C -4.195500 -7.934204 0.058889 0
M  V30 29 F -4.038145 -9.016605 0.856889 0
M  V30 30 C -4.931962 -6.810393 0.345670 0
M  V30 31 F -5.521673 -6.907994 1.566017 0
M  V30 32 C -5.096192 -5.705369 -0.448219 0
M  V30 33 C -3.565139 -2.689853 -1.640039 0
M  V30 34 O -4.735227 -2.480269 -1.079480 0
M  V30 35 C 2.575187 3.055640 1.641227 0
M  V30 36 C 3.832451 3.623947 1.897191 0
M  V30 37 H 3.437624 0.548696 3.939328 0
M  V30 38 H 4.597835 -0.779781 3.886360 0
M  V30 39 H 4.549046 0.438160 5.298097 0
M  V30 40 H 4.182579 0.801442 0.443016 0
M  V30 41 H 5.344788 -0.269765 1.269607 0
M  V30 42 H 3.703536 -0.137337 1.867873 0
M  V30 43 H 7.123006 5.580850 2.524270 0
M  V30 44 H 2.766694 6.798698 1.413542 0
M  V30 45 H 0.608395 5.619613 0.982945 0
M  V30 46 H -2.787932 2.113317 0.225912 0
M  V30 47 H -2.381432 1.248105 1.742151 0
M  V30 48 H -0.813468 0.088461 -0.582595 0
M  V30 49 H -0.705594 -1.406464 -1.748588 0
M  V30 50 H -2.121233 -4.678907 -3.566708 0
M  V30 51 H -5.504785 -4.149615 -2.457026 0
M  V30 52 H -4.462234 -5.075012 -3.644971 0
M  V30 53 H -3.163525 -6.852201 -3.000132 0
M  V30 54 H -2.939532 -8.755201 -1.543567 0
M  V30 55 H -5.694545 -4.869897 -0.146132 0
M  V30 56 H 2.531231 1.979941 1.713457 0
M  V30 END ATOM
M  V30 BEGIN BOND
M  V30 1 1 1 2
M  V30 2 1 2 3
M  V30 3 1 3 4
M  V30 4 1 3 5
M  V30 5 2 5 6
M  V30 6 1 6 7
M  V30 7 2 7 8
M  V30 8 1 8 9
M  V30 9 2 9 10
M  V30 10 1 10 11
M  V30 11 2 11 12
M  V30 12 1 12 13
M  V30 13 3 13 14
M  V30 14 1 14 15
M  V30 15 1 15 16
M  V30 16 1 16 17
M  V30 17 2 17 18
M  V30 18 1 17 19
M  V30 19 2 19 20
M  V30 20 1 20 21
M  V30 21 2 21 22
M  V30 22 1 22 23
M  V30 23 1 23 24
M  V30 24 1 24 25
M  V30 25 2 25 26
M  V30 26 1 26 27
M  V30 27 2 27 28
M  V30 28 1 28 29
M  V30 29 1 28 30
M  V30 30 1 30 31
M  V30 31 2 30 32
M  V30 32 1 23 33
M  V30 33 2 33 34
M  V30 34 1 12 35
M  V30 35 2 35 36
M  V30 36 1 36 5
M  V30 37 1 36 9
M  V30 38 1 33 19
M  V30 39 1 32 25
M  V30 40 1 1 37
M  V30 41 1 1 38
M  V30 42 1 1 39
M  V30 43 1 4 40
M  V30 44 1 4 41
M  V30 45 1 4 42
M  V30 46 1 7 43
M  V30 47 1 10 44
M  V30 48 1 11 45
M  V30 49 1 15 46
M  V30 50 1 15 47
M  V30 51 1 16 48
M  V30 52 1 20 49
M  V30 53 1 22 50
M  V30 54 1 24 51
M  V30 55 1 24 52
M  V30 56 1 26 53
M  V30 57 1 27 54
M  V30 58 1 32 55
M  V30 59 1 35 56
M  V30 END BOND
M  V30 END CTAB
M  END
>  <Dataset>  (546) 
ChEMBL_Kinases

>  <Ligand_Instance>  (546) 
nan

>  <PDB_ID>  (546) 
nan

>  <Standardized_SMILES>  (546) 
CON(C)c1ncnc2ccc(C#CCNC(=O)c3cncn(Cc4ccc(F)c(F)c4)c3=O)cc12

>  <Name>  (546) 
nan

>  <Pocket>  (546) 
nan

>  <ATP_Site>  (546) 
nan

>  <Peripheral>  (546) 
nan

>  <Num_H_Atoms_ProtBoundConf>  (546) 
nan

>  <Num_Resolved_Atoms>  (546) 
nan

>  <Num_Not_Resolved_Atoms>  (546) 
nan

$$$$
CHEMBL3640498
     RDKit          3D

  0  0  0  0  0  0  0  0  0  0999 V3000
M  V30 BEGIN CTAB
M  V30 COUNTS 53 56 0 0 0
M  V30 BEGIN ATOM
M  V30 1 C 4.565012 -3.051778 3.129805 0
M  V30 2 O 5.401996 -2.187959 2.455710 0
M  V30 3 N 4.699175 -1.124605 2.005580 0
M  V30 4 C 5.479978 -0.106650 1.393050 0
M  V30 5 N 6.812051 -0.259545 1.303624 0
M  V30 6 C 7.604462 0.689105 0.724482 0
M  V30 7 N 7.089439 1.834514 0.209498 0
M  V30 8 C 5.749512 2.047747 0.269397 0
M  V30 9 C 5.187609 3.195854 -0.241156 0
M  V30 10 C 3.818232 3.420236 -0.183284 0
M  V30 11 C 3.067876 2.436288 0.408458 0
M  V30 12 C 1.643111 2.643003 0.482168 0
M  V30 13 C 0.447616 2.797762 0.542792 0
M  V30 14 C -1.022814 2.991776 0.595333 0
M  V30 15 N -1.708016 1.793125 0.171945 0
M  V30 16 C -3.121782 1.721909 0.132954 0
M  V30 17 O -3.618085 2.836813 0.515299 0
M  V30 18 C -3.922859 0.577946 -0.272567 0
M  V30 19 C -5.302085 0.797676 -0.210010 0
M  V30 20 N -6.175002 -0.159086 -0.551116 0
M  V30 21 C -5.795291 -1.370922 -0.968273 0
M  V30 22 N -4.476865 -1.585404 -1.029595 0
M  V30 23 C -4.016276 -2.884654 -1.474949 0
M  V30 24 C -3.890349 -3.757913 -0.280055 0
M  V30 25 C -5.026843 -4.469478 0.070704 0
M  V30 26 C -5.125900 -5.338429 1.145547 0
M  V30 27 C -3.983486 -5.499062 1.926493 0
M  V30 28 F -4.032726 -6.345743 2.997437 0
M  V30 29 C -2.844790 -4.804191 1.598429 0
M  V30 30 F -1.715580 -4.939844 2.340440 0
M  V30 31 C -2.784306 -3.936618 0.505974 0
M  V30 32 C -3.554223 -0.676443 -0.704643 0
M  V30 33 O -2.332911 -0.853488 -0.754075 0
M  V30 34 C 3.627780 1.286991 0.919849 0
M  V30 35 C 4.986859 1.066163 0.861472 0
M  V30 36 H 3.493901 -2.947354 2.788813 0
M  V30 37 H 4.589928 -2.938262 4.214537 0
M  V30 38 H 4.827885 -4.098240 2.798155 0
M  V30 39 H 3.671251 -1.121826 2.132407 0
M  V30 40 H 8.679064 0.520956 0.675007 0
M  V30 41 H 5.882238 3.895443 -0.682110 0
M  V30 42 H 3.407548 4.332222 -0.593226 0
M  V30 43 H -1.248227 3.855997 -0.029430 0
M  V30 44 H -1.356198 3.248962 1.629121 0
M  V30 45 H -1.151010 0.981608 -0.104334 0
M  V30 46 H -5.731362 1.752832 0.117478 0
M  V30 47 H -6.512865 -2.131189 -1.239546 0
M  V30 48 H -3.017315 -2.794366 -1.957695 0
M  V30 49 H -4.759422 -3.307738 -2.181587 0
M  V30 50 H -5.948392 -4.382880 -0.503742 0
M  V30 51 H -6.020376 -5.868333 1.382663 0
M  V30 52 H -1.910023 -3.381842 0.225585 0
M  V30 53 H 2.958919 0.584932 1.358788 0
M  V30 END ATOM
M  V30 BEGIN BOND
M  V30 1 1 1 2
M  V30 2 1 2 3
M  V30 3 1 3 4
M  V30 4 2 4 5
M  V30 5 1 5 6
M  V30 6 2 6 7
M  V30 7 1 7 8
M  V30 8 2 8 9
M  V30 9 1 9 10
M  V30 10 2 10 11
M  V30 11 1 11 12
M  V30 12 3 12 13
M  V30 13 1 13 14
M  V30 14 1 14 15
M  V30 15 1 15 16
M  V30 16 2 16 17
M  V30 17 1 16 18
M  V30 18 2 18 19
M  V30 19 1 19 20
M  V30 20 2 20 21
M  V30 21 1 21 22
M  V30 22 1 22 23
M  V30 23 1 23 24
M  V30 24 2 24 25
M  V30 25 1 25 26
M  V30 26 2 26 27
M  V30 27 1 27 28
M  V30 28 1 27 29
M  V30 29 1 29 30
M  V30 30 2 29 31
M  V30 31 1 22 32
M  V30 32 2 32 33
M  V30 33 1 11 34
M  V30 34 2 34 35
M  V30 35 1 35 4
M  V30 36 1 35 8
M  V30 37 1 32 18
M  V30 38 1 31 24
M  V30 39 1 1 36
M  V30 40 1 1 37
M  V30 41 1 1 38
M  V30 42 1 3 39
M  V30 43 1 6 40
M  V30 44 1 9 41
M  V30 45 1 10 42
M  V30 46 1 14 43
M  V30 47 1 14 44
M  V30 48 1 15 45
M  V30 49 1 19 46
M  V30 50 1 21 47
M  V30 51 1 23 48
M  V30 52 1 23 49
M  V30 53 1 25 50
M  V30 54 1 26 51
M  V30 55 1 31 52
M  V30 56 1 34 53
M  V30 END BOND
M  V30 END CTAB
M  END
>  <Dataset>  (547) 
ChEMBL_Kinases

>  <Ligand_Instance>  (547) 
nan

>  <PDB_ID>  (547) 
nan

>  <Standardized_SMILES>  (547) 
CONc1ncnc2ccc(C#CCNC(=O)c3cncn(Cc4ccc(F)c(F)c4)c3=O)cc12

>  <Name>  (547) 
nan

>  <Pocket>  (547) 
nan

>  <ATP_Site>  (547) 
nan

>  <Peripheral>  (547) 
nan

>  <Num_H_Atoms_ProtBoundConf>  (547) 
nan

>  <Num_Resolved_Atoms>  (547) 
nan

>  <Num_Not_Resolved_Atoms>  (547) 
nan

$$$$
CHEMBL3640497
     RDKit          3D

  0  0  0  0  0  0  0  0  0  0999 V3000
M  V30 BEGIN CTAB
M  V30 COUNTS 56 59 0 0 0
M  V30 BEGIN ATOM
M  V30 1 C 5.144082 -2.939788 3.467855 0
M  V30 2 N 4.682389 -1.672408 2.920217 0
M  V30 3 C 5.520768 -0.713077 2.302141 0
M  V30 4 N 6.826290 -1.032380 2.236003 0
M  V30 5 C 7.743878 -0.219991 1.676734 0
M  V30 6 N 7.360943 0.972844 1.152432 0
M  V30 7 C 6.056729 1.355670 1.186861 0
M  V30 8 C 5.586792 2.548075 0.677382 0
M  V30 9 C 4.249034 2.885460 0.739827 0
M  V30 10 C 3.353369 2.013867 1.324799 0
M  V30 11 C 1.946618 2.322423 1.413263 0
M  V30 12 C 0.767345 2.569176 1.487119 0
M  V30 13 C -0.685696 2.849010 1.588163 0
M  V30 14 N -1.329498 1.818451 0.784353 0
M  V30 15 C -2.740697 1.814549 0.681036 0
M  V30 16 O -3.190409 2.794493 1.370174 0
M  V30 17 C -3.616328 0.911778 -0.045209 0
M  V30 18 C -4.965049 1.193152 0.069746 0
M  V30 19 C -5.923407 0.435231 -0.553066 0
M  V30 20 C -5.454128 -0.621782 -1.298480 0
M  V30 21 N -4.148953 -0.926983 -1.433960 0
M  V30 22 C -3.833871 -2.075699 -2.258513 0 CFG=1
M  V30 23 C -2.620307 -1.843648 -3.124568 0
M  V30 24 C -3.557338 -3.223976 -1.362654 0
M  V30 25 C -4.680597 -4.008235 -1.056317 0
M  V30 26 C -4.678535 -5.116011 -0.252243 0
M  V30 27 C -3.498164 -5.524001 0.319640 0
M  V30 28 F -3.327972 -6.585608 1.129493 0
M  V30 29 C -2.373653 -4.783571 0.045588 0
M  V30 30 F -1.144895 -5.095232 0.558511 0
M  V30 31 C -2.407936 -3.675146 -0.766446 0
M  V30 32 C -3.268308 -0.167247 -0.815103 0
M  V30 33 O -2.060465 -0.414356 -0.914611 0
M  V30 34 C 3.795440 0.800772 1.849248 0
M  V30 35 C 5.140212 0.502227 1.766307 0
M  V30 36 H 4.860758 -3.053645 4.530198 0
M  V30 37 H 6.245847 -2.974818 3.339437 0
M  V30 38 H 4.687798 -3.755356 2.876312 0
M  V30 39 H 3.659828 -1.652867 3.085637 0
M  V30 40 H 8.795186 -0.520221 1.644617 0
M  V30 41 H 6.325763 3.195636 0.230399 0
M  V30 42 H 3.930313 3.819873 0.332464 0
M  V30 43 H -1.060574 2.773845 2.607641 0
M  V30 44 H -0.860225 3.849999 1.153769 0
M  V30 45 H -0.822398 1.067750 0.268206 0
M  V30 46 H -5.337238 2.038239 0.665799 0
M  V30 47 H -6.963441 0.675245 -0.447250 0
M  V30 48 H -6.212148 -1.235495 -1.801802 0
M  V30 49 H -4.709553 -2.321843 -2.929481 0
M  V30 50 H -2.597521 -2.629925 -3.924233 0
M  V30 51 H -1.673243 -1.962294 -2.581183 0
M  V30 52 H -2.664623 -0.846494 -3.616999 0
M  V30 53 H -5.663819 -3.770243 -1.459012 0
M  V30 54 H -5.555327 -5.694917 -0.036976 0
M  V30 55 H -1.524158 -3.096526 -0.976580 0
M  V30 56 H 3.094595 0.140158 2.296162 0
M  V30 END ATOM
M  V30 BEGIN BOND
M  V30 1 1 1 2
M  V30 2 1 2 3
M  V30 3 2 3 4
M  V30 4 1 4 5
M  V30 5 2 5 6
M  V30 6 1 6 7
M  V30 7 2 7 8
M  V30 8 1 8 9
M  V30 9 2 9 10
M  V30 10 1 10 11
M  V30 11 3 11 12
M  V30 12 1 12 13
M  V30 13 1 13 14
M  V30 14 1 14 15
M  V30 15 2 15 16
M  V30 16 1 15 17
M  V30 17 2 17 18
M  V30 18 1 18 19
M  V30 19 2 19 20
M  V30 20 1 20 21
M  V30 21 1 21 22
M  V30 22 1 22 23
M  V30 23 1 22 24
M  V30 24 2 24 25
M  V30 25 1 25 26
M  V30 26 2 26 27
M  V30 27 1 27 28
M  V30 28 1 27 29
M  V30 29 1 29 30
M  V30 30 2 29 31
M  V30 31 1 21 32
M  V30 32 2 32 33
M  V30 33 1 10 34
M  V30 34 2 34 35
M  V30 35 1 35 3
M  V30 36 1 35 7
M  V30 37 1 32 17
M  V30 38 1 31 24
M  V30 39 1 1 36
M  V30 40 1 1 37
M  V30 41 1 1 38
M  V30 42 1 2 39
M  V30 43 1 5 40
M  V30 44 1 8 41
M  V30 45 1 9 42
M  V30 46 1 13 43
M  V30 47 1 13 44
M  V30 48 1 14 45
M  V30 49 1 18 46
M  V30 50 1 19 47
M  V30 51 1 20 48
M  V30 52 1 22 49 CFG=3
M  V30 53 1 23 50
M  V30 54 1 23 51
M  V30 55 1 23 52
M  V30 56 1 25 53
M  V30 57 1 26 54
M  V30 58 1 31 55
M  V30 59 1 34 56
M  V30 END BOND
M  V30 END CTAB
M  END
>  <Dataset>  (548) 
ChEMBL_Kinases

>  <Ligand_Instance>  (548) 
nan

>  <PDB_ID>  (548) 
nan

>  <Standardized_SMILES>  (548) 
CNc1ncnc2ccc(C#CCNC(=O)c3cccn([C@@H](C)c4ccc(F)c(F)c4)c3=O)cc12

>  <Name>  (548) 
nan

>  <Pocket>  (548) 
nan

>  <ATP_Site>  (548) 
nan

>  <Peripheral>  (548) 
nan

>  <Num_H_Atoms_ProtBoundConf>  (548) 
nan

>  <Num_Resolved_Atoms>  (548) 
nan

>  <Num_Not_Resolved_Atoms>  (548) 
nan

$$$$
CHEMBL3640496
     RDKit          3D

  0  0  0  0  0  0  0  0  0  0999 V3000
M  V30 BEGIN CTAB
M  V30 COUNTS 56 59 0 0 0
M  V30 BEGIN ATOM
M  V30 1 C 5.250001 -1.770344 3.622387 0
M  V30 2 N 4.556955 -0.682697 2.945867 0
M  V30 3 C 5.149644 0.183239 2.000876 0
M  V30 4 N 6.455599 -0.052306 1.737027 0
M  V30 5 C 7.130952 0.702806 0.856754 0
M  V30 6 N 6.529481 1.725065 0.203187 0
M  V30 7 C 5.230353 2.003414 0.428294 0
M  V30 8 C 4.535783 3.026004 -0.192555 0
M  V30 9 C 3.202423 3.271099 0.072874 0
M  V30 10 C 2.542156 2.475148 0.982444 0
M  V30 11 C 1.147814 2.682496 1.301518 0
M  V30 12 C -0.022925 2.844964 1.585926 0
M  V30 13 C -1.414480 3.022624 1.944010 0
M  V30 14 N -2.167573 1.799407 1.652884 0
M  V30 15 C -2.108091 1.465378 0.292406 0
M  V30 16 O -1.400893 2.337607 -0.322306 0
M  V30 17 C -2.716902 0.336711 -0.392057 0
M  V30 18 C -2.471990 0.275817 -1.769838 0
M  V30 19 C -2.985141 -0.738286 -2.547420 0
M  V30 20 O -2.705503 -0.741405 -3.907253 0
M  V30 21 C -3.227528 -1.781934 -4.726506 0
M  V30 22 N -3.742427 -1.695847 -1.964883 0
M  V30 23 N -3.997267 -1.670800 -0.654152 0
M  V30 24 C -4.805055 -2.686254 -0.006447 0
M  V30 25 C -3.950735 -3.812384 0.456492 0
M  V30 26 C -3.772172 -4.816133 -0.501639 0
M  V30 27 C -3.018178 -5.941721 -0.270244 0
M  V30 28 C -2.435311 -6.038532 0.971256 0
M  V30 29 F -1.659919 -7.103814 1.335877 0
M  V30 30 C -2.577338 -5.068297 1.969562 0
M  V30 31 F -1.996312 -5.177966 3.188905 0
M  V30 32 C -3.345092 -3.959100 1.683205 0
M  V30 33 C -3.497453 -0.684503 0.098362 0
M  V30 34 O -3.714128 -0.627056 1.327678 0
M  V30 35 C 3.231521 1.445437 1.611177 0
M  V30 36 C 4.556831 1.227965 1.325173 0
M  V30 37 H 6.292882 -1.752633 3.230275 0
M  V30 38 H 4.752769 -2.731888 3.320440 0
M  V30 39 H 5.213559 -1.634855 4.718885 0
M  V30 40 H 3.583340 -0.697693 3.304325 0
M  V30 41 H 8.171209 0.495702 0.663121 0
M  V30 42 H 5.068651 3.651015 -0.911876 0
M  V30 43 H 2.665798 4.074457 -0.418122 0
M  V30 44 H -1.524800 3.332283 2.986747 0
M  V30 45 H -1.876378 3.805758 1.311362 0
M  V30 46 H -2.711133 1.177788 2.282244 0
M  V30 47 H -1.858725 1.042242 -2.270537 0
M  V30 48 H -2.458957 -2.530082 -5.008562 0
M  V30 49 H -4.034243 -2.335170 -4.211554 0
M  V30 50 H -3.653400 -1.397936 -5.664090 0
M  V30 51 H -5.252658 -2.251255 0.927989 0
M  V30 52 H -5.618416 -3.032899 -0.671098 0
M  V30 53 H -4.225463 -4.765299 -1.500843 0
M  V30 54 H -2.870235 -6.724427 -0.996807 0
M  V30 55 H -3.520025 -3.152587 2.380944 0
M  V30 56 H 2.692629 0.845812 2.311161 0
M  V30 END ATOM
M  V30 BEGIN BOND
M  V30 1 1 1 2
M  V30 2 1 2 3
M  V30 3 2 3 4
M  V30 4 1 4 5
M  V30 5 2 5 6
M  V30 6 1 6 7
M  V30 7 2 7 8
M  V30 8 1 8 9
M  V30 9 2 9 10
M  V30 10 1 10 11
M  V30 11 3 11 12
M  V30 12 1 12 13
M  V30 13 1 13 14
M  V30 14 1 14 15
M  V30 15 2 15 16
M  V30 16 1 15 17
M  V30 17 2 17 18
M  V30 18 1 18 19
M  V30 19 1 19 20
M  V30 20 1 20 21
M  V30 21 2 19 22
M  V30 22 1 22 23
M  V30 23 1 23 24
M  V30 24 1 24 25
M  V30 25 2 25 26
M  V30 26 1 26 27
M  V30 27 2 27 28
M  V30 28 1 28 29
M  V30 29 1 28 30
M  V30 30 1 30 31
M  V30 31 2 30 32
M  V30 32 1 23 33
M  V30 33 2 33 34
M  V30 34 1 10 35
M  V30 35 2 35 36
M  V30 36 1 36 3
M  V30 37 1 36 7
M  V30 38 1 33 17
M  V30 39 1 32 25
M  V30 40 1 1 37
M  V30 41 1 1 38
M  V30 42 1 1 39
M  V30 43 1 2 40
M  V30 44 1 5 41
M  V30 45 1 8 42
M  V30 46 1 9 43
M  V30 47 1 13 44
M  V30 48 1 13 45
M  V30 49 1 14 46
M  V30 50 1 18 47
M  V30 51 1 21 48
M  V30 52 1 21 49
M  V30 53 1 21 50
M  V30 54 1 24 51
M  V30 55 1 24 52
M  V30 56 1 26 53
M  V30 57 1 27 54
M  V30 58 1 32 55
M  V30 59 1 35 56
M  V30 END BOND
M  V30 END CTAB
M  END
>  <Dataset>  (549) 
ChEMBL_Kinases

>  <Ligand_Instance>  (549) 
nan

>  <PDB_ID>  (549) 
nan

>  <Standardized_SMILES>  (549) 
CNc1ncnc2ccc(C#CCNC(=O)c3cc(OC)nn(Cc4ccc(F)c(F)c4)c3=O)cc12

>  <Name>  (549) 
nan

>  <Pocket>  (549) 
nan

>  <ATP_Site>  (549) 
nan

>  <Peripheral>  (549) 
nan

>  <Num_H_Atoms_ProtBoundConf>  (549) 
nan

>  <Num_Resolved_Atoms>  (549) 
nan

>  <Num_Not_Resolved_Atoms>  (549) 
nan

$$$$
CHEMBL3640495
     RDKit          3D

  0  0  0  0  0  0  0  0  0  0999 V3000
M  V30 BEGIN CTAB
M  V30 COUNTS 52 55 0 0 0
M  V30 BEGIN ATOM
M  V30 1 C 1.880653 -2.101164 4.102108 0
M  V30 2 N 2.223233 -1.146801 3.079819 0
M  V30 3 C 3.545893 -0.978468 2.601210 0
M  V30 4 N 4.517376 -1.746645 3.121692 0
M  V30 5 C 5.796771 -1.595071 2.663589 0
M  V30 6 N 6.142907 -0.703375 1.702853 0
M  V30 7 C 5.194234 0.102036 1.140570 0
M  V30 8 C 5.511698 1.020016 0.166094 0
M  V30 9 C 4.535441 1.831969 -0.390112 0
M  V30 10 C 3.247486 1.676706 0.074695 0
M  V30 11 C 2.101973 2.446130 -0.365910 0
M  V30 12 C 1.139828 3.085330 -0.713138 0
M  V30 13 C -0.036067 3.850984 -1.111916 0
M  V30 14 N -1.107118 2.994072 -1.646437 0
M  V30 15 C -1.498799 2.032813 -0.758272 0
M  V30 16 O -1.013517 1.838160 0.414079 0
M  V30 17 C -2.252417 0.954143 -0.314188 0
M  V30 18 C -3.116322 1.101426 -1.532729 0
M  V30 19 C -4.263300 0.349132 -1.965309 0
M  V30 20 Cl -5.420860 0.314193 -3.307701 0
M  V30 21 N -4.637223 -0.681960 -1.122960 0
M  V30 22 N -3.947191 -0.897702 -0.026452 0
M  V30 23 C -4.146839 -1.875406 1.004051 0
M  V30 24 C -3.417142 -3.112506 0.709235 0
M  V30 25 C -4.029230 -4.090810 -0.083500 0
M  V30 26 C -3.363492 -5.274901 -0.350063 0
M  V30 27 C -2.085496 -5.567531 0.132182 0
M  V30 28 F -1.446957 -6.714942 -0.127609 0
M  V30 29 C -1.488819 -4.596532 0.912630 0
M  V30 30 F -0.262320 -4.845730 1.395790 0
M  V30 31 C -2.168125 -3.433214 1.162391 0
M  V30 32 C -2.965592 -0.066530 0.105892 0
M  V30 33 O -2.163531 -0.133602 1.141746 0
M  V30 34 C 2.942119 0.734757 1.068593 0
M  V30 35 C 3.915501 -0.070976 1.619696 0
M  V30 36 H 1.226167 -2.886650 3.646823 0
M  V30 37 H 2.775910 -2.554255 4.588522 0
M  V30 38 H 1.274729 -1.634503 4.930882 0
M  V30 39 H 1.332260 -0.680484 2.826093 0
M  V30 40 H 6.500615 -2.258850 3.149677 0
M  V30 41 H 6.515073 1.133573 -0.191018 0
M  V30 42 H 4.681517 2.574178 -1.153969 0
M  V30 43 H -0.469417 4.427765 -0.264469 0
M  V30 44 H 0.279365 4.515921 -1.911779 0
M  V30 45 H -1.701160 2.831180 -2.475956 0
M  V30 46 H -3.262097 1.727782 -2.483372 0
M  V30 47 H -5.256367 -2.119561 1.051023 0
M  V30 48 H -3.910314 -1.476478 2.025136 0
M  V30 49 H -5.011974 -4.001399 -0.521225 0
M  V30 50 H -3.792608 -6.074850 -0.958797 0
M  V30 51 H -1.624438 -2.724880 1.788113 0
M  V30 52 H 1.942321 0.606968 1.435384 0
M  V30 END ATOM
M  V30 BEGIN BOND
M  V30 1 1 1 2
M  V30 2 1 2 3
M  V30 3 2 3 4
M  V30 4 1 4 5
M  V30 5 2 5 6
M  V30 6 1 6 7
M  V30 7 2 7 8
M  V30 8 1 8 9
M  V30 9 2 9 10
M  V30 10 1 10 11
M  V30 11 3 11 12
M  V30 12 1 12 13
M  V30 13 1 13 14
M  V30 14 1 14 15
M  V30 15 2 15 16
M  V30 16 1 15 17
M  V30 17 2 17 18
M  V30 18 1 18 19
M  V30 19 1 19 20
M  V30 20 2 19 21
M  V30 21 1 21 22
M  V30 22 1 22 23
M  V30 23 1 23 24
M  V30 24 2 24 25
M  V30 25 1 25 26
M  V30 26 2 26 27
M  V30 27 1 27 28
M  V30 28 1 27 29
M  V30 29 1 29 30
M  V30 30 2 29 31
M  V30 31 1 22 32
M  V30 32 2 32 33
M  V30 33 1 10 34
M  V30 34 2 34 35
M  V30 35 1 35 3
M  V30 36 1 35 7
M  V30 37 1 32 17
M  V30 38 1 31 24
M  V30 39 1 1 36
M  V30 40 1 1 37
M  V30 41 1 1 38
M  V30 42 1 2 39
M  V30 43 1 5 40
M  V30 44 1 8 41
M  V30 45 1 9 42
M  V30 46 1 13 43
M  V30 47 1 13 44
M  V30 48 1 14 45
M  V30 49 1 18 46
M  V30 50 1 23 47
M  V30 51 1 23 48
M  V30 52 1 25 49
M  V30 53 1 26 50
M  V30 54 1 31 51
M  V30 55 1 34 52
M  V30 END BOND
M  V30 END CTAB
M  END
>  <Dataset>  (550) 
ChEMBL_Kinases

>  <Ligand_Instance>  (550) 
nan

>  <PDB_ID>  (550) 
nan

>  <Standardized_SMILES>  (550) 
CNc1ncnc2ccc(C#CCNC(=O)c3cc(Cl)nn(Cc4ccc(F)c(F)c4)c3=O)cc12

>  <Name>  (550) 
nan

>  <Pocket>  (550) 
nan

>  <ATP_Site>  (550) 
nan

>  <Peripheral>  (550) 
nan

>  <Num_H_Atoms_ProtBoundConf>  (550) 
nan

>  <Num_Resolved_Atoms>  (550) 
nan

>  <Num_Not_Resolved_Atoms>  (550) 
nan

$$$$
CHEMBL3640494
     RDKit          3D

  0  0  0  0  0  0  0  0  0  0999 V3000
M  V30 BEGIN CTAB
M  V30 COUNTS 68 71 0 0 0
M  V30 BEGIN ATOM
M  V30 1 C 5.309577 0.610155 3.111480 0
M  V30 2 N 4.741685 1.553408 2.167588 0
M  V30 3 C 5.247898 2.403903 1.149055 0
M  V30 4 N 6.536023 2.472870 0.837231 0
M  V30 5 C 7.074660 3.250235 -0.128748 0
M  V30 6 N 6.220236 4.015307 -0.826152 0
M  V30 7 C 4.904601 3.969316 -0.535082 0
M  V30 8 C 4.036871 4.763873 -1.262565 0
M  V30 9 C 2.681445 4.804165 -1.060128 0
M  V30 10 C 2.080948 4.010677 -0.065211 0
M  V30 11 C 0.691440 3.971894 0.250196 0
M  V30 12 C -0.476361 3.923218 0.529272 0
M  V30 13 C -1.883536 3.845381 0.883007 0
M  V30 14 N -2.375900 2.522191 1.216278 0
M  V30 15 C -2.869797 1.277542 1.539875 0
M  V30 16 O -4.020647 1.743449 1.891015 0
M  V30 17 C -2.412041 -0.103634 1.546189 0
M  V30 18 C -3.382265 -0.923561 2.024577 0
M  V30 19 C -3.067447 -2.289638 2.102332 0
M  V30 20 N -3.976618 -3.249255 2.581372 0
M  V30 21 C -5.109609 -3.524418 1.718021 0
M  V30 22 C -4.600673 -3.925945 0.359123 0
M  V30 23 N -3.769496 -5.086373 0.357353 0
M  V30 24 C -3.357976 -5.354029 -1.004632 0
M  V30 25 C -4.499989 -6.261068 0.830436 0
M  V30 26 N -1.830591 -2.660588 1.696402 0
M  V30 27 N -0.976578 -1.758436 1.249200 0
M  V30 28 C 0.325476 -2.330002 0.902085 0
M  V30 29 C 0.397849 -2.663455 -0.540799 0
M  V30 30 C 0.979405 -1.791099 -1.454254 0
M  V30 31 C 1.097103 -2.043057 -2.815478 0
M  V30 32 C 0.612499 -3.227753 -3.307809 0
M  V30 33 F 0.725219 -3.478662 -4.638099 0
M  V30 34 C 0.034627 -4.103064 -2.428947 0
M  V30 35 F -0.421764 -5.263494 -2.966962 0
M  V30 36 C -0.084103 -3.859543 -1.089894 0
M  V30 37 C -1.125790 -0.420128 1.110689 0
M  V30 38 O -0.265937 0.330071 0.682279 0
M  V30 39 C 2.988865 3.235907 0.632290 0
M  V30 40 C 4.338864 3.169562 0.460319 0
M  V30 41 H 5.100613 -0.456427 2.835696 0
M  V30 42 H 4.982903 0.716399 4.143620 0
M  V30 43 H 6.436201 0.720192 3.155881 0
M  V30 44 H 3.732809 1.466364 2.411617 0
M  V30 45 H 8.144228 3.122893 -0.182128 0
M  V30 46 H 4.420420 5.419302 -2.060136 0
M  V30 47 H 1.986346 5.422590 -1.623279 0
M  V30 48 H -2.421689 4.094959 -0.098395 0
M  V30 49 H -2.223139 4.599368 1.601190 0
M  V30 50 H -1.418739 2.111304 0.931087 0
M  V30 51 H -4.358572 -0.613035 2.345032 0
M  V30 52 H -3.675729 -3.618751 3.512506 0
M  V30 53 H -5.653357 -2.554553 1.611035 0
M  V30 54 H -5.754990 -4.338846 2.098763 0
M  V30 55 H -3.976701 -3.070464 -0.030653 0
M  V30 56 H -5.440115 -4.010724 -0.379839 0
M  V30 57 H -4.160837 -5.841679 -1.586830 0
M  V30 58 H -3.118056 -4.395857 -1.479150 0
M  V30 59 H -2.450161 -5.985362 -1.058137 0
M  V30 60 H -5.565394 -6.065872 0.655045 0
M  V30 61 H -4.221981 -7.136397 0.200204 0
M  V30 62 H -4.299399 -6.446241 1.897083 0
M  V30 63 H 0.571133 -3.221001 1.534360 0
M  V30 64 H 1.077077 -1.512653 1.083575 0
M  V30 65 H 1.386551 -0.833680 -1.156071 0
M  V30 66 H 1.550505 -1.352791 -3.498805 0
M  V30 67 H -0.548533 -4.567852 -0.434894 0
M  V30 68 H 2.563211 2.612025 1.403488 0
M  V30 END ATOM
M  V30 BEGIN BOND
M  V30 1 1 1 2
M  V30 2 1 2 3
M  V30 3 2 3 4
M  V30 4 1 4 5
M  V30 5 2 5 6
M  V30 6 1 6 7
M  V30 7 2 7 8
M  V30 8 1 8 9
M  V30 9 2 9 10
M  V30 10 1 10 11
M  V30 11 3 11 12
M  V30 12 1 12 13
M  V30 13 1 13 14
M  V30 14 1 14 15
M  V30 15 2 15 16
M  V30 16 1 15 17
M  V30 17 2 17 18
M  V30 18 1 18 19
M  V30 19 1 19 20
M  V30 20 1 20 21
M  V30 21 1 21 22
M  V30 22 1 22 23
M  V30 23 1 23 24
M  V30 24 1 23 25
M  V30 25 2 19 26
M  V30 26 1 26 27
M  V30 27 1 27 28
M  V30 28 1 28 29
M  V30 29 2 29 30
M  V30 30 1 30 31
M  V30 31 2 31 32
M  V30 32 1 32 33
M  V30 33 1 32 34
M  V30 34 1 34 35
M  V30 35 2 34 36
M  V30 36 1 27 37
M  V30 37 2 37 38
M  V30 38 1 10 39
M  V30 39 2 39 40
M  V30 40 1 40 3
M  V30 41 1 40 7
M  V30 42 1 37 17
M  V30 43 1 36 29
M  V30 44 1 1 41
M  V30 45 1 1 42
M  V30 46 1 1 43
M  V30 47 1 2 44
M  V30 48 1 5 45
M  V30 49 1 8 46
M  V30 50 1 9 47
M  V30 51 1 13 48
M  V30 52 1 13 49
M  V30 53 1 14 50
M  V30 54 1 18 51
M  V30 55 1 20 52
M  V30 56 1 21 53
M  V30 57 1 21 54
M  V30 58 1 22 55
M  V30 59 1 22 56
M  V30 60 1 24 57
M  V30 61 1 24 58
M  V30 62 1 24 59
M  V30 63 1 25 60
M  V30 64 1 25 61
M  V30 65 1 25 62
M  V30 66 1 28 63
M  V30 67 1 28 64
M  V30 68 1 30 65
M  V30 69 1 31 66
M  V30 70 1 36 67
M  V30 71 1 39 68
M  V30 END BOND
M  V30 END CTAB
M  END
>  <Dataset>  (551) 
ChEMBL_Kinases

>  <Ligand_Instance>  (551) 
nan

>  <PDB_ID>  (551) 
nan

>  <Standardized_SMILES>  (551) 
CNc1ncnc2ccc(C#CCNC(=O)c3cc(NCCN(C)C)nn(Cc4ccc(F)c(F)c4)c3=O)cc12

>  <Name>  (551) 
nan

>  <Pocket>  (551) 
nan

>  <ATP_Site>  (551) 
nan

>  <Peripheral>  (551) 
nan

>  <Num_H_Atoms_ProtBoundConf>  (551) 
nan

>  <Num_Resolved_Atoms>  (551) 
nan

>  <Num_Not_Resolved_Atoms>  (551) 
nan

$$$$
CHEMBL3640493
     RDKit          3D

  0  0  0  0  0  0  0  0  0  0999 V3000
M  V30 BEGIN CTAB
M  V30 COUNTS 66 69 0 0 0
M  V30 BEGIN ATOM
M  V30 1 C 2.849216 0.090265 4.947680 0
M  V30 2 C 3.679688 -1.062202 4.523901 0
M  V30 3 N 3.281059 -1.787747 3.340982 0
M  V30 4 C 2.042744 -2.544780 3.424135 0
M  V30 5 C 0.810926 -1.698688 3.562406 0
M  V30 6 C 4.181846 -1.681181 2.242758 0
M  V30 7 N 5.057562 -2.733372 2.337230 0
M  V30 8 C 6.070518 -2.833409 1.427604 0
M  V30 9 N 6.257587 -1.941444 0.431722 0
M  V30 10 C 5.384102 -0.881708 0.325017 0
M  V30 11 C 5.467946 0.058731 -0.666722 0
M  V30 12 C 4.535069 1.094529 -0.752851 0
M  V30 13 C 3.536193 1.116910 0.206410 0
M  V30 14 C 2.509769 2.134020 0.038516 0
M  V30 15 C 1.652499 2.967948 -0.101241 0
M  V30 16 C 0.564660 3.989687 -0.284968 0
M  V30 17 N -0.321952 3.417474 -1.350520 0
M  V30 18 C -0.833870 2.199829 -0.991496 0
M  V30 19 O -0.606236 1.658620 0.143765 0
M  V30 20 C -1.540523 1.002999 -1.090476 0
M  V30 21 C -1.730445 1.339606 -2.548120 0
M  V30 22 C -2.415408 0.604107 -3.572518 0
M  V30 23 C -3.012091 -0.620305 -3.195299 0
M  V30 24 N -2.876951 -0.970356 -1.912538 0
M  V30 25 C -3.342468 -2.122977 -1.176065 0 CFG=2
M  V30 26 C -3.369699 -3.322685 -2.136490 0
M  V30 27 O -2.036972 -3.460244 -2.582438 0
M  V30 28 C -4.708034 -1.892136 -0.603858 0
M  V30 29 C -5.319504 -3.045909 -0.100545 0
M  V30 30 C -6.578392 -2.858228 0.430410 0
M  V30 31 C -7.303296 -1.681073 0.527347 0
M  V30 32 C -6.631472 -0.566922 0.005398 0
M  V30 33 C -5.374170 -0.692300 -0.537841 0
M  V30 34 C -2.209065 -0.128653 -1.184929 0
M  V30 35 O -1.974122 -0.307711 0.091779 0
M  V30 36 C 3.388759 0.215530 1.232302 0
M  V30 37 C 4.358749 -0.767433 1.232845 0
M  V30 38 H 3.486821 0.992792 5.230258 0
M  V30 39 H 2.311644 -0.104234 5.927190 0
M  V30 40 H 2.171390 0.450132 4.181356 0
M  V30 41 H 3.712206 -1.820414 5.384350 0
M  V30 42 H 4.759231 -0.716341 4.474860 0
M  V30 43 H 2.145421 -3.209165 4.298533 0
M  V30 44 H 1.867166 -3.168513 2.493457 0
M  V30 45 H 0.723257 -0.925793 2.804412 0
M  V30 46 H 0.686348 -1.336959 4.607067 0
M  V30 47 H -0.051355 -2.404492 3.416181 0
M  V30 48 H 6.802703 -3.627548 1.428026 0
M  V30 49 H 6.293397 -0.031127 -1.390693 0
M  V30 50 H 4.594976 1.837945 -1.534218 0
M  V30 51 H -0.025113 4.044298 0.623980 0
M  V30 52 H 1.031074 4.886658 -0.662353 0
M  V30 53 H -0.736936 3.549231 -2.294073 0
M  V30 54 H -1.478366 2.135844 -3.338423 0
M  V30 55 H -2.666408 0.659055 -4.646002 0
M  V30 56 H -3.569950 -1.345539 -3.735742 0
M  V30 57 H -2.673350 -2.373926 -0.329462 0
M  V30 58 H -3.992291 -3.135479 -2.994724 0
M  V30 59 H -3.685512 -4.224037 -1.600206 0
M  V30 60 H -1.857188 -4.372302 -2.913053 0
M  V30 61 H -4.953948 -4.073665 -0.061865 0
M  V30 62 H -7.121831 -3.723762 0.843234 0
M  V30 63 H -8.280800 -1.650230 0.969817 0
M  V30 64 H -7.134309 0.390010 0.045477 0
M  V30 65 H -4.856129 0.172079 -0.939311 0
M  V30 66 H 2.610413 0.262389 1.945870 0
M  V30 END ATOM
M  V30 BEGIN BOND
M  V30 1 1 1 2
M  V30 2 1 2 3
M  V30 3 1 3 4
M  V30 4 1 4 5
M  V30 5 1 3 6
M  V30 6 2 6 7
M  V30 7 1 7 8
M  V30 8 2 8 9
M  V30 9 1 9 10
M  V30 10 2 10 11
M  V30 11 1 11 12
M  V30 12 2 12 13
M  V30 13 1 13 14
M  V30 14 3 14 15
M  V30 15 1 15 16
M  V30 16 1 16 17
M  V30 17 1 17 18
M  V30 18 2 18 19
M  V30 19 1 18 20
M  V30 20 2 20 21
M  V30 21 1 21 22
M  V30 22 2 22 23
M  V30 23 1 23 24
M  V30 24 1 24 25
M  V30 25 1 25 26
M  V30 26 1 26 27
M  V30 27 1 25 28
M  V30 28 2 28 29
M  V30 29 1 29 30
M  V30 30 2 30 31
M  V30 31 1 31 32
M  V30 32 2 32 33
M  V30 33 1 24 34
M  V30 34 2 34 35
M  V30 35 1 13 36
M  V30 36 2 36 37
M  V30 37 1 37 6
M  V30 38 1 37 10
M  V30 39 1 34 20
M  V30 40 1 33 28
M  V30 41 1 1 38
M  V30 42 1 1 39
M  V30 43 1 1 40
M  V30 44 1 2 41
M  V30 45 1 2 42
M  V30 46 1 4 43
M  V30 47 1 4 44
M  V30 48 1 5 45
M  V30 49 1 5 46
M  V30 50 1 5 47
M  V30 51 1 8 48
M  V30 52 1 11 49
M  V30 53 1 12 50
M  V30 54 1 16 51
M  V30 55 1 16 52
M  V30 56 1 17 53
M  V30 57 1 21 54
M  V30 58 1 22 55
M  V30 59 1 23 56
M  V30 60 1 25 57 CFG=1
M  V30 61 1 26 58
M  V30 62 1 26 59
M  V30 63 1 27 60
M  V30 64 1 29 61
M  V30 65 1 30 62
M  V30 66 1 31 63
M  V30 67 1 32 64
M  V30 68 1 33 65
M  V30 69 1 36 66
M  V30 END BOND
M  V30 END CTAB
M  END
>  <Dataset>  (552) 
ChEMBL_Kinases

>  <Ligand_Instance>  (552) 
nan

>  <PDB_ID>  (552) 
nan

>  <Standardized_SMILES>  (552) 
CCN(CC)c1ncnc2ccc(C#CCNC(=O)c3cccn([C@H](CO)c4ccccc4)c3=O)cc12

>  <Name>  (552) 
nan

>  <Pocket>  (552) 
nan

>  <ATP_Site>  (552) 
nan

>  <Peripheral>  (552) 
nan

>  <Num_H_Atoms_ProtBoundConf>  (552) 
nan

>  <Num_Resolved_Atoms>  (552) 
nan

>  <Num_Not_Resolved_Atoms>  (552) 
nan

$$$$
CHEMBL3640492
     RDKit          3D

  0  0  0  0  0  0  0  0  0  0999 V3000
M  V30 BEGIN CTAB
M  V30 COUNTS 65 68 0 0 0
M  V30 BEGIN ATOM
M  V30 1 C 2.285304 0.658914 3.966267 0
M  V30 2 C 3.758277 0.648472 3.882044 0
M  V30 3 N 4.377178 -0.181907 2.888738 0
M  V30 4 C 4.200774 -1.611381 3.136838 0
M  V30 5 C 2.806588 -2.104502 2.970457 0
M  V30 6 C 5.160473 0.120192 1.712303 0
M  V30 7 N 6.418170 -0.338959 1.904361 0
M  V30 8 C 7.332133 -0.146175 0.920146 0
M  V30 9 N 7.100135 0.478674 -0.268390 0
M  V30 10 C 5.839223 0.928292 -0.439199 0
M  V30 11 C 5.408049 1.574455 -1.562700 0
M  V30 12 C 4.087725 2.022142 -1.707113 0
M  V30 13 C 3.169954 1.816695 -0.694080 0
M  V30 14 C 1.803904 2.271741 -0.838516 0
M  V30 15 C 0.659307 2.630920 -0.958035 0
M  V30 16 C -0.752361 3.047252 -1.100626 0
M  V30 17 N -1.593320 1.849373 -1.209854 0
M  V30 18 C -2.997091 1.948638 -1.355098 0
M  V30 19 O -3.350158 3.177717 -1.369652 0
M  V30 20 C -3.948234 0.858135 -1.474337 0
M  V30 21 C -5.287933 1.260379 -1.603361 0
M  V30 22 C -6.298813 0.332719 -1.722959 0
M  V30 23 C -6.036716 -1.010674 -1.720706 0
M  V30 24 N -4.742047 -1.375123 -1.595680 0
M  V30 25 C -4.400109 -2.805056 -1.589297 0 CFG=1
M  V30 26 C -3.141792 -3.103193 -2.330955 0
M  V30 27 C -4.445356 -3.343941 -0.207895 0
M  V30 28 C -5.615133 -3.834127 0.343663 0
M  V30 29 C -5.689227 -4.343985 1.623607 0
M  V30 30 C -4.568315 -4.385795 2.424802 0
M  V30 31 C -3.376255 -3.910066 1.923698 0
M  V30 32 C -3.343048 -3.408223 0.639348 0
M  V30 33 C -3.763313 -0.493830 -1.480203 0
M  V30 34 O -2.592259 -0.860261 -1.367979 0
M  V30 35 C 3.573791 1.170453 0.448151 0
M  V30 36 C 4.878933 0.756949 0.527659 0
M  V30 37 H 1.930852 0.181828 4.925509 0
M  V30 38 H 1.722532 0.242049 3.118717 0
M  V30 39 H 1.877900 1.714753 4.061379 0
M  V30 40 H 4.191234 0.336579 4.873082 0
M  V30 41 H 4.098906 1.722360 3.793978 0
M  V30 42 H 4.851352 -2.200417 2.469656 0
M  V30 43 H 4.499800 -1.853875 4.188239 0
M  V30 44 H 2.297445 -1.794185 2.041078 0
M  V30 45 H 2.224620 -1.952933 3.892940 0
M  V30 46 H 2.896279 -3.230551 2.851971 0
M  V30 47 H 8.368575 -0.495398 1.018015 0
M  V30 48 H 6.096124 1.755482 -2.379697 0
M  V30 49 H 3.784572 2.538334 -2.631321 0
M  V30 50 H -1.002071 3.609942 -0.187699 0
M  V30 51 H -0.906313 3.662134 -1.984681 0
M  V30 52 H -1.167219 0.909296 -1.181705 0
M  V30 53 H -5.623671 2.306148 -1.619362 0
M  V30 54 H -7.322890 0.624094 -1.821710 0
M  V30 55 H -6.832930 -1.753467 -1.815074 0
M  V30 56 H -5.233404 -3.322814 -2.151630 0
M  V30 57 H -3.078333 -2.388520 -3.182341 0
M  V30 58 H -3.240326 -4.106607 -2.822270 0
M  V30 59 H -2.227096 -3.144245 -1.741941 0
M  V30 60 H -6.520141 -3.814708 -0.264381 0
M  V30 61 H -6.660360 -4.711850 1.981374 0
M  V30 62 H -4.596160 -4.776115 3.424525 0
M  V30 63 H -2.493992 -3.939043 2.543231 0
M  V30 64 H -2.389127 -3.044562 0.281691 0
M  V30 65 H 2.854342 1.023571 1.207772 0
M  V30 END ATOM
M  V30 BEGIN BOND
M  V30 1 1 1 2
M  V30 2 1 2 3
M  V30 3 1 3 4
M  V30 4 1 4 5
M  V30 5 1 3 6
M  V30 6 2 6 7
M  V30 7 1 7 8
M  V30 8 2 8 9
M  V30 9 1 9 10
M  V30 10 2 10 11
M  V30 11 1 11 12
M  V30 12 2 12 13
M  V30 13 1 13 14
M  V30 14 3 14 15
M  V30 15 1 15 16
M  V30 16 1 16 17
M  V30 17 1 17 18
M  V30 18 2 18 19
M  V30 19 1 18 20
M  V30 20 2 20 21
M  V30 21 1 21 22
M  V30 22 2 22 23
M  V30 23 1 23 24
M  V30 24 1 24 25
M  V30 25 1 25 26
M  V30 26 1 25 27
M  V30 27 2 27 28
M  V30 28 1 28 29
M  V30 29 2 29 30
M  V30 30 1 30 31
M  V30 31 2 31 32
M  V30 32 1 24 33
M  V30 33 2 33 34
M  V30 34 1 13 35
M  V30 35 2 35 36
M  V30 36 1 36 6
M  V30 37 1 36 10
M  V30 38 1 33 20
M  V30 39 1 32 27
M  V30 40 1 1 37
M  V30 41 1 1 38
M  V30 42 1 1 39
M  V30 43 1 2 40
M  V30 44 1 2 41
M  V30 45 1 4 42
M  V30 46 1 4 43
M  V30 47 1 5 44
M  V30 48 1 5 45
M  V30 49 1 5 46
M  V30 50 1 8 47
M  V30 51 1 11 48
M  V30 52 1 12 49
M  V30 53 1 16 50
M  V30 54 1 16 51
M  V30 55 1 17 52
M  V30 56 1 21 53
M  V30 57 1 22 54
M  V30 58 1 23 55
M  V30 59 1 25 56 CFG=3
M  V30 60 1 26 57
M  V30 61 1 26 58
M  V30 62 1 26 59
M  V30 63 1 28 60
M  V30 64 1 29 61
M  V30 65 1 30 62
M  V30 66 1 31 63
M  V30 67 1 32 64
M  V30 68 1 35 65
M  V30 END BOND
M  V30 END CTAB
M  END
>  <Dataset>  (553) 
ChEMBL_Kinases

>  <Ligand_Instance>  (553) 
nan

>  <PDB_ID>  (553) 
nan

>  <Standardized_SMILES>  (553) 
CCN(CC)c1ncnc2ccc(C#CCNC(=O)c3cccn([C@@H](C)c4ccccc4)c3=O)cc12

>  <Name>  (553) 
nan

>  <Pocket>  (553) 
nan

>  <ATP_Site>  (553) 
nan

>  <Peripheral>  (553) 
nan

>  <Num_H_Atoms_ProtBoundConf>  (553) 
nan

>  <Num_Resolved_Atoms>  (553) 
nan

>  <Num_Not_Resolved_Atoms>  (553) 
nan

$$$$
CHEMBL3640491
     RDKit          3D

  0  0  0  0  0  0  0  0  0  0999 V3000
M  V30 BEGIN CTAB
M  V30 COUNTS 65 68 0 0 0
M  V30 BEGIN ATOM
M  V30 1 C 2.825629 0.536893 5.816248 0
M  V30 2 C 1.564292 0.103052 5.084342 0
M  V30 3 N 1.827902 -0.282712 3.710140 0
M  V30 4 C 0.561664 -0.684352 3.127794 0
M  V30 5 C 0.016265 -1.967109 3.742932 0
M  V30 6 C 3.201492 -0.174142 3.283348 0
M  V30 7 N 4.180783 -0.882685 3.868338 0
M  V30 8 C 5.468012 -0.772680 3.464072 0
M  V30 9 N 5.796530 0.070440 2.442829 0
M  V30 10 C 4.874710 0.804056 1.816934 0
M  V30 11 C 5.206010 1.660213 0.775057 0
M  V30 12 C 4.254906 2.417479 0.122691 0
M  V30 13 C 2.948643 2.305093 0.533241 0
M  V30 14 C 1.794993 2.973287 -0.000537 0
M  V30 15 C 0.817312 3.514964 -0.445991 0
M  V30 16 C -0.391960 4.161584 -0.977361 0
M  V30 17 N -0.922387 3.357018 -2.102889 0
M  V30 18 C -1.115058 2.058628 -1.716661 0
M  V30 19 O -0.828020 1.666607 -0.521995 0
M  V30 20 C -1.464967 0.700636 -1.787741 0
M  V30 21 C -1.978693 0.962060 -3.177157 0
M  V30 22 C -2.578234 0.014130 -4.084467 0
M  V30 23 C -2.703014 -1.320689 -3.621890 0
M  V30 24 N -2.255835 -1.623940 -2.369043 0
M  V30 25 C -2.226748 -2.854865 -1.657515 0
M  V30 26 C -1.330937 -3.876931 -2.386207 0
M  V30 27 C -3.572980 -3.457469 -1.441543 0
M  V30 28 C -4.307133 -3.126957 -0.301735 0
M  V30 29 C -5.533650 -3.732534 -0.164830 0
M  V30 30 C -6.022533 -4.619489 -1.096216 0
M  V30 31 F -7.207763 -5.252006 -1.037522 0
M  V30 32 C -5.290676 -4.949469 -2.232137 0
M  V30 33 F -5.691004 -5.810223 -3.199064 0
M  V30 34 C -4.040592 -4.355673 -2.407163 0
M  V30 35 C -1.782834 -0.529610 -1.854739 0
M  V30 36 O -1.294510 -0.657078 -0.617308 0
M  V30 37 C 2.618085 1.440994 1.584232 0
M  V30 38 C 3.562779 0.682148 2.239735 0
M  V30 39 H 2.544696 1.167848 6.702599 0
M  V30 40 H 3.489357 1.141790 5.185915 0
M  V30 41 H 3.393555 -0.372561 6.174715 0
M  V30 42 H 0.736828 0.823286 5.193218 0
M  V30 43 H 1.235468 -0.846650 5.599654 0
M  V30 44 H -0.233307 0.089145 3.280048 0
M  V30 45 H 0.612870 -0.859143 2.028034 0
M  V30 46 H -0.390498 -1.700114 4.744772 0
M  V30 47 H -0.914833 -2.194086 3.140113 0
M  V30 48 H 0.705678 -2.807743 3.730132 0
M  V30 49 H 6.148865 -1.380980 4.006286 0
M  V30 50 H 6.211091 1.767402 0.433487 0
M  V30 51 H 4.389896 3.110858 -0.688461 0
M  V30 52 H -0.049844 5.098525 -1.457754 0
M  V30 53 H -1.150637 4.323073 -0.204700 0
M  V30 54 H -1.233466 3.292966 -3.093867 0
M  V30 55 H -2.110582 1.786616 -3.961975 0
M  V30 56 H -3.009458 -0.022421 -5.102591 0
M  V30 57 H -3.115870 -2.191915 -4.124544 0
M  V30 58 H -1.786448 -2.773871 -0.637278 0
M  V30 59 H -1.366024 -3.753797 -3.473704 0
M  V30 60 H -1.637967 -4.908180 -2.059337 0
M  V30 61 H -0.285007 -3.700164 -2.044027 0
M  V30 62 H -3.892325 -2.427225 0.408265 0
M  V30 63 H -6.149844 -3.516061 0.699538 0
M  V30 64 H -3.417624 -4.554832 -3.249298 0
M  V30 65 H 1.613890 1.301757 1.965330 0
M  V30 END ATOM
M  V30 BEGIN BOND
M  V30 1 1 1 2
M  V30 2 1 2 3
M  V30 3 1 3 4
M  V30 4 1 4 5
M  V30 5 1 3 6
M  V30 6 2 6 7
M  V30 7 1 7 8
M  V30 8 2 8 9
M  V30 9 1 9 10
M  V30 10 2 10 11
M  V30 11 1 11 12
M  V30 12 2 12 13
M  V30 13 1 13 14
M  V30 14 3 14 15
M  V30 15 1 15 16
M  V30 16 1 16 17
M  V30 17 1 17 18
M  V30 18 2 18 19
M  V30 19 1 18 20
M  V30 20 2 20 21
M  V30 21 1 21 22
M  V30 22 2 22 23
M  V30 23 1 23 24
M  V30 24 1 24 25
M  V30 25 1 25 26
M  V30 26 1 25 27
M  V30 27 2 27 28
M  V30 28 1 28 29
M  V30 29 2 29 30
M  V30 30 1 30 31
M  V30 31 1 30 32
M  V30 32 1 32 33
M  V30 33 2 32 34
M  V30 34 1 24 35
M  V30 35 2 35 36
M  V30 36 1 13 37
M  V30 37 2 37 38
M  V30 38 1 38 6
M  V30 39 1 38 10
M  V30 40 1 35 20
M  V30 41 1 34 27
M  V30 42 1 1 39
M  V30 43 1 1 40
M  V30 44 1 1 41
M  V30 45 1 2 42
M  V30 46 1 2 43
M  V30 47 1 4 44
M  V30 48 1 4 45
M  V30 49 1 5 46
M  V30 50 1 5 47
M  V30 51 1 5 48
M  V30 52 1 8 49
M  V30 53 1 11 50
M  V30 54 1 12 51
M  V30 55 1 16 52
M  V30 56 1 16 53
M  V30 57 1 17 54
M  V30 58 1 21 55
M  V30 59 1 22 56
M  V30 60 1 23 57
M  V30 61 1 25 58
M  V30 62 1 26 59
M  V30 63 1 26 60
M  V30 64 1 26 61
M  V30 65 1 28 62
M  V30 66 1 29 63
M  V30 67 1 34 64
M  V30 68 1 37 65
M  V30 END BOND
M  V30 END CTAB
M  END
>  <Dataset>  (554) 
ChEMBL_Kinases

>  <Ligand_Instance>  (554) 
nan

>  <PDB_ID>  (554) 
nan

>  <Standardized_SMILES>  (554) 
CCN(CC)c1ncnc2ccc(C#CCNC(=O)c3cccn(C(C)c4ccc(F)c(F)c4)c3=O)cc12

>  <Name>  (554) 
nan

>  <Pocket>  (554) 
nan

>  <ATP_Site>  (554) 
nan

>  <Peripheral>  (554) 
nan

>  <Num_H_Atoms_ProtBoundConf>  (554) 
nan

>  <Num_Resolved_Atoms>  (554) 
nan

>  <Num_Not_Resolved_Atoms>  (554) 
nan

$$$$
CHEMBL3640473
     RDKit          3D

  0  0  0  0  0  0  0  0  0  0999 V3000
M  V30 BEGIN CTAB
M  V30 COUNTS 64 68 0 0 0
M  V30 BEGIN ATOM
M  V30 1 C 3.552384 -1.723812 4.825402 0
M  V30 2 C 2.235361 -1.044258 4.823058 0
M  V30 3 C 2.132494 0.395680 4.415536 0
M  V30 4 N 2.579931 0.590646 3.088835 0
M  V30 5 C 3.893331 0.611149 2.566918 0
M  V30 6 N 5.004601 0.475412 3.303636 0
M  V30 7 C 6.256695 0.514906 2.836807 0
M  V30 8 N 6.476137 0.704335 1.524435 0
M  V30 9 C 5.407281 0.852281 0.698313 0
M  V30 10 C 5.666449 1.044514 -0.640552 0
M  V30 11 C 4.634690 1.202091 -1.540512 0
M  V30 12 C 3.346680 1.158175 -1.041090 0
M  V30 13 C 2.288309 1.323093 -2.000792 0
M  V30 14 C 1.414028 1.472275 -2.817340 0
M  V30 15 C 0.369177 1.662280 -3.825544 0
M  V30 16 N -0.889703 1.050389 -3.466524 0
M  V30 17 C -1.614806 1.407856 -2.303387 0
M  V30 18 O -0.994322 2.320518 -1.657645 0
M  V30 19 C -2.881299 0.868044 -1.840136 0
M  V30 20 C -3.379492 1.408501 -0.654431 0
M  V30 21 C -4.576411 0.964402 -0.133628 0
M  V30 22 C -5.327515 -0.012716 -0.739588 0
M  V30 23 N -4.841875 -0.524352 -1.874827 0
M  V30 24 C -5.582573 -1.554695 -2.559829 0
M  V30 25 C -5.196133 -2.911262 -2.097988 0
M  V30 26 C -4.206447 -3.693727 -2.655345 0
M  V30 27 C -3.883926 -4.937764 -2.195351 0
M  V30 28 C -4.547729 -5.492810 -1.121644 0
M  V30 29 F -4.167109 -6.730086 -0.729232 0
M  V30 30 C -5.554912 -4.726818 -0.535207 0
M  V30 31 F -6.167360 -5.329702 0.513268 0
M  V30 32 C -5.860760 -3.467773 -1.022497 0
M  V30 33 C -3.687305 -0.101440 -2.384349 0
M  V30 34 O -3.257420 -0.600404 -3.451367 0
M  V30 35 C 3.152436 0.962959 0.308732 0
M  V30 36 C 4.150362 0.803944 1.225389 0
M  V30 37 C 1.294905 -1.441341 5.950971 0
M  V30 38 O 1.064533 -2.620446 5.242534 0
M  V30 39 C 1.156322 -1.835098 4.080593 0
M  V30 40 H 4.329528 -1.193169 5.371284 0
M  V30 41 H 3.857749 -1.968403 3.799708 0
M  V30 42 H 3.378457 -2.740091 5.319412 0
M  V30 43 H 2.640570 1.067723 5.157442 0
M  V30 44 H 1.046444 0.647774 4.552139 0
M  V30 45 H 1.784300 0.733824 2.445081 0
M  V30 46 H 6.989037 0.384681 3.597642 0
M  V30 47 H 6.706206 1.070464 -0.981759 0
M  V30 48 H 4.844939 1.352883 -2.589653 0
M  V30 49 H 0.145216 2.744736 -3.985871 0
M  V30 50 H 0.760495 1.230200 -4.753182 0
M  V30 51 H -1.278611 0.326264 -4.076882 0
M  V30 52 H -2.857048 2.181151 -0.109488 0
M  V30 53 H -4.942235 1.397477 0.785103 0
M  V30 54 H -6.251874 -0.321430 -0.291548 0
M  V30 55 H -5.346179 -1.481510 -3.646684 0
M  V30 56 H -6.676819 -1.385009 -2.448415 0
M  V30 57 H -3.666279 -3.306180 -3.490023 0
M  V30 58 H -3.087184 -5.499023 -2.687532 0
M  V30 59 H -6.657746 -2.942033 -0.506025 0
M  V30 60 H 2.107180 0.948674 0.568149 0
M  V30 61 H 0.408852 -0.784641 5.951644 0
M  V30 62 H 1.770600 -1.537384 6.933899 0
M  V30 63 H 0.251428 -1.217878 3.929265 0
M  V30 64 H 1.494427 -2.339426 3.174385 0
M  V30 END ATOM
M  V30 BEGIN BOND
M  V30 1 1 1 2
M  V30 2 1 2 3
M  V30 3 1 3 4
M  V30 4 1 4 5
M  V30 5 2 5 6
M  V30 6 1 6 7
M  V30 7 2 7 8
M  V30 8 1 8 9
M  V30 9 2 9 10
M  V30 10 1 10 11
M  V30 11 2 11 12
M  V30 12 1 12 13
M  V30 13 3 13 14
M  V30 14 1 14 15
M  V30 15 1 15 16
M  V30 16 1 16 17
M  V30 17 2 17 18
M  V30 18 1 17 19
M  V30 19 2 19 20
M  V30 20 1 20 21
M  V30 21 2 21 22
M  V30 22 1 22 23
M  V30 23 1 23 24
M  V30 24 1 24 25
M  V30 25 2 25 26
M  V30 26 1 26 27
M  V30 27 2 27 28
M  V30 28 1 28 29
M  V30 29 1 28 30
M  V30 30 1 30 31
M  V30 31 2 30 32
M  V30 32 1 23 33
M  V30 33 2 33 34
M  V30 34 1 12 35
M  V30 35 2 35 36
M  V30 36 1 2 37
M  V30 37 1 37 38
M  V30 38 1 38 39
M  V30 39 1 39 2
M  V30 40 1 36 5
M  V30 41 1 36 9
M  V30 42 1 33 19
M  V30 43 1 32 25
M  V30 44 1 1 40
M  V30 45 1 1 41
M  V30 46 1 1 42
M  V30 47 1 3 43
M  V30 48 1 3 44
M  V30 49 1 4 45
M  V30 50 1 7 46
M  V30 51 1 10 47
M  V30 52 1 11 48
M  V30 53 1 15 49
M  V30 54 1 15 50
M  V30 55 1 16 51
M  V30 56 1 20 52
M  V30 57 1 21 53
M  V30 58 1 22 54
M  V30 59 1 24 55
M  V30 60 1 24 56
M  V30 61 1 26 57
M  V30 62 1 27 58
M  V30 63 1 32 59
M  V30 64 1 35 60
M  V30 65 1 37 61
M  V30 66 1 37 62
M  V30 67 1 39 63
M  V30 68 1 39 64
M  V30 END BOND
M  V30 END CTAB
M  END
>  <Dataset>  (555) 
ChEMBL_Kinases

>  <Ligand_Instance>  (555) 
nan

>  <PDB_ID>  (555) 
nan

>  <Standardized_SMILES>  (555) 
CC1(CNc2ncnc3ccc(C#CCNC(=O)c4cccn(Cc5ccc(F)c(F)c5)c4=O)cc23)COC1

>  <Name>  (555) 
nan

>  <Pocket>  (555) 
nan

>  <ATP_Site>  (555) 
nan

>  <Peripheral>  (555) 
nan

>  <Num_H_Atoms_ProtBoundConf>  (555) 
nan

>  <Num_Resolved_Atoms>  (555) 
nan

>  <Num_Not_Resolved_Atoms>  (555) 
nan

$$$$
CHEMBL3640474
     RDKit          3D

  0  0  0  0  0  0  0  0  0  0999 V3000
M  V30 BEGIN CTAB
M  V30 COUNTS 61 64 0 0 0
M  V30 BEGIN ATOM
M  V30 1 O -1.751718 -5.681231 2.279788 0
M  V30 2 C -0.948505 -5.001299 1.516079 0
M  V30 3 N -0.133310 -4.035919 2.096342 0
M  V30 4 C -0.172031 -3.847183 3.577228 0
M  V30 5 C 0.567390 -2.593898 3.876463 0
M  V30 6 C 1.157408 -1.560714 4.105381 0
M  V30 7 C 1.836810 -0.322227 4.387280 0
M  V30 8 C 2.978816 -0.113756 5.123221 0
M  V30 9 C 3.438483 1.199846 5.250761 0
M  V30 10 C 2.851415 2.325807 4.700236 0
M  V30 11 N 3.296522 3.545651 4.816605 0
M  V30 12 C 2.669395 4.597590 4.236877 0
M  V30 13 N 1.541164 4.315271 3.516341 0
M  V30 14 C 1.087789 3.030779 3.402599 0
M  V30 15 N -0.084851 3.180429 2.601971 0
M  V30 16 C -1.229139 3.418372 1.803570 0
M  V30 17 C -0.826216 3.949594 0.419071 0
M  V30 18 O 0.006316 2.990177 -0.179594 0
M  V30 19 C -2.058105 4.152713 -0.423453 0
M  V30 20 O -1.658792 4.589238 -1.704200 0
M  V30 21 C 1.752641 2.013156 4.007010 0
M  V30 22 C 1.181643 0.774431 3.796459 0
M  V30 23 C -1.106866 -5.405379 0.133490 0
M  V30 24 C -2.073293 -6.322091 -0.299599 0
M  V30 25 C -2.268675 -6.659727 -1.610585 0
M  V30 26 C -1.469905 -6.063676 -2.561314 0
M  V30 27 N -0.486610 -5.146771 -2.238544 0
M  V30 28 C 0.303257 -4.639894 -3.332199 0
M  V30 29 C -0.107408 -3.285841 -3.794081 0
M  V30 30 C 0.574972 -2.146278 -3.328482 0
M  V30 31 C 0.291553 -0.817358 -3.662580 0
M  V30 32 C -0.800232 -0.767168 -4.552664 0
M  V30 33 F -1.139092 0.509111 -4.926184 0
M  V30 34 C -1.527582 -1.753764 -5.067747 0
M  V30 35 F -2.553517 -1.576234 -5.915736 0
M  V30 36 C -1.141412 -3.027311 -4.655450 0
M  V30 37 C -0.422159 -4.928318 -0.935269 0
M  V30 38 O 0.508018 -4.078670 -0.766786 0
M  V30 39 H 0.456665 -3.498793 1.430148 0
M  V30 40 H 0.378831 -4.656751 4.077504 0
M  V30 41 H -1.200390 -3.808494 3.943648 0
M  V30 42 H 3.396206 -1.002495 5.525491 0
M  V30 43 H 4.349615 1.328190 5.842606 0
M  V30 44 H 3.203728 5.506156 4.454312 0
M  V30 45 H -0.325089 2.193647 2.663802 0
M  V30 46 H -1.864528 2.526227 1.654918 0
M  V30 47 H -1.926321 4.186554 2.258298 0
M  V30 48 H -0.352978 4.918431 0.561411 0
M  V30 49 H -0.532265 2.513205 -0.875987 0
M  V30 50 H -2.649775 4.971550 0.039774 0
M  V30 51 H -2.665271 3.241896 -0.539276 0
M  V30 52 H -2.352193 5.228703 -2.064875 0
M  V30 53 H 0.299459 0.649822 3.218363 0
M  V30 54 H -2.728628 -6.821944 0.426084 0
M  V30 55 H -3.031922 -7.382341 -1.896189 0
M  V30 56 H -1.675339 -6.375986 -3.590572 0
M  V30 57 H 1.383108 -4.671002 -3.231946 0
M  V30 58 H 0.104477 -5.329130 -4.234623 0
M  V30 59 H 1.422193 -2.280115 -2.639399 0
M  V30 60 H 0.843194 0.020915 -3.282025 0
M  V30 61 H -1.644763 -3.936317 -4.998344 0
M  V30 END ATOM
M  V30 BEGIN BOND
M  V30 1 2 1 2
M  V30 2 1 2 3
M  V30 3 1 3 4
M  V30 4 1 4 5
M  V30 5 3 5 6
M  V30 6 1 6 7
M  V30 7 2 7 8
M  V30 8 1 8 9
M  V30 9 2 9 10
M  V30 10 1 10 11
M  V30 11 2 11 12
M  V30 12 1 12 13
M  V30 13 2 13 14
M  V30 14 1 14 15
M  V30 15 1 15 16
M  V30 16 1 16 17
M  V30 17 1 17 18
M  V30 18 1 17 19
M  V30 19 1 19 20
M  V30 20 1 14 21
M  V30 21 2 21 22
M  V30 22 1 2 23
M  V30 23 2 23 24
M  V30 24 1 24 25
M  V30 25 2 25 26
M  V30 26 1 26 27
M  V30 27 1 27 28
M  V30 28 1 28 29
M  V30 29 2 29 30
M  V30 30 1 30 31
M  V30 31 2 31 32
M  V30 32 1 32 33
M  V30 33 1 32 34
M  V30 34 1 34 35
M  V30 35 2 34 36
M  V30 36 1 27 37
M  V30 37 2 37 38
M  V30 38 1 22 7
M  V30 39 1 37 23
M  V30 40 1 21 10
M  V30 41 1 36 29
M  V30 42 1 3 39
M  V30 43 1 4 40
M  V30 44 1 4 41
M  V30 45 1 8 42
M  V30 46 1 9 43
M  V30 47 1 12 44
M  V30 48 1 15 45
M  V30 49 1 16 46
M  V30 50 1 16 47
M  V30 51 1 17 48
M  V30 52 1 18 49
M  V30 53 1 19 50
M  V30 54 1 19 51
M  V30 55 1 20 52
M  V30 56 1 22 53
M  V30 57 1 24 54
M  V30 58 1 25 55
M  V30 59 1 26 56
M  V30 60 1 28 57
M  V30 61 1 28 58
M  V30 62 1 30 59
M  V30 63 1 31 60
M  V30 64 1 36 61
M  V30 END BOND
M  V30 END CTAB
M  END
>  <Dataset>  (556) 
ChEMBL_Kinases

>  <Ligand_Instance>  (556) 
nan

>  <PDB_ID>  (556) 
nan

>  <Standardized_SMILES>  (556) 
O=C(NCC#Cc1ccc2ncnc(NCC(O)CO)c2c1)c1cccn(Cc2ccc(F)c(F)c2)c1=O

>  <Name>  (556) 
nan

>  <Pocket>  (556) 
nan

>  <ATP_Site>  (556) 
nan

>  <Peripheral>  (556) 
nan

>  <Num_H_Atoms_ProtBoundConf>  (556) 
nan

>  <Num_Resolved_Atoms>  (556) 
nan

>  <Num_Not_Resolved_Atoms>  (556) 
nan

$$$$
CHEMBL3640475
     RDKit          3D

  0  0  0  0  0  0  0  0  0  0999 V3000
M  V30 BEGIN CTAB
M  V30 COUNTS 68 72 0 0 0
M  V30 BEGIN ATOM
M  V30 1 C 4.115822 -3.157076 3.713252 0
M  V30 2 N 4.632028 -2.912959 2.394752 0
M  V30 3 C 5.920368 -3.543928 2.181265 0
M  V30 4 C 5.915707 -4.055544 0.722769 0
M  V30 5 C 4.750539 -3.203658 0.155244 0
M  V30 6 C 5.175968 -1.784272 0.173119 0
M  V30 7 N 4.157097 -0.884431 -0.331945 0
M  V30 8 C 4.658412 0.452364 -0.244374 0
M  V30 9 N 5.935173 0.812251 0.159529 0
M  V30 10 C 6.396237 2.031044 0.194770 0
M  V30 11 N 5.662579 3.106578 -0.166464 0
M  V30 12 C 4.371492 2.924827 -0.588564 0
M  V30 13 C 3.599275 4.000492 -0.927437 0
M  V30 14 C 2.313463 3.713544 -1.295364 0
M  V30 15 C 1.876492 2.409937 -1.305647 0
M  V30 16 C 0.440101 2.291856 -1.584585 0
M  V30 17 C -0.765675 2.189510 -1.794974 0
M  V30 18 C -2.176422 2.059039 -2.028738 0
M  V30 19 N -2.785848 0.887188 -1.427564 0
M  V30 20 C -2.642768 -0.508243 -1.776779 0
M  V30 21 O -1.916740 -0.669915 -2.735129 0
M  V30 22 C -3.412876 -1.362664 -0.903073 0
M  V30 23 C -3.417309 -2.694089 -1.359562 0
M  V30 24 C -4.147600 -3.667709 -0.746330 0
M  V30 25 C -4.933142 -3.379648 0.384868 0
M  V30 26 N -4.950432 -2.089007 0.863406 0
M  V30 27 C -5.607533 -1.618358 2.065464 0
M  V30 28 C -6.770247 -0.803126 1.742022 0
M  V30 29 C -8.124778 -1.031988 1.293884 0
M  V30 30 C -9.103329 -0.018387 1.120818 0
M  V30 31 C -8.726589 1.268711 1.398270 0
M  V30 32 F -9.884486 1.981163 1.157314 0
M  V30 33 C -7.461589 1.699742 1.844428 0
M  V30 34 F -7.499303 3.007272 2.001206 0
M  V30 35 C -6.754077 0.598104 1.925032 0
M  V30 36 C -4.202254 -1.249464 0.173075 0
M  V30 37 O -4.194967 -0.075029 0.584919 0
M  V30 38 C 2.673880 1.319076 -0.963828 0
M  V30 39 C 4.003971 1.625611 -0.583193 0
M  V30 40 C 3.801758 -3.480328 1.359441 0
M  V30 41 H 3.356862 -3.968321 3.672109 0
M  V30 42 H 4.987407 -3.561081 4.304143 0
M  V30 43 H 3.687675 -2.251963 4.175912 0
M  V30 44 H 6.197051 -4.319946 2.877261 0
M  V30 45 H 6.713990 -2.729307 2.170246 0
M  V30 46 H 5.602016 -5.110440 0.764244 0
M  V30 47 H 6.865624 -3.863391 0.210339 0
M  V30 48 H 4.372137 -3.590845 -0.772753 0
M  V30 49 H 5.427526 -1.433369 1.197459 0
M  V30 50 H 6.077974 -1.630319 -0.452502 0
M  V30 51 H 3.227555 -1.142827 -0.687818 0
M  V30 52 H 7.410137 1.958126 0.578338 0
M  V30 53 H 4.075397 4.965818 -0.875314 0
M  V30 54 H 1.690789 4.550497 -1.566970 0
M  V30 55 H -2.704373 3.004012 -1.922776 0
M  V30 56 H -2.352115 1.834391 -3.167151 0
M  V30 57 H -3.327680 1.376244 -0.690824 0
M  V30 58 H -2.885079 -3.163038 -2.206194 0
M  V30 59 H -4.246948 -4.743970 -0.999674 0
M  V30 60 H -5.552176 -4.075257 0.949270 0
M  V30 61 H -4.981578 -1.087500 2.774348 0
M  V30 62 H -6.048776 -2.561215 2.557318 0
M  V30 63 H -8.230670 -2.121278 1.120708 0
M  V30 64 H -10.015628 -0.494905 0.789313 0
M  V30 65 H -5.782969 0.989440 2.320128 0
M  V30 66 H 2.109867 0.430514 -1.056735 0
M  V30 67 H 3.756281 -4.591766 1.403104 0
M  V30 68 H 2.830086 -3.037657 1.223943 0
M  V30 END ATOM
M  V30 BEGIN BOND
M  V30 1 1 1 2
M  V30 2 1 2 3
M  V30 3 1 3 4
M  V30 4 1 4 5
M  V30 5 1 5 6
M  V30 6 1 6 7
M  V30 7 1 7 8
M  V30 8 2 8 9
M  V30 9 1 9 10
M  V30 10 2 10 11
M  V30 11 1 11 12
M  V30 12 2 12 13
M  V30 13 1 13 14
M  V30 14 2 14 15
M  V30 15 1 15 16
M  V30 16 3 16 17
M  V30 17 1 17 18
M  V30 18 1 18 19
M  V30 19 1 19 20
M  V30 20 2 20 21
M  V30 21 1 20 22
M  V30 22 2 22 23
M  V30 23 1 23 24
M  V30 24 2 24 25
M  V30 25 1 25 26
M  V30 26 1 26 27
M  V30 27 1 27 28
M  V30 28 2 28 29
M  V30 29 1 29 30
M  V30 30 2 30 31
M  V30 31 1 31 32
M  V30 32 1 31 33
M  V30 33 1 33 34
M  V30 34 2 33 35
M  V30 35 1 26 36
M  V30 36 2 36 37
M  V30 37 1 15 38
M  V30 38 2 38 39
M  V30 39 1 5 40
M  V30 40 1 40 2
M  V30 41 1 39 8
M  V30 42 1 39 12
M  V30 43 1 36 22
M  V30 44 1 35 28
M  V30 45 1 1 41
M  V30 46 1 1 42
M  V30 47 1 1 43
M  V30 48 1 3 44
M  V30 49 1 3 45
M  V30 50 1 4 46
M  V30 51 1 4 47
M  V30 52 1 5 48
M  V30 53 1 6 49
M  V30 54 1 6 50
M  V30 55 1 7 51
M  V30 56 1 10 52
M  V30 57 1 13 53
M  V30 58 1 14 54
M  V30 59 1 18 55
M  V30 60 1 18 56
M  V30 61 1 19 57
M  V30 62 1 23 58
M  V30 63 1 24 59
M  V30 64 1 25 60
M  V30 65 1 27 61
M  V30 66 1 27 62
M  V30 67 1 29 63
M  V30 68 1 30 64
M  V30 69 1 35 65
M  V30 70 1 38 66
M  V30 71 1 40 67
M  V30 72 1 40 68
M  V30 END BOND
M  V30 END CTAB
M  END
>  <Dataset>  (557) 
ChEMBL_Kinases

>  <Ligand_Instance>  (557) 
nan

>  <PDB_ID>  (557) 
nan

>  <Standardized_SMILES>  (557) 
CN1CCC(CNc2ncnc3ccc(C#CCNC(=O)c4cccn(Cc5ccc(F)c(F)c5)c4=O)cc23)C1

>  <Name>  (557) 
nan

>  <Pocket>  (557) 
nan

>  <ATP_Site>  (557) 
nan

>  <Peripheral>  (557) 
nan

>  <Num_H_Atoms_ProtBoundConf>  (557) 
nan

>  <Num_Resolved_Atoms>  (557) 
nan

>  <Num_Not_Resolved_Atoms>  (557) 
nan

$$$$
CHEMBL3640476
     RDKit          3D

  0  0  0  0  0  0  0  0  0  0999 V3000
M  V30 BEGIN CTAB
M  V30 COUNTS 71 75 0 0 0
M  V30 BEGIN ATOM
M  V30 1 C -2.038938 -5.754837 3.293973 0
M  V30 2 N -1.851009 -4.330991 3.253026 0
M  V30 3 C -1.386116 -3.789939 4.508319 0
M  V30 4 C 0.081602 -3.535284 4.359405 0
M  V30 5 C 0.391015 -3.782361 2.926489 0
M  V30 6 C -0.952008 -3.860533 2.247062 0
M  V30 7 C -0.854754 -4.676362 1.002352 0
M  V30 8 C -2.170011 -4.805442 0.269187 0
M  V30 9 N -2.671332 -3.505309 -0.127979 0
M  V30 10 C -3.911039 -3.456283 -0.821235 0
M  V30 11 N -4.590774 -4.580634 -1.091503 0
M  V30 12 C -5.766482 -4.589110 -1.740146 0
M  V30 13 N -6.322658 -3.441179 -2.154858 0
M  V30 14 C -5.723483 -2.250710 -1.935440 0
M  V30 15 C -6.252039 -1.050386 -2.341204 0
M  V30 16 C -5.612920 0.144213 -2.101410 0
M  V30 17 C -4.384637 0.150801 -1.423800 0
M  V30 18 C -3.692439 1.382351 -1.159718 0
M  V30 19 C -3.095936 2.407968 -0.926431 0
M  V30 20 C -2.343581 3.654066 -0.640939 0
M  V30 21 N -0.990655 3.294618 -0.186356 0
M  V30 22 C -0.354600 2.565031 -1.197023 0
M  V30 23 O -1.150259 2.443476 -2.192334 0
M  V30 24 C 0.984024 1.996719 -1.210622 0
M  V30 25 C 1.335479 1.312982 -2.381700 0
M  V30 26 C 2.576476 0.730329 -2.516325 0
M  V30 27 C 3.534334 0.781979 -1.525118 0
M  V30 28 N 3.163727 1.444854 -0.417404 0
M  V30 29 C 4.134080 1.533024 0.656558 0
M  V30 30 C 4.933169 2.763777 0.415522 0
M  V30 31 C 4.712784 4.038935 0.887192 0
M  V30 32 C 5.590447 5.052556 0.535329 0
M  V30 33 C 6.683215 4.824428 -0.276136 0
M  V30 34 F 7.436229 5.928015 -0.518744 0
M  V30 35 C 6.906803 3.551973 -0.749318 0
M  V30 36 F 7.996516 3.392009 -1.541148 0
M  V30 37 C 6.035858 2.542752 -0.401075 0
M  V30 38 C 1.966175 2.025347 -0.247632 0
M  V30 39 O 1.659818 2.629791 0.792167 0
M  V30 40 C -3.902426 -1.092312 -1.039573 0
M  V30 41 C -4.507736 -2.294926 -1.259715 0
M  V30 42 H -1.311775 -6.341943 2.710059 0
M  V30 43 H -3.092128 -6.006745 3.139604 0
M  V30 44 H -1.833157 -6.066266 4.362923 0
M  V30 45 H -1.881510 -2.802634 4.711588 0
M  V30 46 H -1.633403 -4.441500 5.372515 0
M  V30 47 H 0.626414 -4.246242 5.027082 0
M  V30 48 H 0.331963 -2.470390 4.654407 0
M  V30 49 H 0.919073 -4.755059 2.845788 0
M  V30 50 H 1.017967 -2.963182 2.513037 0
M  V30 51 H -1.250540 -2.830977 1.976961 0
M  V30 52 H -0.213437 -4.061706 0.298209 0
M  V30 53 H -0.321297 -5.623260 1.087917 0
M  V30 54 H -1.999541 -5.444204 -0.628756 0
M  V30 55 H -2.956720 -5.328408 0.846413 0
M  V30 56 H -2.082440 -2.686717 0.123742 0
M  V30 57 H -6.232162 -5.558062 -1.907588 0
M  V30 58 H -7.200438 -1.030084 -2.866473 0
M  V30 59 H -6.022440 1.111435 -2.419069 0
M  V30 60 H -2.240993 4.270602 -1.557890 0
M  V30 61 H -2.891396 4.177358 0.144085 0
M  V30 62 H -0.456817 3.472349 0.691054 0
M  V30 63 H 0.637075 1.228088 -3.206095 0
M  V30 64 H 2.800409 0.214664 -3.437404 0
M  V30 65 H 4.471985 0.302668 -1.712307 0
M  V30 66 H 3.564116 1.601648 1.617916 0
M  V30 67 H 4.782689 0.639470 0.742516 0
M  V30 68 H 3.840371 4.130650 1.512672 0
M  V30 69 H 5.325865 6.026882 0.962082 0
M  V30 70 H 6.307146 1.582284 -0.828849 0
M  V30 71 H -2.963523 -1.025541 -0.528232 0
M  V30 END ATOM
M  V30 BEGIN BOND
M  V30 1 1 1 2
M  V30 2 1 2 3
M  V30 3 1 3 4
M  V30 4 1 4 5
M  V30 5 1 5 6
M  V30 6 1 6 7
M  V30 7 1 7 8
M  V30 8 1 8 9
M  V30 9 1 9 10
M  V30 10 2 10 11
M  V30 11 1 11 12
M  V30 12 2 12 13
M  V30 13 1 13 14
M  V30 14 2 14 15
M  V30 15 1 15 16
M  V30 16 2 16 17
M  V30 17 1 17 18
M  V30 18 3 18 19
M  V30 19 1 19 20
M  V30 20 1 20 21
M  V30 21 1 21 22
M  V30 22 2 22 23
M  V30 23 1 22 24
M  V30 24 2 24 25
M  V30 25 1 25 26
M  V30 26 2 26 27
M  V30 27 1 27 28
M  V30 28 1 28 29
M  V30 29 1 29 30
M  V30 30 2 30 31
M  V30 31 1 31 32
M  V30 32 2 32 33
M  V30 33 1 33 34
M  V30 34 1 33 35
M  V30 35 1 35 36
M  V30 36 2 35 37
M  V30 37 1 28 38
M  V30 38 2 38 39
M  V30 39 1 17 40
M  V30 40 2 40 41
M  V30 41 1 6 2
M  V30 42 1 41 10
M  V30 43 1 41 14
M  V30 44 1 38 24
M  V30 45 1 37 30
M  V30 46 1 1 42
M  V30 47 1 1 43
M  V30 48 1 1 44
M  V30 49 1 3 45
M  V30 50 1 3 46
M  V30 51 1 4 47
M  V30 52 1 4 48
M  V30 53 1 5 49
M  V30 54 1 5 50
M  V30 55 1 6 51
M  V30 56 1 7 52
M  V30 57 1 7 53
M  V30 58 1 8 54
M  V30 59 1 8 55
M  V30 60 1 9 56
M  V30 61 1 12 57
M  V30 62 1 15 58
M  V30 63 1 16 59
M  V30 64 1 20 60
M  V30 65 1 20 61
M  V30 66 1 21 62
M  V30 67 1 25 63
M  V30 68 1 26 64
M  V30 69 1 27 65
M  V30 70 1 29 66
M  V30 71 1 29 67
M  V30 72 1 31 68
M  V30 73 1 32 69
M  V30 74 1 37 70
M  V30 75 1 40 71
M  V30 END BOND
M  V30 END CTAB
M  END
>  <Dataset>  (558) 
ChEMBL_Kinases

>  <Ligand_Instance>  (558) 
nan

>  <PDB_ID>  (558) 
nan

>  <Standardized_SMILES>  (558) 
CN1CCCC1CCNc1ncnc2ccc(C#CCNC(=O)c3cccn(Cc4ccc(F)c(F)c4)c3=O)cc12

>  <Name>  (558) 
nan

>  <Pocket>  (558) 
nan

>  <ATP_Site>  (558) 
nan

>  <Peripheral>  (558) 
nan

>  <Num_H_Atoms_ProtBoundConf>  (558) 
nan

>  <Num_Resolved_Atoms>  (558) 
nan

>  <Num_Not_Resolved_Atoms>  (558) 
nan

$$$$
CHEMBL3640477
     RDKit          3D

  0  0  0  0  0  0  0  0  0  0999 V3000
M  V30 BEGIN CTAB
M  V30 COUNTS 71 75 0 0 0
M  V30 BEGIN ATOM
M  V30 1 C 2.120378 -3.682783 2.269399 0
M  V30 2 N 1.434593 -3.507159 1.011660 0
M  V30 3 C 0.021039 -3.639953 1.289604 0
M  V30 4 C 1.782355 -4.462328 -0.003050 0
M  V30 5 C 3.266003 -4.503028 -0.275549 0
M  V30 6 C 3.736003 -3.142734 -0.797669 0
M  V30 7 N 3.300615 -3.125306 -2.197330 0
M  V30 8 C 4.218358 -2.242897 -2.805418 0
M  V30 9 N 5.340876 -2.840485 -3.329696 0
M  V30 10 C 6.286223 -1.987040 -3.818956 0
M  V30 11 N 6.193023 -0.662123 -3.821340 0
M  V30 12 C 5.084528 -0.030470 -3.309341 0
M  V30 13 C 4.883987 1.398854 -3.294430 0
M  V30 14 C 3.652554 2.115604 -2.761634 0
M  V30 15 C 3.217274 0.887495 -2.488419 0
M  V30 16 C 1.899027 1.637623 -1.946395 0
M  V30 17 C 0.856736 2.246622 -1.533849 0
M  V30 18 C -0.312647 2.946870 -1.089840 0
M  V30 19 N -1.240178 2.166144 -0.367197 0
M  V30 20 C -2.067010 1.046479 -0.487566 0
M  V30 21 O -1.896257 0.591492 -1.665630 0
M  V30 22 C -2.971001 0.458919 0.483007 0
M  V30 23 C -3.680198 -0.655261 0.013927 0
M  V30 24 C -4.593053 -1.328312 0.803078 0
M  V30 25 C -4.812078 -0.892041 2.086503 0
M  V30 26 N -4.127819 0.182501 2.538145 0
M  V30 27 C -4.306706 0.667902 3.895178 0
M  V30 28 C -5.345438 1.720551 3.996813 0
M  V30 29 C -6.701389 1.511006 3.978683 0
M  V30 30 C -7.651237 2.492670 4.099303 0
M  V30 31 C -7.160682 3.787673 4.249334 0
M  V30 32 F -8.016216 4.835785 4.385755 0
M  V30 33 C -5.799645 4.108075 4.279021 0
M  V30 34 F -5.390593 5.391601 4.434152 0
M  V30 35 C -4.925409 3.025282 4.147406 0
M  V30 36 C -3.249638 0.837653 1.791143 0
M  V30 37 O -2.631998 1.811945 2.209333 0
M  V30 38 C 2.780909 -0.303903 -2.216797 0
M  V30 39 C 4.033785 -0.840947 -2.770721 0
M  V30 40 C 2.157281 -3.939373 -2.452892 0
M  V30 41 C 1.155972 -3.964950 -1.310798 0
M  V30 42 H 2.564506 -2.663791 2.490853 0
M  V30 43 H 2.965906 -4.361258 2.266809 0
M  V30 44 H 1.431816 -3.884481 3.111621 0
M  V30 45 H -0.351983 -4.551907 0.793365 0
M  V30 46 H -0.183336 -3.814261 2.380077 0
M  V30 47 H -0.560575 -2.780183 0.889942 0
M  V30 48 H 1.440571 -5.450421 0.271282 0
M  V30 49 H 3.429478 -5.222159 -1.104548 0
M  V30 50 H 3.881820 -4.878767 0.556196 0
M  V30 51 H 4.835553 -3.203715 -0.775174 0
M  V30 52 H 3.337427 -2.297916 -0.227328 0
M  V30 53 H 7.228174 -2.233590 -4.268504 0
M  V30 54 H 5.853008 1.766200 -3.767630 0
M  V30 55 H 4.105337 3.000610 -3.003970 0
M  V30 56 H 0.010676 3.897309 -0.590386 0
M  V30 57 H -0.891356 3.358339 -1.991125 0
M  V30 58 H -1.308510 2.603362 0.604740 0
M  V30 59 H -3.564594 -1.067099 -0.991866 0
M  V30 60 H -5.130978 -2.176172 0.431298 0
M  V30 61 H -5.512021 -1.370136 2.763241 0
M  V30 62 H -4.672692 -0.189858 4.524297 0
M  V30 63 H -3.333955 1.018959 4.320300 0
M  V30 64 H -6.975736 0.481949 3.860981 0
M  V30 65 H -8.717811 2.294538 4.080980 0
M  V30 66 H -3.876684 3.333976 4.177823 0
M  V30 67 H 2.067518 -0.932534 -1.847633 0
M  V30 68 H 2.337513 -4.959626 -2.792952 0
M  V30 69 H 1.606724 -3.433764 -3.302816 0
M  V30 70 H 0.768604 -2.928274 -1.204725 0
M  V30 71 H 0.310550 -4.602413 -1.602476 0
M  V30 END ATOM
M  V30 BEGIN BOND
M  V30 1 1 1 2
M  V30 2 1 2 3
M  V30 3 1 2 4
M  V30 4 1 4 5
M  V30 5 1 5 6
M  V30 6 1 6 7
M  V30 7 1 7 8
M  V30 8 2 8 9
M  V30 9 1 9 10
M  V30 10 2 10 11
M  V30 11 1 11 12
M  V30 12 2 12 13
M  V30 13 1 13 14
M  V30 14 2 14 15
M  V30 15 1 15 16
M  V30 16 3 16 17
M  V30 17 1 17 18
M  V30 18 1 18 19
M  V30 19 1 19 20
M  V30 20 2 20 21
M  V30 21 1 20 22
M  V30 22 2 22 23
M  V30 23 1 23 24
M  V30 24 2 24 25
M  V30 25 1 25 26
M  V30 26 1 26 27
M  V30 27 1 27 28
M  V30 28 2 28 29
M  V30 29 1 29 30
M  V30 30 2 30 31
M  V30 31 1 31 32
M  V30 32 1 31 33
M  V30 33 1 33 34
M  V30 34 2 33 35
M  V30 35 1 26 36
M  V30 36 2 36 37
M  V30 37 1 15 38
M  V30 38 2 38 39
M  V30 39 1 7 40
M  V30 40 1 40 41
M  V30 41 1 41 4
M  V30 42 1 39 8
M  V30 43 1 39 12
M  V30 44 1 36 22
M  V30 45 1 35 28
M  V30 46 1 1 42
M  V30 47 1 1 43
M  V30 48 1 1 44
M  V30 49 1 3 45
M  V30 50 1 3 46
M  V30 51 1 3 47
M  V30 52 1 4 48
M  V30 53 1 5 49
M  V30 54 1 5 50
M  V30 55 1 6 51
M  V30 56 1 6 52
M  V30 57 1 10 53
M  V30 58 1 13 54
M  V30 59 1 14 55
M  V30 60 1 18 56
M  V30 61 1 18 57
M  V30 62 1 19 58
M  V30 63 1 23 59
M  V30 64 1 24 60
M  V30 65 1 25 61
M  V30 66 1 27 62
M  V30 67 1 27 63
M  V30 68 1 29 64
M  V30 69 1 30 65
M  V30 70 1 35 66
M  V30 71 1 38 67
M  V30 72 1 40 68
M  V30 73 1 40 69
M  V30 74 1 41 70
M  V30 75 1 41 71
M  V30 END BOND
M  V30 END CTAB
M  END
>  <Dataset>  (559) 
ChEMBL_Kinases

>  <Ligand_Instance>  (559) 
nan

>  <PDB_ID>  (559) 
nan

>  <Standardized_SMILES>  (559) 
CN(C)C1CCN(c2ncnc3ccc(C#CCNC(=O)c4cccn(Cc5ccc(F)c(F)c5)c4=O)cc23)CC1

>  <Name>  (559) 
nan

>  <Pocket>  (559) 
nan

>  <ATP_Site>  (559) 
nan

>  <Peripheral>  (559) 
nan

>  <Num_H_Atoms_ProtBoundConf>  (559) 
nan

>  <Num_Resolved_Atoms>  (559) 
nan

>  <Num_Not_Resolved_Atoms>  (559) 
nan

$$$$
CHEMBL3640478
     RDKit          3D

  0  0  0  0  0  0  0  0  0  0999 V3000
M  V30 BEGIN CTAB
M  V30 COUNTS 67 71 0 0 0
M  V30 BEGIN ATOM
M  V30 1 C 0.591816 -2.498056 6.698602 0
M  V30 2 C 1.204418 -1.537800 5.705819 0
M  V30 3 O 2.472974 -1.964165 5.290279 0
M  V30 4 C 0.313079 -1.512854 4.497794 0
M  V30 5 C 0.766883 -0.535813 3.437860 0
M  V30 6 N 1.677276 0.449583 4.035698 0
M  V30 7 C 2.959818 1.019029 3.703508 0
M  V30 8 N 3.980075 0.843979 4.559701 0
M  V30 9 C 5.206760 1.368246 4.276854 0
M  V30 10 N 5.411509 2.070229 3.132465 0
M  V30 11 C 4.432422 2.273227 2.248207 0
M  V30 12 C 4.611146 2.973858 1.091050 0
M  V30 13 C 3.605038 3.195999 0.157055 0
M  V30 14 C 2.381430 2.649626 0.480565 0
M  V30 15 C 1.213996 2.772980 -0.374679 0
M  V30 16 C 0.234967 2.860686 -1.073275 0
M  V30 17 C -0.975259 2.943898 -1.926637 0
M  V30 18 N -1.233193 1.670449 -2.561726 0
M  V30 19 C -2.305344 1.393123 -3.425174 0
M  V30 20 O -3.050062 2.419545 -3.595824 0
M  V30 21 C -2.630176 0.147563 -4.094888 0
M  V30 22 C -3.770626 0.140055 -4.906942 0
M  V30 23 C -4.140275 -1.008222 -5.570387 0
M  V30 24 C -3.435268 -2.189378 -5.482118 0
M  V30 25 N -2.338536 -2.162414 -4.694221 0
M  V30 26 C -1.569639 -3.384739 -4.567533 0
M  V30 27 C -2.135996 -4.146811 -3.424791 0
M  V30 28 C -3.190245 -5.011962 -3.732509 0
M  V30 29 C -3.767106 -5.750422 -2.738304 0
M  V30 30 C -3.325069 -5.658824 -1.421126 0
M  V30 31 F -3.875272 -6.379192 -0.401069 0
M  V30 32 C -2.277882 -4.806311 -1.086301 0
M  V30 33 F -1.797122 -4.667567 0.179447 0
M  V30 34 C -1.720259 -4.077030 -2.114400 0
M  V30 35 C -1.982601 -1.061230 -4.057352 0
M  V30 36 O -0.962431 -1.102559 -3.349041 0
M  V30 37 C 2.167558 1.928286 1.656066 0
M  V30 38 C 3.199406 1.736219 2.550177 0
M  V30 39 C 1.053197 0.927799 5.280085 0
M  V30 40 C 1.258463 -0.167643 6.321171 0
M  V30 41 H -0.214425 -3.115574 6.236730 0
M  V30 42 H 0.095478 -1.919918 7.496993 0
M  V30 43 H 1.328788 -3.172405 7.179375 0
M  V30 44 H 2.522529 -2.926616 5.160306 0
M  V30 45 H 0.296415 -2.551230 4.057206 0
M  V30 46 H -0.716537 -1.267859 4.830667 0
M  V30 47 H 1.300988 -1.123005 2.649757 0
M  V30 48 H -0.143731 -0.080981 3.021518 0
M  V30 49 H 5.980447 1.187482 5.011570 0
M  V30 50 H 5.594707 3.394460 0.863446 0
M  V30 51 H 3.702305 3.742407 -0.767140 0
M  V30 52 H -0.819899 3.713955 -2.710558 0
M  V30 53 H -1.780031 3.268681 -1.270178 0
M  V30 54 H -0.573758 0.908307 -2.361848 0
M  V30 55 H -4.421321 0.997545 -5.069308 0
M  V30 56 H -5.017771 -1.039062 -6.203953 0
M  V30 57 H -3.742681 -3.078985 -6.010643 0
M  V30 58 H -0.505500 -3.080522 -4.341475 0
M  V30 59 H -1.598915 -3.962459 -5.507722 0
M  V30 60 H -3.578183 -5.125002 -4.748955 0
M  V30 61 H -4.591225 -6.449348 -2.877942 0
M  V30 62 H -0.903073 -3.408063 -1.887692 0
M  V30 63 H 1.219734 1.510242 1.898889 0
M  V30 64 H 1.585695 1.808921 5.674384 0
M  V30 65 H -0.004521 1.162262 5.170053 0
M  V30 66 H 0.488890 -0.005485 7.104494 0
M  V30 67 H 2.246485 -0.049352 6.802694 0
M  V30 END ATOM
M  V30 BEGIN BOND
M  V30 1 1 1 2
M  V30 2 1 2 3
M  V30 3 1 2 4
M  V30 4 1 4 5
M  V30 5 1 5 6
M  V30 6 1 6 7
M  V30 7 2 7 8
M  V30 8 1 8 9
M  V30 9 2 9 10
M  V30 10 1 10 11
M  V30 11 2 11 12
M  V30 12 1 12 13
M  V30 13 2 13 14
M  V30 14 1 14 15
M  V30 15 3 15 16
M  V30 16 1 16 17
M  V30 17 1 17 18
M  V30 18 1 18 19
M  V30 19 2 19 20
M  V30 20 1 19 21
M  V30 21 2 21 22
M  V30 22 1 22 23
M  V30 23 2 23 24
M  V30 24 1 24 25
M  V30 25 1 25 26
M  V30 26 1 26 27
M  V30 27 2 27 28
M  V30 28 1 28 29
M  V30 29 2 29 30
M  V30 30 1 30 31
M  V30 31 1 30 32
M  V30 32 1 32 33
M  V30 33 2 32 34
M  V30 34 1 25 35
M  V30 35 2 35 36
M  V30 36 1 14 37
M  V30 37 2 37 38
M  V30 38 1 6 39
M  V30 39 1 39 40
M  V30 40 1 40 2
M  V30 41 1 38 7
M  V30 42 1 38 11
M  V30 43 1 35 21
M  V30 44 1 34 27
M  V30 45 1 1 41
M  V30 46 1 1 42
M  V30 47 1 1 43
M  V30 48 1 3 44
M  V30 49 1 4 45
M  V30 50 1 4 46
M  V30 51 1 5 47
M  V30 52 1 5 48
M  V30 53 1 9 49
M  V30 54 1 12 50
M  V30 55 1 13 51
M  V30 56 1 17 52
M  V30 57 1 17 53
M  V30 58 1 18 54
M  V30 59 1 22 55
M  V30 60 1 23 56
M  V30 61 1 24 57
M  V30 62 1 26 58
M  V30 63 1 26 59
M  V30 64 1 28 60
M  V30 65 1 29 61
M  V30 66 1 34 62
M  V30 67 1 37 63
M  V30 68 1 39 64
M  V30 69 1 39 65
M  V30 70 1 40 66
M  V30 71 1 40 67
M  V30 END BOND
M  V30 END CTAB
M  END
>  <Dataset>  (560) 
ChEMBL_Kinases

>  <Ligand_Instance>  (560) 
nan

>  <PDB_ID>  (560) 
nan

>  <Standardized_SMILES>  (560) 
CC1(O)CCN(c2ncnc3ccc(C#CCNC(=O)c4cccn(Cc5ccc(F)c(F)c5)c4=O)cc23)CC1

>  <Name>  (560) 
nan

>  <Pocket>  (560) 
nan

>  <ATP_Site>  (560) 
nan

>  <Peripheral>  (560) 
nan

>  <Num_H_Atoms_ProtBoundConf>  (560) 
nan

>  <Num_Resolved_Atoms>  (560) 
nan

>  <Num_Not_Resolved_Atoms>  (560) 
nan

$$$$
CHEMBL3640479
     RDKit          3D

  0  0  0  0  0  0  0  0  0  0999 V3000
M  V30 BEGIN CTAB
M  V30 COUNTS 53 56 0 0 0
M  V30 BEGIN ATOM
M  V30 1 C 1.543843 -0.378908 3.765810 0
M  V30 2 N 2.885111 -0.802303 3.368995 0
M  V30 3 C 3.038388 -2.243529 3.314608 0
M  V30 4 C 3.886618 0.186329 3.077282 0
M  V30 5 N 4.978322 0.165589 3.892809 0
M  V30 6 C 5.984240 1.046240 3.733660 0
M  V30 7 N 5.921482 1.970169 2.751632 0
M  V30 8 C 4.872236 2.037812 1.919177 0
M  V30 9 C 4.784790 2.972583 0.909375 0
M  V30 10 C 3.659748 2.966539 0.095433 0
M  V30 11 C 2.638845 2.060328 0.269645 0
M  V30 12 C 1.502641 2.133282 -0.637562 0
M  V30 13 C 0.550279 2.209617 -1.392796 0
M  V30 14 C -0.580433 2.294922 -2.314380 0
M  V30 15 N -1.467289 1.149517 -2.040219 0
M  V30 16 C -2.004539 1.072098 -0.740861 0
M  V30 17 O -1.741243 1.930828 0.121633 0
M  V30 18 C -2.860607 0.013787 -0.376303 0
M  V30 19 C -3.401031 -0.031260 0.978379 0
M  V30 20 C -4.274691 -1.059529 1.438131 0
M  V30 21 C -4.635932 -2.103811 0.511386 0
M  V30 22 N -4.144692 -2.134303 -0.848783 0
M  V30 23 C -4.612796 -3.229426 -1.602645 0
M  V30 24 C -3.771729 -4.445527 -1.551398 0
M  V30 25 C -3.767526 -5.502082 -0.663714 0
M  V30 26 C -2.794294 -6.394327 -1.044802 0
M  V30 27 N -2.212517 -5.888987 -2.149037 0
M  V30 28 N -2.786067 -4.741463 -2.448639 0
M  V30 29 C -3.539011 -1.112341 -0.610165 0
M  V30 30 O -3.069871 -1.144757 -1.914300 0
M  V30 31 C 2.686956 1.111775 1.266052 0
M  V30 32 C 3.821172 1.150601 2.053120 0
M  V30 33 H 1.338337 -0.711459 4.823840 0
M  V30 34 H 0.756721 -0.815556 3.112343 0
M  V30 35 H 1.412306 0.720309 3.738257 0
M  V30 36 H 2.110607 -2.694744 2.894124 0
M  V30 37 H 3.924298 -2.516582 2.713359 0
M  V30 38 H 3.183827 -2.602979 4.344643 0
M  V30 39 H 6.886157 1.075666 4.358881 0
M  V30 40 H 5.586972 3.695926 0.759667 0
M  V30 41 H 3.581316 3.701322 -0.706962 0
M  V30 42 H -1.208922 3.187103 -2.134175 0
M  V30 43 H -0.243226 2.284112 -3.358739 0
M  V30 44 H -1.670437 0.455715 -2.773483 0
M  V30 45 H -3.180413 0.733466 1.776203 0
M  V30 46 H -4.641421 -1.020240 2.480307 0
M  V30 47 H -5.321622 -2.805618 1.057650 0
M  V30 48 H -4.703904 -2.916285 -2.678045 0
M  V30 49 H -5.632733 -3.514894 -1.270304 0
M  V30 50 H -4.498612 -5.459089 0.154337 0
M  V30 51 H -2.622033 -7.296740 -0.483665 0
M  V30 52 H -2.470847 -4.176622 -3.286298 0
M  V30 53 H 1.909291 0.403745 1.414139 0
M  V30 END ATOM
M  V30 BEGIN BOND
M  V30 1 1 1 2
M  V30 2 1 2 3
M  V30 3 1 2 4
M  V30 4 2 4 5
M  V30 5 1 5 6
M  V30 6 2 6 7
M  V30 7 1 7 8
M  V30 8 2 8 9
M  V30 9 1 9 10
M  V30 10 2 10 11
M  V30 11 1 11 12
M  V30 12 3 12 13
M  V30 13 1 13 14
M  V30 14 1 14 15
M  V30 15 1 15 16
M  V30 16 2 16 17
M  V30 17 1 16 18
M  V30 18 2 18 19
M  V30 19 1 19 20
M  V30 20 2 20 21
M  V30 21 1 21 22
M  V30 22 1 22 23
M  V30 23 1 23 24
M  V30 24 2 24 25
M  V30 25 1 25 26
M  V30 26 2 26 27
M  V30 27 1 27 28
M  V30 28 1 22 29
M  V30 29 2 29 30
M  V30 30 1 11 31
M  V30 31 2 31 32
M  V30 32 1 32 4
M  V30 33 1 32 8
M  V30 34 1 29 18
M  V30 35 1 28 24
M  V30 36 1 1 33
M  V30 37 1 1 34
M  V30 38 1 1 35
M  V30 39 1 3 36
M  V30 40 1 3 37
M  V30 41 1 3 38
M  V30 42 1 6 39
M  V30 43 1 9 40
M  V30 44 1 10 41
M  V30 45 1 14 42
M  V30 46 1 14 43
M  V30 47 1 15 44
M  V30 48 1 19 45
M  V30 49 1 20 46
M  V30 50 1 21 47
M  V30 51 1 23 48
M  V30 52 1 23 49
M  V30 53 1 25 50
M  V30 54 1 26 51
M  V30 55 1 28 52
M  V30 56 1 31 53
M  V30 END BOND
M  V30 END CTAB
M  END
>  <Dataset>  (561) 
ChEMBL_Kinases

>  <Ligand_Instance>  (561) 
nan

>  <PDB_ID>  (561) 
nan

>  <Standardized_SMILES>  (561) 
CN(C)c1ncnc2ccc(C#CCNC(=O)c3cccn(Cc4ccn[nH]4)c3=O)cc12

>  <Name>  (561) 
nan

>  <Pocket>  (561) 
nan

>  <ATP_Site>  (561) 
nan

>  <Peripheral>  (561) 
nan

>  <Num_H_Atoms_ProtBoundConf>  (561) 
nan

>  <Num_Resolved_Atoms>  (561) 
nan

>  <Num_Not_Resolved_Atoms>  (561) 
nan

$$$$
CHEMBL3640480
     RDKit          3D

  0  0  0  0  0  0  0  0  0  0999 V3000
M  V30 BEGIN CTAB
M  V30 COUNTS 61 64 0 0 0
M  V30 BEGIN ATOM
M  V30 1 C -0.109777 -0.073799 6.441797 0
M  V30 2 C -0.146832 -0.892661 5.177247 0
M  V30 3 N 0.669944 -0.377376 4.096168 0
M  V30 4 C 0.377349 -1.325602 3.011907 0
M  V30 5 C -1.027325 -1.260552 2.521691 0
M  V30 6 C 1.523457 0.761348 4.302199 0
M  V30 7 N 2.143239 0.764182 5.484885 0
M  V30 8 C 3.013591 1.715464 5.819568 0
M  V30 9 N 3.290539 2.707421 4.961562 0
M  V30 10 C 2.726617 2.803409 3.749753 0
M  V30 11 C 2.953535 3.789033 2.828271 0
M  V30 12 C 2.322675 3.834426 1.585063 0
M  V30 13 C 1.443572 2.796812 1.357660 0
M  V30 14 C 0.755241 2.799784 0.074081 0
M  V30 15 C 0.170728 2.789596 -0.982593 0
M  V30 16 C -0.561684 2.776957 -2.253339 0
M  V30 17 N -0.790395 1.417819 -2.704222 0
M  V30 18 C 0.289838 0.537761 -2.974362 0
M  V30 19 O 1.377126 1.173914 -2.747461 0
M  V30 20 C 0.260262 -0.840319 -3.426534 0
M  V30 21 C 1.514688 -1.424044 -3.602515 0
M  V30 22 C 1.619535 -2.722598 -4.030363 0
M  V30 23 Cl 3.194945 -3.443603 -4.247512 0
M  V30 24 N 0.503349 -3.452215 -4.286809 0
M  V30 25 N -0.694270 -2.923644 -4.128256 0
M  V30 26 C -1.929588 -3.644568 -4.378661 0
M  V30 27 C -2.395931 -4.356275 -3.178744 0
M  V30 28 C -1.927248 -5.659139 -3.003358 0
M  V30 29 C -2.250765 -6.481373 -1.946475 0
M  V30 30 C -3.107726 -5.951960 -0.999040 0
M  V30 31 F -3.451223 -6.731327 0.060111 0
M  V30 32 C -3.618445 -4.667921 -1.097216 0
M  V30 33 F -4.451097 -4.163903 -0.168059 0
M  V30 34 C -3.240902 -3.923308 -2.183908 0
M  V30 35 C -0.798037 -1.660274 -3.711943 0
M  V30 36 O -1.922595 -1.131480 -3.552611 0
M  V30 37 C 1.185426 1.785994 2.254093 0
M  V30 38 C 1.839821 1.797390 3.460846 0
M  V30 39 H -1.046891 -0.222840 7.041220 0
M  V30 40 H -0.071239 0.996762 6.149896 0
M  V30 41 H 0.780068 -0.302763 7.034363 0
M  V30 42 H -1.243663 -0.938376 4.901541 0
M  V30 43 H 0.172041 -1.921076 5.469571 0
M  V30 44 H 0.600990 -2.344108 3.402225 0
M  V30 45 H 1.067711 -1.175871 2.149578 0
M  V30 46 H -1.668190 -2.076641 2.961490 0
M  V30 47 H -1.492029 -0.272106 2.656853 0
M  V30 48 H -1.030077 -1.451929 1.431058 0
M  V30 49 H 3.521301 1.728458 6.772539 0
M  V30 50 H 3.673104 4.542182 3.146363 0
M  V30 51 H 2.551511 4.634022 0.920290 0
M  V30 52 H -1.572457 3.244942 -2.115601 0
M  V30 53 H 0.059393 3.347381 -2.980152 0
M  V30 54 H -1.758206 1.030372 -2.848678 0
M  V30 55 H 2.430433 -0.889600 -3.413366 0
M  V30 56 H -2.734557 -2.944928 -4.702930 0
M  V30 57 H -1.751413 -4.354561 -5.192392 0
M  V30 58 H -1.254477 -6.097109 -3.732351 0
M  V30 59 H -1.876302 -7.479299 -1.835967 0
M  V30 60 H -3.609498 -2.905019 -2.319449 0
M  V30 61 H 0.472996 1.048120 1.956405 0
M  V30 END ATOM
M  V30 BEGIN BOND
M  V30 1 1 1 2
M  V30 2 1 2 3
M  V30 3 1 3 4
M  V30 4 1 4 5
M  V30 5 1 3 6
M  V30 6 2 6 7
M  V30 7 1 7 8
M  V30 8 2 8 9
M  V30 9 1 9 10
M  V30 10 2 10 11
M  V30 11 1 11 12
M  V30 12 2 12 13
M  V30 13 1 13 14
M  V30 14 3 14 15
M  V30 15 1 15 16
M  V30 16 1 16 17
M  V30 17 1 17 18
M  V30 18 2 18 19
M  V30 19 1 18 20
M  V30 20 2 20 21
M  V30 21 1 21 22
M  V30 22 1 22 23
M  V30 23 2 22 24
M  V30 24 1 24 25
M  V30 25 1 25 26
M  V30 26 1 26 27
M  V30 27 2 27 28
M  V30 28 1 28 29
M  V30 29 2 29 30
M  V30 30 1 30 31
M  V30 31 1 30 32
M  V30 32 1 32 33
M  V30 33 2 32 34
M  V30 34 1 25 35
M  V30 35 2 35 36
M  V30 36 1 13 37
M  V30 37 2 37 38
M  V30 38 1 38 6
M  V30 39 1 38 10
M  V30 40 1 35 20
M  V30 41 1 34 27
M  V30 42 1 1 39
M  V30 43 1 1 40
M  V30 44 1 1 41
M  V30 45 1 2 42
M  V30 46 1 2 43
M  V30 47 1 4 44
M  V30 48 1 4 45
M  V30 49 1 5 46
M  V30 50 1 5 47
M  V30 51 1 5 48
M  V30 52 1 8 49
M  V30 53 1 11 50
M  V30 54 1 12 51
M  V30 55 1 16 52
M  V30 56 1 16 53
M  V30 57 1 17 54
M  V30 58 1 21 55
M  V30 59 1 26 56
M  V30 60 1 26 57
M  V30 61 1 28 58
M  V30 62 1 29 59
M  V30 63 1 34 60
M  V30 64 1 37 61
M  V30 END BOND
M  V30 END CTAB
M  END
>  <Dataset>  (562) 
ChEMBL_Kinases

>  <Ligand_Instance>  (562) 
nan

>  <PDB_ID>  (562) 
nan

>  <Standardized_SMILES>  (562) 
CCN(CC)c1ncnc2ccc(C#CCNC(=O)c3cc(Cl)nn(Cc4ccc(F)c(F)c4)c3=O)cc12

>  <Name>  (562) 
nan

>  <Pocket>  (562) 
nan

>  <ATP_Site>  (562) 
nan

>  <Peripheral>  (562) 
nan

>  <Num_H_Atoms_ProtBoundConf>  (562) 
nan

>  <Num_Resolved_Atoms>  (562) 
nan

>  <Num_Not_Resolved_Atoms>  (562) 
nan

$$$$
CHEMBL3640490
     RDKit          3D

  0  0  0  0  0  0  0  0  0  0999 V3000
M  V30 BEGIN CTAB
M  V30 COUNTS 52 55 0 0 0
M  V30 BEGIN ATOM
M  V30 1 C -2.662951 -1.674851 -4.429685 0
M  V30 2 N -3.013769 -1.515462 -3.022338 0
M  V30 3 C -4.227730 -1.929105 -2.454172 0
M  V30 4 N -5.109603 -2.508057 -3.289152 0
M  V30 5 C -6.322017 -2.946194 -2.836892 0
M  V30 6 N -6.621692 -2.788195 -1.533559 0
M  V30 7 C -5.778738 -2.216861 -0.654648 0
M  V30 8 C -6.121950 -2.073021 0.673639 0
M  V30 9 C -5.212769 -1.473029 1.551695 0
M  V30 10 C -3.995727 -1.040065 1.067778 0
M  V30 11 C -2.987889 -0.412695 1.884194 0
M  V30 12 C -2.136861 0.094143 2.574808 0
M  V30 13 C -1.093269 0.685993 3.412827 0
M  V30 14 N 0.061538 1.075809 2.617232 0
M  V30 15 C 0.548290 -0.084935 1.990507 0
M  V30 16 O -0.188278 -1.073851 2.336212 0
M  V30 17 C 1.664187 -0.307465 1.088282 0
M  V30 18 C 1.866007 -1.595622 0.644202 0
M  V30 19 N 2.869271 -1.896346 -0.193758 0
M  V30 20 C 3.673773 -0.896174 -0.587616 0
M  V30 21 N 3.536360 0.404880 -0.190425 0
M  V30 22 C 4.507661 1.297997 -0.767103 0
M  V30 23 C 4.030478 1.745126 -2.091707 0
M  V30 24 C 4.594876 1.071635 -3.185011 0
M  V30 25 C 4.301643 1.297811 -4.491957 0
M  V30 26 C 3.376989 2.260900 -4.824956 0
M  V30 27 C 2.798287 2.945957 -3.790988 0
M  V30 28 C 3.121670 2.687861 -2.488782 0
M  V30 29 F 2.550342 3.383892 -1.490139 0
M  V30 30 C 2.525967 0.661415 0.644008 0
M  V30 31 O 2.388860 1.825038 1.014468 0
M  V30 32 C -3.641830 -1.182891 -0.278122 0
M  V30 33 C -4.556666 -1.778010 -1.123178 0
M  V30 34 H -1.749101 -2.308087 -4.569340 0
M  V30 35 H -3.513179 -2.153700 -4.956705 0
M  V30 36 H -2.541608 -0.680647 -4.937875 0
M  V30 37 H -2.181611 -1.057645 -2.634389 0
M  V30 38 H -7.026791 -3.413597 -3.525541 0
M  V30 39 H -7.075622 -2.411775 1.055265 0
M  V30 40 H -5.414203 -1.327345 2.606345 0
M  V30 41 H -1.527830 1.545308 3.958276 0
M  V30 42 H -0.824902 -0.057987 4.187501 0
M  V30 43 H 0.595580 1.951039 2.401996 0
M  V30 44 H 1.221191 -2.411040 0.955994 0
M  V30 45 H 4.472642 -1.218977 -1.273602 0
M  V30 46 H 4.643966 2.217595 -0.140303 0
M  V30 47 H 5.478378 0.754705 -0.870198 0
M  V30 48 H 5.346092 0.281025 -3.040970 0
M  V30 49 H 4.753767 0.761311 -5.312412 0
M  V30 50 H 3.112811 2.475326 -5.838283 0
M  V30 51 H 2.056181 3.725791 -3.961117 0
M  V30 52 H -2.692532 -0.849244 -0.674416 0
M  V30 END ATOM
M  V30 BEGIN BOND
M  V30 1 1 1 2
M  V30 2 1 2 3
M  V30 3 2 3 4
M  V30 4 1 4 5
M  V30 5 2 5 6
M  V30 6 1 6 7
M  V30 7 2 7 8
M  V30 8 1 8 9
M  V30 9 2 9 10
M  V30 10 1 10 11
M  V30 11 3 11 12
M  V30 12 1 12 13
M  V30 13 1 13 14
M  V30 14 1 14 15
M  V30 15 2 15 16
M  V30 16 1 15 17
M  V30 17 2 17 18
M  V30 18 1 18 19
M  V30 19 2 19 20
M  V30 20 1 20 21
M  V30 21 1 21 22
M  V30 22 1 22 23
M  V30 23 2 23 24
M  V30 24 1 24 25
M  V30 25 2 25 26
M  V30 26 1 26 27
M  V30 27 2 27 28
M  V30 28 1 28 29
M  V30 29 1 21 30
M  V30 30 2 30 31
M  V30 31 1 10 32
M  V30 32 2 32 33
M  V30 33 1 33 3
M  V30 34 1 33 7
M  V30 35 1 30 17
M  V30 36 1 28 23
M  V30 37 1 1 34
M  V30 38 1 1 35
M  V30 39 1 1 36
M  V30 40 1 2 37
M  V30 41 1 5 38
M  V30 42 1 8 39
M  V30 43 1 9 40
M  V30 44 1 13 41
M  V30 45 1 13 42
M  V30 46 1 14 43
M  V30 47 1 18 44
M  V30 48 1 20 45
M  V30 49 1 22 46
M  V30 50 1 22 47
M  V30 51 1 24 48
M  V30 52 1 25 49
M  V30 53 1 26 50
M  V30 54 1 27 51
M  V30 55 1 32 52
M  V30 END BOND
M  V30 END CTAB
M  END
>  <Dataset>  (563) 
ChEMBL_Kinases

>  <Ligand_Instance>  (563) 
nan

>  <PDB_ID>  (563) 
nan

>  <Standardized_SMILES>  (563) 
CNc1ncnc2ccc(C#CCNC(=O)c3cncn(Cc4ccccc4F)c3=O)cc12

>  <Name>  (563) 
nan

>  <Pocket>  (563) 
nan

>  <ATP_Site>  (563) 
nan

>  <Peripheral>  (563) 
nan

>  <Num_H_Atoms_ProtBoundConf>  (563) 
nan

>  <Num_Resolved_Atoms>  (563) 
nan

>  <Num_Not_Resolved_Atoms>  (563) 
nan

$$$$
CHEMBL3640482
     RDKit          3D

  0  0  0  0  0  0  0  0  0  0999 V3000
M  V30 BEGIN CTAB
M  V30 COUNTS 70 74 0 0 0
M  V30 BEGIN ATOM
M  V30 1 C -1.085002 -4.165101 2.024499 0
M  V30 2 O 0.172512 -4.779536 1.887084 0
M  V30 3 C 1.289757 -4.159473 1.408220 0
M  V30 4 C 2.522351 -4.815412 1.278351 0
M  V30 5 C 3.680031 -4.197652 0.798936 0
M  V30 6 C 3.556453 -2.883100 0.448039 0
M  V30 7 C 2.418063 -2.129255 0.525196 0
M  V30 8 C 2.198431 -0.718845 0.164468 0
M  V30 9 N 1.983733 -0.593959 -1.287963 0
M  V30 10 C 1.738790 0.820618 -1.607263 0
M  V30 11 C 2.031694 -1.781384 -2.046354 0
M  V30 12 N 3.230968 -2.280943 -2.506805 0
M  V30 13 C 3.331656 -3.416364 -3.178182 0
M  V30 14 N 2.261705 -4.165637 -3.458558 0
M  V30 15 C 1.012436 -3.802675 -3.070762 0
M  V30 16 C -0.146726 -4.494256 -3.330005 0
M  V30 17 C -1.387823 -4.062679 -2.931020 0
M  V30 18 C -1.488674 -2.852470 -2.220287 0
M  V30 19 C -2.763589 -2.321677 -1.812200 0
M  V30 20 C -3.843674 -1.859009 -1.483603 0
M  V30 21 C -5.164513 -1.283202 -1.106610 0
M  V30 22 N -4.957998 0.165690 -0.877189 0
M  V30 23 C -4.094591 0.402641 0.155520 0
M  V30 24 O -3.516912 -0.454384 0.910271 0
M  V30 25 C -3.429309 1.361381 0.898246 0
M  V30 26 C -3.807995 2.521001 0.013436 0
M  V30 27 C -3.428830 3.904041 0.213208 0
M  V30 28 C -2.620576 4.164060 1.366069 0
M  V30 29 N -2.227546 3.130918 2.240080 0
M  V30 30 C -1.456668 3.265177 3.420835 0
M  V30 31 C -0.001442 3.003139 3.253171 0
M  V30 32 C 0.324239 1.680064 3.573538 0
M  V30 33 C 1.616545 1.140107 3.492098 0
M  V30 34 C 2.634465 1.988448 3.064675 0
M  V30 35 F 3.882174 1.493335 2.976274 0
M  V30 36 C 2.315149 3.294488 2.748803 0
M  V30 37 F 3.268641 4.155558 2.328798 0
M  V30 38 C 1.043056 3.797553 2.836385 0
M  V30 39 C -2.836581 2.245288 1.557060 0
M  V30 40 O -2.503931 1.158553 2.364116 0
M  V30 41 C -0.288922 -2.218825 -1.996316 0
M  V30 42 C 0.976327 -2.613148 -2.377137 0
M  V30 43 C 1.350984 -2.836143 1.008532 0
M  V30 44 H -0.933021 -3.354802 2.804184 0
M  V30 45 H -1.411205 -3.664004 1.081124 0
M  V30 46 H -1.842108 -4.848333 2.430828 0
M  V30 47 H 2.563953 -5.864096 1.568958 0
M  V30 48 H 4.607777 -4.731815 0.707851 0
M  V30 49 H 4.437099 -2.337821 0.059604 0
M  V30 50 H 1.289734 -0.297621 0.632051 0
M  V30 51 H 3.051533 -0.085712 0.411749 0
M  V30 52 H 2.409569 1.499419 -1.084458 0
M  V30 53 H 0.687871 1.083397 -1.257314 0
M  V30 54 H 1.777204 0.992670 -2.679807 0
M  V30 55 H 4.334948 -3.701368 -3.485075 0
M  V30 56 H -0.007829 -5.432384 -3.890553 0
M  V30 57 H -2.279060 -4.633797 -3.152115 0
M  V30 58 H -5.515115 -1.737773 -0.170678 0
M  V30 59 H -5.816073 -1.429442 -1.978262 0
M  V30 60 H -5.289846 1.053220 -1.315895 0
M  V30 61 H -4.402975 2.722148 -0.948820 0
M  V30 62 H -3.646156 4.819269 -0.364379 0
M  V30 63 H -2.290797 5.209917 1.580337 0
M  V30 64 H -1.866203 2.708365 4.292469 0
M  V30 65 H -1.531069 4.345985 3.747185 0
M  V30 66 H -0.364822 0.920225 3.930238 0
M  V30 67 H 1.860921 0.136839 3.732629 0
M  V30 68 H 0.694992 4.794613 2.621270 0
M  V30 69 H -0.405011 -1.281217 -1.440749 0
M  V30 70 H 0.378603 -2.327135 1.120478 0
M  V30 END ATOM
M  V30 BEGIN BOND
M  V30 1 1 1 2
M  V30 2 1 2 3
M  V30 3 2 3 4
M  V30 4 1 4 5
M  V30 5 2 5 6
M  V30 6 1 6 7
M  V30 7 1 7 8
M  V30 8 1 8 9
M  V30 9 1 9 10
M  V30 10 1 9 11
M  V30 11 2 11 12
M  V30 12 1 12 13
M  V30 13 2 13 14
M  V30 14 1 14 15
M  V30 15 2 15 16
M  V30 16 1 16 17
M  V30 17 2 17 18
M  V30 18 1 18 19
M  V30 19 3 19 20
M  V30 20 1 20 21
M  V30 21 1 21 22
M  V30 22 1 22 23
M  V30 23 2 23 24
M  V30 24 1 23 25
M  V30 25 2 25 26
M  V30 26 1 26 27
M  V30 27 2 27 28
M  V30 28 1 28 29
M  V30 29 1 29 30
M  V30 30 1 30 31
M  V30 31 2 31 32
M  V30 32 1 32 33
M  V30 33 2 33 34
M  V30 34 1 34 35
M  V30 35 1 34 36
M  V30 36 1 36 37
M  V30 37 2 36 38
M  V30 38 1 29 39
M  V30 39 2 39 40
M  V30 40 1 18 41
M  V30 41 2 41 42
M  V30 42 2 7 43
M  V30 43 1 43 3
M  V30 44 1 42 11
M  V30 45 1 42 15
M  V30 46 1 39 25
M  V30 47 1 38 31
M  V30 48 1 1 44
M  V30 49 1 1 45
M  V30 50 1 1 46
M  V30 51 1 4 47
M  V30 52 1 5 48
M  V30 53 1 6 49
M  V30 54 1 8 50
M  V30 55 1 8 51
M  V30 56 1 10 52
M  V30 57 1 10 53
M  V30 58 1 10 54
M  V30 59 1 13 55
M  V30 60 1 16 56
M  V30 61 1 17 57
M  V30 62 1 21 58
M  V30 63 1 21 59
M  V30 64 1 22 60
M  V30 65 1 26 61
M  V30 66 1 27 62
M  V30 67 1 28 63
M  V30 68 1 30 64
M  V30 69 1 30 65
M  V30 70 1 32 66
M  V30 71 1 33 67
M  V30 72 1 38 68
M  V30 73 1 41 69
M  V30 74 1 43 70
M  V30 END BOND
M  V30 END CTAB
M  END
>  <Dataset>  (564) 
ChEMBL_Kinases

>  <Ligand_Instance>  (564) 
nan

>  <PDB_ID>  (564) 
nan

>  <Standardized_SMILES>  (564) 
COc1cccc(CN(C)c2ncnc3ccc(C#CCNC(=O)c4cccn(Cc5ccc(F)c(F)c5)c4=O)cc23)c1

>  <Name>  (564) 
nan

>  <Pocket>  (564) 
nan

>  <ATP_Site>  (564) 
nan

>  <Peripheral>  (564) 
nan

>  <Num_H_Atoms_ProtBoundConf>  (564) 
nan

>  <Num_Resolved_Atoms>  (564) 
nan

>  <Num_Not_Resolved_Atoms>  (564) 
nan

$$$$
CHEMBL3640483
     RDKit          3D

  0  0  0  0  0  0  0  0  0  0999 V3000
M  V30 BEGIN CTAB
M  V30 COUNTS 71 76 0 0 0
M  V30 BEGIN ATOM
M  V30 1 C -0.101706 -4.959806 4.609998 0
M  V30 2 N -0.683097 -3.960531 3.684874 0
M  V30 3 C -0.337544 -4.610826 2.486381 0
M  V30 4 C 1.143016 -4.966907 2.435694 0
M  V30 5 C 1.700236 -6.219380 2.611157 0
M  V30 6 C 3.069320 -6.341583 2.519485 0
M  V30 7 C 3.903209 -5.256288 2.258855 0
M  V30 8 C 3.322214 -4.011825 2.086896 0
M  V30 9 N 4.190106 -3.014140 1.837484 0
M  V30 10 C 3.717908 -1.766971 1.654537 0
M  V30 11 C 2.340389 -1.540230 1.728299 0
M  V30 12 C 1.464169 -2.592059 1.987922 0
M  V30 13 C 1.952201 -3.865980 2.174243 0
M  V30 14 C -1.274343 -2.854533 4.362066 0
M  V30 15 N -0.991306 -2.679735 5.665852 0
M  V30 16 C -1.443944 -1.665591 6.404760 0
M  V30 17 N -2.232823 -0.734736 5.866870 0
M  V30 18 C -2.585662 -0.796534 4.585589 0
M  V30 19 C -3.398120 0.142751 3.994978 0
M  V30 20 C -3.762369 0.064022 2.645591 0
M  V30 21 C -3.248243 -1.028882 1.938326 0
M  V30 22 C -3.624814 -1.068625 0.550358 0
M  V30 23 C -3.922550 -1.112182 -0.617875 0
M  V30 24 C -4.265424 -1.160395 -2.066931 0
M  V30 25 N -3.287370 -0.340253 -2.804234 0
M  V30 26 C -3.349386 0.999644 -2.335551 0
M  V30 27 O -4.246109 1.058184 -1.422644 0
M  V30 28 C -2.565218 2.144548 -2.770282 0
M  V30 29 C -2.883548 3.332813 -2.096909 0
M  V30 30 C -2.216096 4.496594 -2.410079 0
M  V30 31 C -1.223606 4.572889 -3.372661 0
M  V30 32 N -0.959156 3.407828 -3.985123 0
M  V30 33 C 0.070668 3.363101 -5.008917 0
M  V30 34 C 1.406873 3.076768 -4.452985 0
M  V30 35 C 2.188064 4.172139 -4.063998 0
M  V30 36 C 3.458167 4.058149 -3.526175 0
M  V30 37 C 4.015380 2.805330 -3.350175 0
M  V30 38 F 5.251420 2.706233 -2.826746 0
M  V30 39 C 3.258178 1.709694 -3.728760 0
M  V30 40 F 3.787064 0.458991 -3.563015 0
M  V30 41 C 1.988818 1.841232 -4.265537 0
M  V30 42 C -1.576159 2.247810 -3.721522 0
M  V30 43 O -1.317786 1.186322 -4.298580 0
M  V30 44 C -2.447250 -1.938545 2.558361 0
M  V30 45 C -2.088801 -1.861705 3.880815 0
M  V30 46 H 0.997372 -4.945095 4.563893 0
M  V30 47 H -0.320084 -4.670069 5.689858 0
M  V30 48 H -0.587179 -5.933470 4.504328 0
M  V30 49 H -0.598344 -4.145120 1.521111 0
M  V30 50 H -0.860953 -5.610555 2.437225 0
M  V30 51 H 0.990991 -7.007047 2.809448 0
M  V30 52 H 3.484171 -7.335678 2.662278 0
M  V30 53 H 4.988920 -5.399343 2.194431 0
M  V30 54 H 4.349615 -0.897383 1.447404 0
M  V30 55 H 1.945105 -0.544577 1.584055 0
M  V30 56 H 0.411918 -2.441808 2.048223 0
M  V30 57 H -1.111253 -1.684453 7.449763 0
M  V30 58 H -3.782116 0.970782 4.550338 0
M  V30 59 H -4.401146 0.803431 2.182988 0
M  V30 60 H -5.276010 -0.740016 -2.172406 0
M  V30 61 H -4.220638 -2.217536 -2.363330 0
M  V30 62 H -2.600760 -0.549301 -3.561319 0
M  V30 63 H -3.655716 3.380648 -1.316932 0
M  V30 64 H -2.475150 5.409412 -1.880196 0
M  V30 65 H -0.723517 5.504707 -3.588183 0
M  V30 66 H 0.085680 4.373847 -5.481317 0
M  V30 67 H -0.222850 2.631112 -5.795857 0
M  V30 68 H 1.770887 5.183701 -4.191377 0
M  V30 69 H 3.979457 4.977284 -3.257041 0
M  V30 70 H 1.399148 0.987269 -4.561657 0
M  V30 71 H -2.125243 -2.726975 1.953183 0
M  V30 END ATOM
M  V30 BEGIN BOND
M  V30 1 1 1 2
M  V30 2 1 2 3
M  V30 3 1 3 4
M  V30 4 2 4 5
M  V30 5 1 5 6
M  V30 6 2 6 7
M  V30 7 1 7 8
M  V30 8 2 8 9
M  V30 9 1 9 10
M  V30 10 2 10 11
M  V30 11 1 11 12
M  V30 12 2 12 13
M  V30 13 1 2 14
M  V30 14 2 14 15
M  V30 15 1 15 16
M  V30 16 2 16 17
M  V30 17 1 17 18
M  V30 18 2 18 19
M  V30 19 1 19 20
M  V30 20 2 20 21
M  V30 21 1 21 22
M  V30 22 3 22 23
M  V30 23 1 23 24
M  V30 24 1 24 25
M  V30 25 1 25 26
M  V30 26 2 26 27
M  V30 27 1 26 28
M  V30 28 2 28 29
M  V30 29 1 29 30
M  V30 30 2 30 31
M  V30 31 1 31 32
M  V30 32 1 32 33
M  V30 33 1 33 34
M  V30 34 2 34 35
M  V30 35 1 35 36
M  V30 36 2 36 37
M  V30 37 1 37 38
M  V30 38 1 37 39
M  V30 39 1 39 40
M  V30 40 2 39 41
M  V30 41 1 32 42
M  V30 42 2 42 43
M  V30 43 1 21 44
M  V30 44 2 44 45
M  V30 45 1 13 4
M  V30 46 1 45 14
M  V30 47 1 13 8
M  V30 48 1 45 18
M  V30 49 1 42 28
M  V30 50 1 41 34
M  V30 51 1 1 46
M  V30 52 1 1 47
M  V30 53 1 1 48
M  V30 54 1 3 49
M  V30 55 1 3 50
M  V30 56 1 5 51
M  V30 57 1 6 52
M  V30 58 1 7 53
M  V30 59 1 10 54
M  V30 60 1 11 55
M  V30 61 1 12 56
M  V30 62 1 16 57
M  V30 63 1 19 58
M  V30 64 1 20 59
M  V30 65 1 24 60
M  V30 66 1 24 61
M  V30 67 1 25 62
M  V30 68 1 29 63
M  V30 69 1 30 64
M  V30 70 1 31 65
M  V30 71 1 33 66
M  V30 72 1 33 67
M  V30 73 1 35 68
M  V30 74 1 36 69
M  V30 75 1 41 70
M  V30 76 1 44 71
M  V30 END BOND
M  V30 END CTAB
M  END
>  <Dataset>  (565) 
ChEMBL_Kinases

>  <Ligand_Instance>  (565) 
nan

>  <PDB_ID>  (565) 
nan

>  <Standardized_SMILES>  (565) 
CN(Cc1cccc2ncccc12)c1ncnc2ccc(C#CCNC(=O)c3cccn(Cc4ccc(F)c(F)c4)c3=O)cc12

>  <Name>  (565) 
nan

>  <Pocket>  (565) 
nan

>  <ATP_Site>  (565) 
nan

>  <Peripheral>  (565) 
nan

>  <Num_H_Atoms_ProtBoundConf>  (565) 
nan

>  <Num_Resolved_Atoms>  (565) 
nan

>  <Num_Not_Resolved_Atoms>  (565) 
nan

$$$$
CHEMBL3640484
     RDKit          3D

  0  0  0  0  0  0  0  0  0  0999 V3000
M  V30 BEGIN CTAB
M  V30 COUNTS 74 78 0 0 0
M  V30 BEGIN ATOM
M  V30 1 C 6.752264 2.185689 -0.913978 0
M  V30 2 C 5.535698 2.483749 -1.797751 0
M  V30 3 N 5.706783 1.932930 -3.104020 0
M  V30 4 C 5.694673 0.504253 -3.168134 0
M  V30 5 C 5.117074 0.144014 -4.528831 0
M  V30 6 C 4.061156 1.258724 -4.651675 0
M  V30 7 C 2.896887 0.852797 -3.772790 0
M  V30 8 N 1.804895 1.775946 -3.769288 0
M  V30 9 C 1.721503 3.096085 -3.236275 0
M  V30 10 C 0.585899 1.330291 -4.398707 0
M  V30 11 N 0.184791 1.982830 -5.528316 0
M  V30 12 C -0.956760 1.565075 -6.149257 0
M  V30 13 N -1.713922 0.527141 -5.693837 0
M  V30 14 C -1.348834 -0.141133 -4.580268 0
M  V30 15 C -2.071499 -1.199948 -4.060185 0
M  V30 16 C -1.665859 -1.867354 -2.899686 0
M  V30 17 C -0.501908 -1.443908 -2.261450 0
M  V30 18 C -0.018352 -2.087045 -1.049161 0
M  V30 19 C 0.395292 -2.604617 -0.041841 0
M  V30 20 C 0.915846 -3.216897 1.197759 0
M  V30 21 N -0.140244 -2.984551 2.193446 0
M  V30 22 C -1.375624 -3.571383 1.854354 0
M  V30 23 O -1.251513 -4.172021 0.736988 0
M  V30 24 C -2.613442 -3.527825 2.617809 0
M  V30 25 C -3.680740 -4.217323 2.021897 0
M  V30 26 C -4.915484 -4.274054 2.618491 0
M  V30 27 C -5.173987 -3.663091 3.825974 0
M  V30 28 N -4.128995 -3.013864 4.365328 0
M  V30 29 C -4.335088 -2.345482 5.635738 0
M  V30 30 C -4.796932 -0.946742 5.393934 0
M  V30 31 C -6.188585 -0.831975 5.305889 0
M  V30 32 C -6.767454 0.417109 5.082783 0
M  V30 33 C -5.995014 1.560961 4.943783 0
M  V30 34 F -6.587715 2.755329 4.726177 0
M  V30 35 C -4.628579 1.410549 5.036144 0
M  V30 36 F -3.827551 2.497743 4.907691 0
M  V30 37 C -4.029511 0.187972 5.256270 0
M  V30 38 C -2.917299 -2.940414 3.809409 0
M  V30 39 O -1.963898 -2.327345 4.335742 0
M  V30 40 C 0.184092 -0.384447 -2.818102 0
M  V30 41 C -0.198157 0.284982 -3.959464 0
M  V30 42 C 4.837360 2.434895 -4.118130 0
M  V30 43 H 6.409217 2.196012 0.140492 0
M  V30 44 H 7.490932 2.990359 -1.023134 0
M  V30 45 H 7.149109 1.176599 -1.132769 0
M  V30 46 H 4.661606 2.034601 -1.268605 0
M  V30 47 H 5.451816 3.587528 -1.795153 0
M  V30 48 H 6.761931 0.154053 -3.190762 0
M  V30 49 H 5.142336 0.033338 -2.349157 0
M  V30 50 H 5.879484 0.258420 -5.329392 0
M  V30 51 H 4.666559 -0.847475 -4.480865 0
M  V30 52 H 3.734979 1.352309 -5.685900 0
M  V30 53 H 3.246884 0.736959 -2.704728 0
M  V30 54 H 2.598782 -0.159998 -4.100097 0
M  V30 55 H 2.359839 3.279931 -2.345903 0
M  V30 56 H 1.934873 3.877850 -3.989194 0
M  V30 57 H 0.677385 3.317067 -2.860317 0
M  V30 58 H -1.293182 2.081163 -7.060899 0
M  V30 59 H -2.972320 -1.507737 -4.577001 0
M  V30 60 H -2.227869 -2.691813 -2.490614 0
M  V30 61 H 1.001886 -4.311055 1.102085 0
M  V30 62 H 1.838184 -2.703993 1.462727 0
M  V30 63 H -0.068291 -2.453958 3.084467 0
M  V30 64 H -3.570322 -4.731666 1.065735 0
M  V30 65 H -5.715755 -4.811694 2.136194 0
M  V30 66 H -6.164572 -3.744202 4.246858 0
M  V30 67 H -3.340712 -2.222268 6.156426 0
M  V30 68 H -5.036780 -2.918436 6.239739 0
M  V30 69 H -6.908103 -1.649378 5.395923 0
M  V30 70 H -7.840390 0.529575 5.010429 0
M  V30 71 H -2.964773 0.022835 5.335621 0
M  V30 72 H 1.061100 -0.100544 -2.287643 0
M  V30 73 H 5.475266 2.805524 -4.978779 0
M  V30 74 H 4.239360 3.286938 -3.800883 0
M  V30 END ATOM
M  V30 BEGIN BOND
M  V30 1 1 1 2
M  V30 2 1 2 3
M  V30 3 1 3 4
M  V30 4 1 4 5
M  V30 5 1 5 6
M  V30 6 1 6 7
M  V30 7 1 7 8
M  V30 8 1 8 9
M  V30 9 1 8 10
M  V30 10 2 10 11
M  V30 11 1 11 12
M  V30 12 2 12 13
M  V30 13 1 13 14
M  V30 14 2 14 15
M  V30 15 1 15 16
M  V30 16 2 16 17
M  V30 17 1 17 18
M  V30 18 3 18 19
M  V30 19 1 19 20
M  V30 20 1 20 21
M  V30 21 1 21 22
M  V30 22 2 22 23
M  V30 23 1 22 24
M  V30 24 2 24 25
M  V30 25 1 25 26
M  V30 26 2 26 27
M  V30 27 1 27 28
M  V30 28 1 28 29
M  V30 29 1 29 30
M  V30 30 2 30 31
M  V30 31 1 31 32
M  V30 32 2 32 33
M  V30 33 1 33 34
M  V30 34 1 33 35
M  V30 35 1 35 36
M  V30 36 2 35 37
M  V30 37 1 28 38
M  V30 38 2 38 39
M  V30 39 1 17 40
M  V30 40 2 40 41
M  V30 41 1 6 42
M  V30 42 1 42 3
M  V30 43 1 41 10
M  V30 44 1 41 14
M  V30 45 1 38 24
M  V30 46 1 37 30
M  V30 47 1 1 43
M  V30 48 1 1 44
M  V30 49 1 1 45
M  V30 50 1 2 46
M  V30 51 1 2 47
M  V30 52 1 4 48
M  V30 53 1 4 49
M  V30 54 1 5 50
M  V30 55 1 5 51
M  V30 56 1 6 52
M  V30 57 1 7 53
M  V30 58 1 7 54
M  V30 59 1 9 55
M  V30 60 1 9 56
M  V30 61 1 9 57
M  V30 62 1 12 58
M  V30 63 1 15 59
M  V30 64 1 16 60
M  V30 65 1 20 61
M  V30 66 1 20 62
M  V30 67 1 21 63
M  V30 68 1 25 64
M  V30 69 1 26 65
M  V30 70 1 27 66
M  V30 71 1 29 67
M  V30 72 1 29 68
M  V30 73 1 31 69
M  V30 74 1 32 70
M  V30 75 1 37 71
M  V30 76 1 40 72
M  V30 77 1 42 73
M  V30 78 1 42 74
M  V30 END BOND
M  V30 END CTAB
M  END
>  <Dataset>  (566) 
ChEMBL_Kinases

>  <Ligand_Instance>  (566) 
nan

>  <PDB_ID>  (566) 
nan

>  <Standardized_SMILES>  (566) 
CCN1CCC(CN(C)c2ncnc3ccc(C#CCNC(=O)c4cccn(Cc5ccc(F)c(F)c5)c4=O)cc23)C1

>  <Name>  (566) 
nan

>  <Pocket>  (566) 
nan

>  <ATP_Site>  (566) 
nan

>  <Peripheral>  (566) 
nan

>  <Num_H_Atoms_ProtBoundConf>  (566) 
nan

>  <Num_Resolved_Atoms>  (566) 
nan

>  <Num_Not_Resolved_Atoms>  (566) 
nan

$$$$
CHEMBL3640485
     RDKit          3D

  0  0  0  0  0  0  0  0  0  0999 V3000
M  V30 BEGIN CTAB
M  V30 COUNTS 62 66 0 0 0
M  V30 BEGIN ATOM
M  V30 1 C 2.095883 0.621745 2.177639 0
M  V30 2 N 1.933913 1.551133 3.306769 0
M  V30 3 C 2.034938 1.011452 4.623785 0
M  V30 4 C 1.899841 1.791143 5.755599 0
M  V30 5 C 1.998892 1.261884 7.038506 0
M  V30 6 C 2.244106 -0.109684 7.158145 0
M  V30 7 C 2.388143 -0.938520 6.073186 0
M  V30 8 C 2.275088 -0.329701 4.844870 0
M  V30 9 C 1.684697 2.944274 3.176029 0
M  V30 10 N 2.543019 3.870999 3.685722 0
M  V30 11 C 2.292971 5.196417 3.553757 0
M  V30 12 N 1.202838 5.679141 2.923594 0
M  V30 13 C 0.308335 4.804336 2.393361 0
M  V30 14 C -0.825351 5.250225 1.737424 0
M  V30 15 C -1.742273 4.358911 1.193946 0
M  V30 16 C -1.504972 3.002336 1.318177 0
M  V30 17 C -2.399647 2.006674 0.786471 0
M  V30 18 C -3.134589 1.157570 0.337121 0
M  V30 19 C -4.035265 0.103595 -0.191469 0
M  V30 20 N -3.261729 -1.041499 -0.633002 0
M  V30 21 C -3.898017 -2.185986 -1.181291 0
M  V30 22 O -5.160358 -1.985527 -1.189563 0
M  V30 23 C -3.265672 -3.392366 -1.660333 0
M  V30 24 C -4.160025 -4.353555 -2.148453 0
M  V30 25 N -3.723786 -5.520981 -2.625572 0
M  V30 26 C -2.438760 -5.859160 -2.675736 0
M  V30 27 N -1.574445 -4.958965 -2.216573 0
M  V30 28 C -0.159121 -5.264369 -2.243115 0
M  V30 29 C 0.419591 -4.810438 -3.532869 0
M  V30 30 C 0.385856 -5.750573 -4.551715 0
M  V30 31 C 0.889864 -5.483378 -5.826239 0
M  V30 32 C 1.439478 -4.227681 -6.061553 0
M  V30 33 F 1.942126 -3.928384 -7.293362 0
M  V30 34 C 1.478197 -3.275320 -5.043791 0
M  V30 35 F 2.009871 -2.048215 -5.256507 0
M  V30 36 C 0.971993 -3.587975 -3.816735 0
M  V30 37 C -1.953689 -3.772432 -1.726737 0
M  V30 38 O -1.158953 -2.912440 -1.290333 0
M  V30 39 C -0.356042 2.575285 1.983188 0
M  V30 40 C 0.559416 3.446694 2.525597 0
M  V30 41 H 1.427804 -0.240597 2.270352 0
M  V30 42 H 2.025147 1.171507 1.225642 0
M  V30 43 H 3.164262 0.268916 2.270544 0
M  V30 44 H 1.710121 2.852257 5.670634 0
M  V30 45 H 1.885245 1.915855 7.899212 0
M  V30 46 H 2.317789 -0.502014 8.179513 0
M  V30 47 H 2.578048 -2.000537 6.170244 0
M  V30 48 H 2.384728 -0.961848 3.963269 0
M  V30 49 H 3.062484 5.835446 4.008742 0
M  V30 50 H -1.034676 6.304883 1.626368 0
M  V30 51 H -2.645880 4.687810 0.670857 0
M  V30 52 H -4.778380 -0.185792 0.586765 0
M  V30 53 H -4.559063 0.589607 -1.050695 0
M  V30 54 H -2.222924 -1.035611 -0.551581 0
M  V30 55 H -5.232492 -4.208466 -2.166525 0
M  V30 56 H -2.062209 -6.789759 -3.053910 0
M  V30 57 H 0.005450 -6.357003 -2.103094 0
M  V30 58 H 0.320630 -4.735915 -1.411581 0
M  V30 59 H -0.032250 -6.739714 -4.413159 0
M  V30 60 H 0.849192 -6.231465 -6.593242 0
M  V30 61 H 0.983283 -2.884971 -3.009521 0
M  V30 62 H -0.193855 1.528504 2.066936 0
M  V30 END ATOM
M  V30 BEGIN BOND
M  V30 1 1 1 2
M  V30 2 1 2 3
M  V30 3 2 3 4
M  V30 4 1 4 5
M  V30 5 2 5 6
M  V30 6 1 6 7
M  V30 7 2 7 8
M  V30 8 1 2 9
M  V30 9 2 9 10
M  V30 10 1 10 11
M  V30 11 2 11 12
M  V30 12 1 12 13
M  V30 13 2 13 14
M  V30 14 1 14 15
M  V30 15 2 15 16
M  V30 16 1 16 17
M  V30 17 3 17 18
M  V30 18 1 18 19
M  V30 19 1 19 20
M  V30 20 1 20 21
M  V30 21 2 21 22
M  V30 22 1 21 23
M  V30 23 2 23 24
M  V30 24 1 24 25
M  V30 25 2 25 26
M  V30 26 1 26 27
M  V30 27 1 27 28
M  V30 28 1 28 29
M  V30 29 2 29 30
M  V30 30 1 30 31
M  V30 31 2 31 32
M  V30 32 1 32 33
M  V30 33 1 32 34
M  V30 34 1 34 35
M  V30 35 2 34 36
M  V30 36 1 27 37
M  V30 37 2 37 38
M  V30 38 1 16 39
M  V30 39 2 39 40
M  V30 40 1 8 3
M  V30 41 1 40 9
M  V30 42 1 40 13
M  V30 43 1 37 23
M  V30 44 1 36 29
M  V30 45 1 1 41
M  V30 46 1 1 42
M  V30 47 1 1 43
M  V30 48 1 4 44
M  V30 49 1 5 45
M  V30 50 1 6 46
M  V30 51 1 7 47
M  V30 52 1 8 48
M  V30 53 1 11 49
M  V30 54 1 14 50
M  V30 55 1 15 51
M  V30 56 1 19 52
M  V30 57 1 19 53
M  V30 58 1 20 54
M  V30 59 1 24 55
M  V30 60 1 26 56
M  V30 61 1 28 57
M  V30 62 1 28 58
M  V30 63 1 30 59
M  V30 64 1 31 60
M  V30 65 1 36 61
M  V30 66 1 39 62
M  V30 END BOND
M  V30 END CTAB
M  END
>  <Dataset>  (567) 
ChEMBL_Kinases

>  <Ligand_Instance>  (567) 
nan

>  <PDB_ID>  (567) 
nan

>  <Standardized_SMILES>  (567) 
CN(c1ccccc1)c1ncnc2ccc(C#CCNC(=O)c3cncn(Cc4ccc(F)c(F)c4)c3=O)cc12

>  <Name>  (567) 
nan

>  <Pocket>  (567) 
nan

>  <ATP_Site>  (567) 
nan

>  <Peripheral>  (567) 
nan

>  <Num_H_Atoms_ProtBoundConf>  (567) 
nan

>  <Num_Resolved_Atoms>  (567) 
nan

>  <Num_Not_Resolved_Atoms>  (567) 
nan

$$$$
CHEMBL3640486
     RDKit          3D

  0  0  0  0  0  0  0  0  0  0999 V3000
M  V30 BEGIN CTAB
M  V30 COUNTS 70 73 0 0 0
M  V30 BEGIN ATOM
M  V30 1 C 2.012988 -1.553171 3.234708 0
M  V30 2 C 3.452168 -1.381503 3.565902 0
M  V30 3 N 4.342994 -1.218121 2.449981 0
M  V30 4 C 4.366229 -2.475442 1.716429 0
M  V30 5 C 5.258752 -2.472637 0.523066 0
M  V30 6 C 5.196391 -0.215135 1.883358 0
M  V30 7 N 6.493648 -0.642651 1.903358 0
M  V30 8 C 7.487694 0.131272 1.429554 0
M  V30 9 N 7.200687 1.347380 0.927233 0
M  V30 10 C 5.948450 1.831477 0.876190 0
M  V30 11 C 5.552356 3.051791 0.384846 0
M  V30 12 C 4.219253 3.424573 0.392416 0
M  V30 13 C 3.218211 2.585274 0.895850 0
M  V30 14 C 1.840977 2.988538 0.894178 0
M  V30 15 C 0.680553 3.338415 0.873949 0
M  V30 16 C -0.720958 3.754964 0.824593 0
M  V30 17 N -1.618264 2.629639 1.054819 0
M  V30 18 C -1.538019 1.546929 0.149281 0
M  V30 19 O -0.644724 1.847443 -0.690594 0
M  V30 20 C -2.319749 0.325117 0.167494 0
M  V30 21 C -3.324586 -0.287527 0.878024 0
M  V30 22 C -3.888984 0.465720 2.051046 0
M  V30 23 N -3.630065 -1.477556 0.381498 0
M  V30 24 C -4.660167 -2.247458 1.042448 0
M  V30 25 C -6.048534 -1.944399 0.581185 0
M  V30 26 O -6.936976 -2.767913 1.302104 0
M  V30 27 N -2.856637 -1.702489 -0.659223 0
M  V30 28 C -2.845179 -2.892947 -1.469753 0
M  V30 29 C -3.715150 -2.870379 -2.651353 0
M  V30 30 C -4.980826 -3.399132 -2.776014 0
M  V30 31 C -5.771602 -3.357330 -3.901967 0
M  V30 32 C -5.273645 -2.733389 -5.025509 0
M  V30 33 F -6.047389 -2.690030 -6.134015 0
M  V30 34 C -4.011669 -2.181374 -4.972299 0
M  V30 35 F -3.603651 -1.591401 -6.117072 0
M  V30 36 C -3.267275 -2.254602 -3.816434 0
M  V30 37 C -2.047451 -0.626034 -0.817893 0
M  V30 38 O -1.189401 -0.578703 -1.761859 0
M  V30 39 C 3.605459 1.358469 1.391223 0
M  V30 40 C 4.940522 1.032139 1.362883 0
M  V30 41 H 1.580775 -2.325495 3.926627 0
M  V30 42 H 1.425755 -0.627467 3.463954 0
M  V30 43 H 1.769749 -1.860826 2.219235 0
M  V30 44 H 3.514971 -0.505613 4.274248 0
M  V30 45 H 3.818020 -2.252610 4.174685 0
M  V30 46 H 4.786518 -3.231192 2.426689 0
M  V30 47 H 3.363007 -2.784061 1.397133 0
M  V30 48 H 4.866801 -3.195980 -0.220199 0
M  V30 49 H 6.290143 -2.811016 0.794209 0
M  V30 50 H 5.306710 -1.479919 0.015105 0
M  V30 51 H 8.523456 -0.190341 1.436634 0
M  V30 52 H 6.341558 3.693848 -0.003451 0
M  V30 53 H 3.940222 4.398955 -0.004383 0
M  V30 54 H -1.020327 4.236671 -0.107322 0
M  V30 55 H -0.851353 4.461034 1.671783 0
M  V30 56 H -2.297538 2.595776 1.842236 0
M  V30 57 H -4.330205 1.424085 1.783109 0
M  V30 58 H -3.119147 0.628276 2.828528 0
M  V30 59 H -4.643974 -0.203643 2.568501 0
M  V30 60 H -4.497946 -3.349135 0.842410 0
M  V30 61 H -4.589294 -2.189398 2.166318 0
M  V30 62 H -6.158960 -2.173312 -0.472162 0
M  V30 63 H -6.366515 -0.905551 0.844155 0
M  V30 64 H -7.875914 -2.502408 1.071228 0
M  V30 65 H -1.790726 -2.989519 -1.871149 0
M  V30 66 H -2.968365 -3.817990 -0.861359 0
M  V30 67 H -5.376437 -3.900174 -1.891250 0
M  V30 68 H -6.763678 -3.814505 -3.877734 0
M  V30 69 H -2.304676 -1.779072 -3.937585 0
M  V30 70 H 2.832713 0.718441 1.774681 0
M  V30 END ATOM
M  V30 BEGIN BOND
M  V30 1 1 1 2
M  V30 2 1 2 3
M  V30 3 1 3 4
M  V30 4 1 4 5
M  V30 5 1 3 6
M  V30 6 2 6 7
M  V30 7 1 7 8
M  V30 8 2 8 9
M  V30 9 1 9 10
M  V30 10 2 10 11
M  V30 11 1 11 12
M  V30 12 2 12 13
M  V30 13 1 13 14
M  V30 14 3 14 15
M  V30 15 1 15 16
M  V30 16 1 16 17
M  V30 17 1 17 18
M  V30 18 2 18 19
M  V30 19 1 18 20
M  V30 20 2 20 21
M  V30 21 1 21 22
M  V30 22 1 21 23
M  V30 23 1 23 24
M  V30 24 1 24 25
M  V30 25 1 25 26
M  V30 26 1 23 27
M  V30 27 1 27 28
M  V30 28 1 28 29
M  V30 29 2 29 30
M  V30 30 1 30 31
M  V30 31 2 31 32
M  V30 32 1 32 33
M  V30 33 1 32 34
M  V30 34 1 34 35
M  V30 35 2 34 36
M  V30 36 1 27 37
M  V30 37 2 37 38
M  V30 38 1 13 39
M  V30 39 2 39 40
M  V30 40 1 40 6
M  V30 41 1 40 10
M  V30 42 1 37 20
M  V30 43 1 36 29
M  V30 44 1 1 41
M  V30 45 1 1 42
M  V30 46 1 1 43
M  V30 47 1 2 44
M  V30 48 1 2 45
M  V30 49 1 4 46
M  V30 50 1 4 47
M  V30 51 1 5 48
M  V30 52 1 5 49
M  V30 53 1 5 50
M  V30 54 1 8 51
M  V30 55 1 11 52
M  V30 56 1 12 53
M  V30 57 1 16 54
M  V30 58 1 16 55
M  V30 59 1 17 56
M  V30 60 1 22 57
M  V30 61 1 22 58
M  V30 62 1 22 59
M  V30 63 1 24 60
M  V30 64 1 24 61
M  V30 65 1 25 62
M  V30 66 1 25 63
M  V30 67 1 26 64
M  V30 68 1 28 65
M  V30 69 1 28 66
M  V30 70 1 30 67
M  V30 71 1 31 68
M  V30 72 1 36 69
M  V30 73 1 39 70
M  V30 END BOND
M  V30 END CTAB
M  END
>  <Dataset>  (568) 
ChEMBL_Kinases

>  <Ligand_Instance>  (568) 
nan

>  <PDB_ID>  (568) 
nan

>  <Standardized_SMILES>  (568) 
CCN(CC)c1ncnc2ccc(C#CCNC(=O)c3c(C)n(CCO)n(Cc4ccc(F)c(F)c4)c3=O)cc12

>  <Name>  (568) 
nan

>  <Pocket>  (568) 
nan

>  <ATP_Site>  (568) 
nan

>  <Peripheral>  (568) 
nan

>  <Num_H_Atoms_ProtBoundConf>  (568) 
nan

>  <Num_Resolved_Atoms>  (568) 
nan

>  <Num_Not_Resolved_Atoms>  (568) 
nan

$$$$
CHEMBL3640487
     RDKit          3D

  0  0  0  0  0  0  0  0  0  0999 V3000
M  V30 BEGIN CTAB
M  V30 COUNTS 63 66 0 0 0
M  V30 BEGIN ATOM
M  V30 1 C 6.180224 -1.619432 5.277211 0
M  V30 2 N 5.171962 -0.578132 5.396546 0
M  V30 3 C 4.856485 -0.045049 6.709968 0
M  V30 4 C 4.540627 -0.132248 4.201904 0
M  V30 5 O 5.056675 -0.807006 3.267519 0
M  V30 6 C 3.511756 0.933501 4.343393 0
M  V30 7 N 2.942092 1.303647 3.067058 0
M  V30 8 C 3.843877 1.806914 2.090771 0
M  V30 9 N 5.159546 1.936963 2.329080 0
M  V30 10 C 6.067063 2.397173 1.473998 0
M  V30 11 N 5.660232 2.781856 0.231149 0
M  V30 12 C 4.362009 2.698844 -0.128704 0
M  V30 13 C 3.934880 3.084545 -1.383566 0
M  V30 14 C 2.604540 2.996567 -1.744290 0
M  V30 15 C 1.732552 2.511137 -0.803663 0
M  V30 16 C 0.352046 2.434816 -1.218813 0
M  V30 17 C -0.813738 2.381709 -1.551233 0
M  V30 18 C -2.236025 2.325418 -1.932840 0
M  V30 19 N -2.845026 1.079366 -1.538052 0
M  V30 20 C -2.233863 -0.055070 -2.122235 0
M  V30 21 O -1.285931 0.326626 -2.859566 0
M  V30 22 C -2.591089 -1.444047 -1.942475 0
M  V30 23 C -1.805466 -2.354922 -2.650502 0
M  V30 24 C -2.029287 -3.710041 -2.576230 0
M  V30 25 C -3.032633 -4.245560 -1.806098 0
M  V30 26 N -3.773513 -3.356095 -1.136010 0
M  V30 27 C -4.848465 -3.865809 -0.307561 0
M  V30 28 C -6.083657 -3.954291 -1.126117 0
M  V30 29 C -6.265764 -5.142150 -1.802063 0
M  V30 30 C -7.358033 -5.427833 -2.622337 0
M  V30 31 C -8.296724 -4.426017 -2.737416 0
M  V30 32 F -9.389364 -4.618750 -3.513939 0
M  V30 33 C -8.161488 -3.219590 -2.082063 0
M  V30 34 F -9.094462 -2.261732 -2.214348 0
M  V30 35 C -7.059704 -2.993664 -1.284061 0
M  V30 36 C -3.581190 -2.030340 -1.187041 0
M  V30 37 O -4.291797 -1.225173 -0.547796 0
M  V30 38 C 2.168659 2.132049 0.437057 0
M  V30 39 C 3.490184 2.210252 0.820692 0
M  V30 40 H 5.653701 -2.584155 5.061131 0
M  V30 41 H 6.700737 -1.779460 6.255381 0
M  V30 42 H 6.894049 -1.450124 4.449325 0
M  V30 43 H 3.755470 0.152531 6.696766 0
M  V30 44 H 5.388144 0.883670 6.954954 0
M  V30 45 H 5.007257 -0.782564 7.511104 0
M  V30 46 H 2.710700 0.489300 4.965099 0
M  V30 47 H 3.938589 1.775034 4.901556 0
M  V30 48 H 1.920163 1.189228 2.919963 0
M  V30 49 H 7.098369 2.445879 1.807332 0
M  V30 50 H 4.726557 3.457831 -2.051948 0
M  V30 51 H 2.371641 3.323469 -2.749402 0
M  V30 52 H -2.238575 2.369210 -3.038715 0
M  V30 53 H -2.805702 3.185361 -1.553961 0
M  V30 54 H -3.653207 0.933072 -0.895330 0
M  V30 55 H -0.979024 -2.016887 -3.292941 0
M  V30 56 H -1.393354 -4.374197 -3.143601 0
M  V30 57 H -3.227676 -5.299214 -1.731355 0
M  V30 58 H -4.991305 -3.164379 0.539850 0
M  V30 59 H -4.595266 -4.872619 0.102295 0
M  V30 60 H -5.542988 -5.964913 -1.737793 0
M  V30 61 H -7.461990 -6.369364 -3.132786 0
M  V30 62 H -6.892265 -2.073109 -0.742600 0
M  V30 63 H 1.402317 1.765402 1.098646 0
M  V30 END ATOM
M  V30 BEGIN BOND
M  V30 1 1 1 2
M  V30 2 1 2 3
M  V30 3 1 2 4
M  V30 4 2 4 5
M  V30 5 1 4 6
M  V30 6 1 6 7
M  V30 7 1 7 8
M  V30 8 2 8 9
M  V30 9 1 9 10
M  V30 10 2 10 11
M  V30 11 1 11 12
M  V30 12 2 12 13
M  V30 13 1 13 14
M  V30 14 2 14 15
M  V30 15 1 15 16
M  V30 16 3 16 17
M  V30 17 1 17 18
M  V30 18 1 18 19
M  V30 19 1 19 20
M  V30 20 2 20 21
M  V30 21 1 20 22
M  V30 22 2 22 23
M  V30 23 1 23 24
M  V30 24 2 24 25
M  V30 25 1 25 26
M  V30 26 1 26 27
M  V30 27 1 27 28
M  V30 28 2 28 29
M  V30 29 1 29 30
M  V30 30 2 30 31
M  V30 31 1 31 32
M  V30 32 1 31 33
M  V30 33 1 33 34
M  V30 34 2 33 35
M  V30 35 1 26 36
M  V30 36 2 36 37
M  V30 37 1 15 38
M  V30 38 2 38 39
M  V30 39 1 39 8
M  V30 40 1 39 12
M  V30 41 1 36 22
M  V30 42 1 35 28
M  V30 43 1 1 40
M  V30 44 1 1 41
M  V30 45 1 1 42
M  V30 46 1 3 43
M  V30 47 1 3 44
M  V30 48 1 3 45
M  V30 49 1 6 46
M  V30 50 1 6 47
M  V30 51 1 7 48
M  V30 52 1 10 49
M  V30 53 1 13 50
M  V30 54 1 14 51
M  V30 55 1 18 52
M  V30 56 1 18 53
M  V30 57 1 19 54
M  V30 58 1 23 55
M  V30 59 1 24 56
M  V30 60 1 25 57
M  V30 61 1 27 58
M  V30 62 1 27 59
M  V30 63 1 29 60
M  V30 64 1 30 61
M  V30 65 1 35 62
M  V30 66 1 38 63
M  V30 END BOND
M  V30 END CTAB
M  END
>  <Dataset>  (569) 
ChEMBL_Kinases

>  <Ligand_Instance>  (569) 
nan

>  <PDB_ID>  (569) 
nan

>  <Standardized_SMILES>  (569) 
CN(C)C(=O)CNc1ncnc2ccc(C#CCNC(=O)c3cccn(Cc4ccc(F)c(F)c4)c3=O)cc12

>  <Name>  (569) 
nan

>  <Pocket>  (569) 
nan

>  <ATP_Site>  (569) 
nan

>  <Peripheral>  (569) 
nan

>  <Num_H_Atoms_ProtBoundConf>  (569) 
nan

>  <Num_Resolved_Atoms>  (569) 
nan

>  <Num_Not_Resolved_Atoms>  (569) 
nan

$$$$
CHEMBL3640488
     RDKit          3D

  0  0  0  0  0  0  0  0  0  0999 V3000
M  V30 BEGIN CTAB
M  V30 COUNTS 50 53 0 0 0
M  V30 BEGIN ATOM
M  V30 1 C 3.089932 -3.309054 -2.657325 0
M  V30 2 N 3.128655 -2.310854 -1.618582 0
M  V30 3 C 4.007891 -2.419902 -0.509806 0
M  V30 4 N 4.800460 -3.504698 -0.437167 0
M  V30 5 C 5.659165 -3.677641 0.609282 0
M  V30 6 N 5.768033 -2.783706 1.623794 0
M  V30 7 C 4.991490 -1.675958 1.594220 0
M  V30 8 C 5.063117 -0.733646 2.592332 0
M  V30 9 C 4.284926 0.416696 2.586750 0
M  V30 10 C 3.428739 0.557156 1.511381 0
M  V30 11 C 2.557004 1.716103 1.356136 0
M  V30 12 C 1.834869 2.664670 1.211154 0
M  V30 13 C 0.936757 3.832869 1.005957 0
M  V30 14 N -0.264126 3.380343 0.285900 0
M  V30 15 C -0.991755 2.445033 0.967071 0
M  V30 16 O -0.745655 1.962704 2.120222 0
M  V30 17 C -2.061747 1.536015 1.155458 0
M  V30 18 C -2.526818 1.902536 -0.240905 0
M  V30 19 C -3.664410 1.425045 -0.990585 0
M  V30 20 C -4.486958 0.477070 -0.360389 0
M  V30 21 N -4.109360 0.128282 0.874574 0
M  V30 22 C -4.773367 -0.789034 1.760452 0
M  V30 23 C -4.312320 -2.189328 1.649272 0
M  V30 24 C -4.834979 -3.054869 0.716619 0
M  V30 25 C -4.225740 -4.274068 0.885605 0
M  V30 26 O -3.370450 -4.158689 1.875874 0
M  V30 27 C -3.375167 -2.937885 2.372982 0
M  V30 28 C -3.033782 0.717531 1.313491 0
M  V30 29 O -2.563027 0.461525 2.503242 0
M  V30 30 C 3.358500 -0.398098 0.506708 0
M  V30 31 C 4.137828 -1.529897 0.529871 0
M  V30 32 H 3.532115 -2.922131 -3.587396 0
M  V30 33 H 3.676267 -4.238789 -2.389030 0
M  V30 34 H 2.020784 -3.621529 -2.791673 0
M  V30 35 H 2.446697 -1.547891 -1.812524 0
M  V30 36 H 6.243542 -4.587080 0.557592 0
M  V30 37 H 5.756948 -0.872897 3.438894 0
M  V30 38 H 4.313517 1.179574 3.350681 0
M  V30 39 H 1.456131 4.481693 0.276820 0
M  V30 40 H 0.697264 4.341200 1.951532 0
M  V30 41 H -0.761576 3.538994 -0.599919 0
M  V30 42 H -2.255039 2.567693 -1.138030 0
M  V30 43 H -4.139642 1.566020 -1.964949 0
M  V30 44 H -5.372103 -0.050251 -0.644903 0
M  V30 45 H -5.883682 -0.787441 1.575744 0
M  V30 46 H -4.633473 -0.526896 2.856186 0
M  V30 47 H -5.566429 -3.012309 -0.065841 0
M  V30 48 H -4.186902 -5.289144 0.509207 0
M  V30 49 H -2.829572 -2.486421 3.164882 0
M  V30 50 H 2.678969 -0.250082 -0.311596 0
M  V30 END ATOM
M  V30 BEGIN BOND
M  V30 1 1 1 2
M  V30 2 1 2 3
M  V30 3 2 3 4
M  V30 4 1 4 5
M  V30 5 2 5 6
M  V30 6 1 6 7
M  V30 7 2 7 8
M  V30 8 1 8 9
M  V30 9 2 9 10
M  V30 10 1 10 11
M  V30 11 3 11 12
M  V30 12 1 12 13
M  V30 13 1 13 14
M  V30 14 1 14 15
M  V30 15 2 15 16
M  V30 16 1 15 17
M  V30 17 2 17 18
M  V30 18 1 18 19
M  V30 19 2 19 20
M  V30 20 1 20 21
M  V30 21 1 21 22
M  V30 22 1 22 23
M  V30 23 1 23 24
M  V30 24 2 24 25
M  V30 25 1 25 26
M  V30 26 1 26 27
M  V30 27 1 21 28
M  V30 28 2 28 29
M  V30 29 1 10 30
M  V30 30 2 30 31
M  V30 31 1 31 3
M  V30 32 1 31 7
M  V30 33 1 28 17
M  V30 34 2 27 23
M  V30 35 1 1 32
M  V30 36 1 1 33
M  V30 37 1 1 34
M  V30 38 1 2 35
M  V30 39 1 5 36
M  V30 40 1 8 37
M  V30 41 1 9 38
M  V30 42 1 13 39
M  V30 43 1 13 40
M  V30 44 1 14 41
M  V30 45 1 18 42
M  V30 46 1 19 43
M  V30 47 1 20 44
M  V30 48 1 22 45
M  V30 49 1 22 46
M  V30 50 1 24 47
M  V30 51 1 25 48
M  V30 52 1 27 49
M  V30 53 1 30 50
M  V30 END BOND
M  V30 END CTAB
M  END
>  <Dataset>  (570) 
ChEMBL_Kinases

>  <Ligand_Instance>  (570) 
nan

>  <PDB_ID>  (570) 
nan

>  <Standardized_SMILES>  (570) 
CNc1ncnc2ccc(C#CCNC(=O)c3cccn(Cc4ccoc4)c3=O)cc12

>  <Name>  (570) 
nan

>  <Pocket>  (570) 
nan

>  <ATP_Site>  (570) 
nan

>  <Peripheral>  (570) 
nan

>  <Num_H_Atoms_ProtBoundConf>  (570) 
nan

>  <Num_Resolved_Atoms>  (570) 
nan

>  <Num_Not_Resolved_Atoms>  (570) 
nan

$$$$
CHEMBL3640489
     RDKit          3D

  0  0  0  0  0  0  0  0  0  0999 V3000
M  V30 BEGIN CTAB
M  V30 COUNTS 70 74 0 0 0
M  V30 BEGIN ATOM
M  V30 1 C -4.843639 -4.612369 -0.867103 0
M  V30 2 O -5.036488 -3.987323 -2.114647 0
M  V30 3 C -3.941839 -3.589957 -2.866434 0
M  V30 4 C -4.112691 -2.976049 -4.089641 0
M  V30 5 C -3.016067 -2.585468 -4.827626 0
M  V30 6 C -1.692151 -2.775475 -4.406310 0
M  V30 7 C -0.591774 -2.331560 -5.280849 0
M  V30 8 N -0.186259 -0.951882 -5.118593 0
M  V30 9 C -1.378027 -0.126349 -5.334331 0
M  V30 10 C 0.992828 -0.188909 -4.838837 0
M  V30 11 N 1.284333 0.597116 -5.918749 0
M  V30 12 C 2.356318 1.413109 -5.927593 0
M  V30 13 N 3.162580 1.457192 -4.845942 0
M  V30 14 C 2.917891 0.714259 -3.779310 0
M  V30 15 C 3.683378 0.682906 -2.608402 0
M  V30 16 C 3.333395 -0.141653 -1.535113 0
M  V30 17 C 2.206799 -0.965092 -1.590695 0
M  V30 18 C 1.913858 -1.778317 -0.465287 0
M  V30 19 C 1.650818 -2.480425 0.480149 0
M  V30 20 C 1.327316 -3.334424 1.632622 0
M  V30 21 N 0.984306 -2.448305 2.728846 0
M  V30 22 C -0.102059 -1.569909 2.571300 0
M  V30 23 O -0.616415 -1.731089 1.409918 0
M  V30 24 C -0.621790 -0.607516 3.517317 0
M  V30 25 C -1.724612 0.133988 3.078744 0
M  V30 26 C -2.314834 1.078525 3.876314 0
M  V30 27 C -1.863060 1.344014 5.128589 0
M  V30 28 N -0.804872 0.636255 5.556475 0
M  V30 29 C -0.290927 0.884051 6.877626 0
M  V30 30 C 0.749906 1.941023 6.881436 0
M  V30 31 C 0.374807 3.257742 7.046606 0
M  V30 32 C 1.223463 4.359146 7.074203 0
M  V30 33 C 2.574410 4.068620 6.917089 0
M  V30 34 F 3.476413 5.087011 6.931632 0
M  V30 35 C 3.008099 2.764758 6.747616 0
M  V30 36 F 4.340728 2.485000 6.593290 0
M  V30 37 C 2.099860 1.731636 6.732447 0
M  V30 38 C -0.212811 -0.293380 4.790128 0
M  V30 39 O 0.775352 -0.953389 5.191583 0
M  V30 40 C 1.435590 -0.955439 -2.728238 0
M  V30 41 C 1.831773 -0.123492 -3.749362 0
M  V30 42 C -1.606383 -3.393393 -3.178803 0
M  V30 43 C -2.659925 -3.805594 -2.396151 0
M  V30 44 H -4.086044 -5.397417 -0.850609 0
M  V30 45 H -4.538501 -3.783967 -0.168650 0
M  V30 46 H -5.785884 -5.025931 -0.469359 0
M  V30 47 H -5.136612 -2.833924 -4.405359 0
M  V30 48 H -3.294908 -2.121849 -5.760777 0
M  V30 49 H -0.971846 -2.465369 -6.336904 0
M  V30 50 H 0.294291 -3.001693 -5.229049 0
M  V30 51 H -2.177052 -0.297377 -4.617812 0
M  V30 52 H -1.793824 -0.371298 -6.356779 0
M  V30 53 H -1.115976 0.963850 -5.423442 0
M  V30 54 H 2.612056 2.048236 -6.772203 0
M  V30 55 H 4.558531 1.330354 -2.578729 0
M  V30 56 H 3.997296 -0.085015 -0.679439 0
M  V30 57 H 0.495540 -4.026792 1.362175 0
M  V30 58 H 2.217059 -3.953418 1.886962 0
M  V30 59 H 1.503384 -2.435540 3.617285 0
M  V30 60 H -2.148383 -0.019468 2.084606 0
M  V30 61 H -3.162855 1.630057 3.503574 0
M  V30 62 H -2.346718 2.092959 5.735312 0
M  V30 63 H -1.128234 1.150152 7.578345 0
M  V30 64 H 0.150601 -0.077949 7.247319 0
M  V30 65 H -0.685492 3.480713 7.169298 0
M  V30 66 H 0.843473 5.356542 7.208240 0
M  V30 67 H 2.439879 0.713992 6.600005 0
M  V30 68 H 0.578409 -1.570578 -2.781530 0
M  V30 69 H -0.636471 -3.581637 -2.794940 0
M  V30 70 H -2.487548 -4.281552 -1.444958 0
M  V30 END ATOM
M  V30 BEGIN BOND
M  V30 1 1 1 2
M  V30 2 1 2 3
M  V30 3 2 3 4
M  V30 4 1 4 5
M  V30 5 2 5 6
M  V30 6 1 6 7
M  V30 7 1 7 8
M  V30 8 1 8 9
M  V30 9 1 8 10
M  V30 10 2 10 11
M  V30 11 1 11 12
M  V30 12 2 12 13
M  V30 13 1 13 14
M  V30 14 2 14 15
M  V30 15 1 15 16
M  V30 16 2 16 17
M  V30 17 1 17 18
M  V30 18 3 18 19
M  V30 19 1 19 20
M  V30 20 1 20 21
M  V30 21 1 21 22
M  V30 22 2 22 23
M  V30 23 1 22 24
M  V30 24 2 24 25
M  V30 25 1 25 26
M  V30 26 2 26 27
M  V30 27 1 27 28
M  V30 28 1 28 29
M  V30 29 1 29 30
M  V30 30 2 30 31
M  V30 31 1 31 32
M  V30 32 2 32 33
M  V30 33 1 33 34
M  V30 34 1 33 35
M  V30 35 1 35 36
M  V30 36 2 35 37
M  V30 37 1 28 38
M  V30 38 2 38 39
M  V30 39 1 17 40
M  V30 40 2 40 41
M  V30 41 1 6 42
M  V30 42 2 42 43
M  V30 43 1 43 3
M  V30 44 1 41 10
M  V30 45 1 41 14
M  V30 46 1 38 24
M  V30 47 1 37 30
M  V30 48 1 1 44
M  V30 49 1 1 45
M  V30 50 1 1 46
M  V30 51 1 4 47
M  V30 52 1 5 48
M  V30 53 1 7 49
M  V30 54 1 7 50
M  V30 55 1 9 51
M  V30 56 1 9 52
M  V30 57 1 9 53
M  V30 58 1 12 54
M  V30 59 1 15 55
M  V30 60 1 16 56
M  V30 61 1 20 57
M  V30 62 1 20 58
M  V30 63 1 21 59
M  V30 64 1 25 60
M  V30 65 1 26 61
M  V30 66 1 27 62
M  V30 67 1 29 63
M  V30 68 1 29 64
M  V30 69 1 31 65
M  V30 70 1 32 66
M  V30 71 1 37 67
M  V30 72 1 40 68
M  V30 73 1 42 69
M  V30 74 1 43 70
M  V30 END BOND
M  V30 END CTAB
M  END
>  <Dataset>  (571) 
ChEMBL_Kinases

>  <Ligand_Instance>  (571) 
nan

>  <PDB_ID>  (571) 
nan

>  <Standardized_SMILES>  (571) 
COc1ccc(CN(C)c2ncnc3ccc(C#CCNC(=O)c4cccn(Cc5ccc(F)c(F)c5)c4=O)cc23)cc1

>  <Name>  (571) 
nan

>  <Pocket>  (571) 
nan

>  <ATP_Site>  (571) 
nan

>  <Peripheral>  (571) 
nan

>  <Num_H_Atoms_ProtBoundConf>  (571) 
nan

>  <Num_Resolved_Atoms>  (571) 
nan

>  <Num_Not_Resolved_Atoms>  (571) 
nan

$$$$
CHEMBL3640481
     RDKit          3D

  0  0  0  0  0  0  0  0  0  0999 V3000
M  V30 BEGIN CTAB
M  V30 COUNTS 73 78 0 0 0
M  V30 BEGIN ATOM
M  V30 1 C -0.687860 -0.804985 2.070545 0
M  V30 2 N -0.618169 -1.973152 2.899691 0
M  V30 3 C 0.686624 -2.626209 2.734125 0
M  V30 4 C 1.745857 -1.684582 3.123821 0
M  V30 5 C 2.228263 -1.601036 4.433348 0
M  V30 6 N 3.198404 -0.644749 4.482911 0
M  V30 7 N 3.350835 -0.122320 3.270682 0
M  V30 8 C 4.214612 0.894526 2.772528 0
M  V30 9 C 5.589679 0.879878 2.981596 0
M  V30 10 C 6.365413 1.904371 2.465923 0
M  V30 11 C 5.778708 2.934122 1.748768 0
M  V30 12 F 6.602936 3.897843 1.277375 0
M  V30 13 C 4.419638 2.988795 1.517461 0
M  V30 14 C 3.687309 1.949043 2.048817 0
M  V30 15 C 2.483278 -0.738382 2.442661 0
M  V30 16 C -1.578019 -2.532330 3.790227 0
M  V30 17 N -1.290761 -2.672068 5.109575 0
M  V30 18 C -2.200159 -3.203399 5.962117 0
M  V30 19 N -3.420903 -3.615771 5.552428 0
M  V30 20 C -3.758293 -3.501252 4.258960 0
M  V30 21 C -4.981070 -3.902487 3.787421 0
M  V30 22 C -5.363206 -3.800376 2.464584 0
M  V30 23 C -4.429648 -3.254421 1.586454 0
M  V30 24 C -4.742263 -3.109788 0.187592 0
M  V30 25 C -5.005064 -2.968569 -0.982843 0
M  V30 26 C -5.307253 -2.780168 -2.423620 0
M  V30 27 N -4.162778 -2.123521 -3.071575 0
M  V30 28 C -3.939985 -0.870272 -2.461608 0
M  V30 29 O -4.812197 -0.715530 -1.539541 0
M  V30 30 C -2.919682 0.115913 -2.776851 0
M  V30 31 C -2.970139 1.265719 -1.977772 0
M  V30 32 C -2.064121 2.286964 -2.162665 0
M  V30 33 C -1.072846 2.249036 -3.120126 0
M  V30 34 N -1.054929 1.131399 -3.867494 0
M  V30 35 C -0.059479 0.992759 -4.893433 0
M  V30 36 C 1.188606 0.360010 -4.442597 0
M  V30 37 C 2.191659 1.201864 -3.945801 0
M  V30 38 C 3.405143 0.722596 -3.493900 0
M  V30 39 C 3.687259 -0.627105 -3.512121 0
M  V30 40 F 4.836330 -1.181156 -3.093995 0
M  V30 41 C 2.709298 -1.468520 -3.998558 0
M  V30 42 F 2.851239 -2.828422 -4.075528 0
M  V30 43 C 1.498850 -0.985021 -4.448806 0
M  V30 44 C -1.918250 0.113464 -3.720643 0
M  V30 45 O -1.894219 -0.925429 -4.422368 0
M  V30 46 C -3.185985 -2.845972 2.064469 0
M  V30 47 C -2.830747 -2.960392 3.395012 0
M  V30 48 H 0.114632 -0.065586 2.285935 0
M  V30 49 H -0.518569 -1.079107 0.997774 0
M  V30 50 H -1.632767 -0.236528 2.155444 0
M  V30 51 H 0.719008 -3.530859 3.373845 0
M  V30 52 H 0.856256 -2.911826 1.676770 0
M  V30 53 H 1.929614 -2.169290 5.315752 0
M  V30 54 H 6.007701 0.057521 3.546919 0
M  V30 55 H 7.435272 1.854970 2.651856 0
M  V30 56 H 3.974358 3.791095 0.960487 0
M  V30 57 H 2.597834 1.938297 1.896754 0
M  V30 58 H 2.307223 -0.586235 1.366237 0
M  V30 59 H -1.823429 -3.249525 6.984336 0
M  V30 60 H -5.664372 -4.321399 4.529822 0
M  V30 61 H -6.331644 -4.123122 2.117000 0
M  V30 62 H -6.179598 -2.149811 -2.591409 0
M  V30 63 H -5.439098 -3.766421 -2.875219 0
M  V30 64 H -3.529372 -2.404354 -3.851564 0
M  V30 65 H -3.710336 1.396429 -1.196029 0
M  V30 66 H -2.125215 3.163002 -1.532734 0
M  V30 67 H -0.362719 3.043367 -3.269061 0
M  V30 68 H -0.509716 0.437520 -5.753749 0
M  V30 69 H 0.203387 1.997899 -5.327196 0
M  V30 70 H 2.042525 2.281892 -3.899574 0
M  V30 71 H 4.182043 1.367266 -3.109866 0
M  V30 72 H 0.728046 -1.638640 -4.831385 0
M  V30 73 H -2.482248 -2.423098 1.344737 0
M  V30 END ATOM
M  V30 BEGIN BOND
M  V30 1 1 1 2
M  V30 2 1 2 3
M  V30 3 1 3 4
M  V30 4 1 4 5
M  V30 5 2 5 6
M  V30 6 1 6 7
M  V30 7 1 7 8
M  V30 8 2 8 9
M  V30 9 1 9 10
M  V30 10 2 10 11
M  V30 11 1 11 12
M  V30 12 1 11 13
M  V30 13 2 13 14
M  V30 14 1 7 15
M  V30 15 1 2 16
M  V30 16 2 16 17
M  V30 17 1 17 18
M  V30 18 2 18 19
M  V30 19 1 19 20
M  V30 20 2 20 21
M  V30 21 1 21 22
M  V30 22 2 22 23
M  V30 23 1 23 24
M  V30 24 3 24 25
M  V30 25 1 25 26
M  V30 26 1 26 27
M  V30 27 1 27 28
M  V30 28 2 28 29
M  V30 29 1 28 30
M  V30 30 2 30 31
M  V30 31 1 31 32
M  V30 32 2 32 33
M  V30 33 1 33 34
M  V30 34 1 34 35
M  V30 35 1 35 36
M  V30 36 2 36 37
M  V30 37 1 37 38
M  V30 38 2 38 39
M  V30 39 1 39 40
M  V30 40 1 39 41
M  V30 41 1 41 42
M  V30 42 2 41 43
M  V30 43 1 34 44
M  V30 44 2 44 45
M  V30 45 1 23 46
M  V30 46 2 46 47
M  V30 47 2 15 4
M  V30 48 1 47 16
M  V30 49 1 14 8
M  V30 50 1 47 20
M  V30 51 1 44 30
M  V30 52 1 43 36
M  V30 53 1 1 48
M  V30 54 1 1 49
M  V30 55 1 1 50
M  V30 56 1 3 51
M  V30 57 1 3 52
M  V30 58 1 5 53
M  V30 59 1 9 54
M  V30 60 1 10 55
M  V30 61 1 13 56
M  V30 62 1 14 57
M  V30 63 1 15 58
M  V30 64 1 18 59
M  V30 65 1 21 60
M  V30 66 1 22 61
M  V30 67 1 26 62
M  V30 68 1 26 63
M  V30 69 1 27 64
M  V30 70 1 31 65
M  V30 71 1 32 66
M  V30 72 1 33 67
M  V30 73 1 35 68
M  V30 74 1 35 69
M  V30 75 1 37 70
M  V30 76 1 38 71
M  V30 77 1 43 72
M  V30 78 1 46 73
M  V30 END BOND
M  V30 END CTAB
M  END
>  <Dataset>  (572) 
ChEMBL_Kinases

>  <Ligand_Instance>  (572) 
nan

>  <PDB_ID>  (572) 
nan

>  <Standardized_SMILES>  (572) 
CN(Cc1cnn(-c2ccc(F)cc2)c1)c1ncnc2ccc(C#CCNC(=O)c3cccn(Cc4ccc(F)c(F)c4)c3=O)cc12

>  <Name>  (572) 
nan

>  <Pocket>  (572) 
nan

>  <ATP_Site>  (572) 
nan

>  <Peripheral>  (572) 
nan

>  <Num_H_Atoms_ProtBoundConf>  (572) 
nan

>  <Num_Resolved_Atoms>  (572) 
nan

>  <Num_Not_Resolved_Atoms>  (572) 
nan

$$$$
CHEMBL3641845
     RDKit          3D

  0  0  0  0  0  0  0  0  0  0999 V3000
M  V30 BEGIN CTAB
M  V30 COUNTS 46 48 0 0 0
M  V30 BEGIN ATOM
M  V30 1 C 1.075265 -4.992044 1.680171 0
M  V30 2 N 0.424746 -5.780565 0.661979 0
M  V30 3 C -0.170441 -5.216754 -0.492859 0
M  V30 4 N -0.172171 -3.906431 -0.721602 0
M  V30 5 C -0.719500 -3.339050 -1.784120 0
M  V30 6 N -0.763659 -1.962566 -2.116448 0
M  V30 7 C -0.210884 -0.873837 -1.417169 0
M  V30 8 C 0.510614 -0.965836 -0.253976 0
M  V30 9 C 1.044555 0.098694 0.407427 0
M  V30 10 O 1.776493 0.162618 1.559496 0
M  V30 11 C 2.165792 -0.895611 2.363562 0
M  V30 12 C 0.859990 1.384782 -0.112183 0
M  V30 13 C 1.373327 2.633454 0.483155 0
M  V30 14 O 2.454353 3.254097 0.323917 0
M  V30 15 N 0.505097 3.273953 1.413230 0
M  V30 16 C 0.711189 4.504070 2.168838 0
M  V30 17 C 0.446410 3.990822 3.579127 0
M  V30 18 C -0.542552 2.848730 3.409085 0
M  V30 19 C -1.715140 3.066379 4.228190 0
M  V30 20 N -2.638770 3.253923 4.862590 0
M  V30 21 C -0.836285 2.950847 1.922051 0
M  V30 22 C 0.131483 1.547264 -1.299137 0
M  V30 23 C -0.366160 0.411102 -1.890450 0
M  V30 24 Cl -1.275538 0.686961 -3.385686 0
M  V30 25 N -1.286091 -4.214626 -2.631352 0
M  V30 26 C -1.331508 -5.525789 -2.485739 0
M  V30 27 C -0.756661 -6.081776 -1.377795 0
M  V30 28 Cl -0.796663 -7.797724 -1.151697 0
M  V30 29 H 2.172225 -5.126948 1.626534 0
M  V30 30 H 0.758865 -5.307259 2.713636 0
M  V30 31 H 0.762347 -3.929105 1.510929 0
M  V30 32 H 0.435720 -6.798614 0.858186 0
M  V30 33 H -1.279096 -1.705180 -3.009639 0
M  V30 34 H 0.692270 -1.913434 0.202070 0
M  V30 35 H 3.291686 -0.973260 2.405987 0
M  V30 36 H 1.786193 -1.869546 2.057155 0
M  V30 37 H 1.773025 -0.680508 3.397162 0
M  V30 38 H 1.720734 4.923417 2.065569 0
M  V30 39 H -0.091770 5.234020 1.935677 0
M  V30 40 H 1.439332 3.638766 3.956780 0
M  V30 41 H 0.063855 4.757114 4.251965 0
M  V30 42 H -0.003149 1.910742 3.650858 0
M  V30 43 H -1.452074 3.853335 1.790478 0
M  V30 44 H -1.237705 2.030969 1.488885 0
M  V30 45 H -0.027697 2.536285 -1.726723 0
M  V30 46 H -1.813755 -6.142352 -3.230217 0
M  V30 END ATOM
M  V30 BEGIN BOND
M  V30 1 1 1 2
M  V30 2 1 2 3
M  V30 3 2 3 4
M  V30 4 1 4 5
M  V30 5 1 5 6
M  V30 6 1 6 7
M  V30 7 2 7 8
M  V30 8 1 8 9
M  V30 9 1 9 10
M  V30 10 1 10 11
M  V30 11 2 9 12
M  V30 12 1 12 13
M  V30 13 2 13 14
M  V30 14 1 13 15
M  V30 15 1 15 16
M  V30 16 1 16 17
M  V30 17 1 17 18
M  V30 18 1 18 19
M  V30 19 3 19 20
M  V30 20 1 18 21
M  V30 21 1 12 22
M  V30 22 2 22 23
M  V30 23 1 23 24
M  V30 24 2 5 25
M  V30 25 1 25 26
M  V30 26 2 26 27
M  V30 27 1 27 28
M  V30 28 1 27 3
M  V30 29 1 23 7
M  V30 30 1 21 15
M  V30 31 1 1 29
M  V30 32 1 1 30
M  V30 33 1 1 31
M  V30 34 1 2 32
M  V30 35 1 6 33
M  V30 36 1 8 34
M  V30 37 1 11 35
M  V30 38 1 11 36
M  V30 39 1 11 37
M  V30 40 1 16 38
M  V30 41 1 16 39
M  V30 42 1 17 40
M  V30 43 1 17 41
M  V30 44 1 18 42
M  V30 45 1 21 43
M  V30 46 1 21 44
M  V30 47 1 22 45
M  V30 48 1 26 46
M  V30 END BOND
M  V30 END CTAB
M  END
>  <Dataset>  (573) 
ChEMBL_Kinases

>  <Ligand_Instance>  (573) 
nan

>  <PDB_ID>  (573) 
nan

>  <Standardized_SMILES>  (573) 
CNc1nc(Nc2cc(OC)c(C(=O)N3CCC(C#N)C3)cc2Cl)ncc1Cl

>  <Name>  (573) 
nan

>  <Pocket>  (573) 
nan

>  <ATP_Site>  (573) 
nan

>  <Peripheral>  (573) 
nan

>  <Num_H_Atoms_ProtBoundConf>  (573) 
nan

>  <Num_Resolved_Atoms>  (573) 
nan

>  <Num_Not_Resolved_Atoms>  (573) 
nan

$$$$
CHEMBL3641844
     RDKit          3D

  0  0  0  0  0  0  0  0  0  0999 V3000
M  V30 BEGIN CTAB
M  V30 COUNTS 43 45 0 0 0
M  V30 BEGIN ATOM
M  V30 1 C 2.199429 -7.771066 -2.004407 0
M  V30 2 N 1.796170 -6.692359 -1.175505 0
M  V30 3 C 1.526424 -5.459006 -0.507074 0
M  V30 4 N 2.096398 -4.286874 -0.726399 0
M  V30 5 C 1.830351 -3.273454 0.163822 0
M  V30 6 N 2.032292 -1.987591 0.614244 0
M  V30 7 C 1.435784 -0.744616 0.546821 0
M  V30 8 C 0.763658 -0.230849 -0.493486 0
M  V30 9 C 0.200853 1.001398 -0.149464 0
M  V30 10 O -0.561985 1.894182 -0.947639 0
M  V30 11 C -0.772338 1.549813 -2.287411 0
M  V30 12 C 0.052212 1.895824 0.836922 0
M  V30 13 C -0.093113 2.791838 1.827582 0
M  V30 14 O -1.282720 2.707242 1.361485 0
M  V30 15 N 0.208744 3.626723 2.923780 0
M  V30 16 C -0.909911 4.272591 3.537267 0
M  V30 17 C -1.506951 3.278754 4.549944 0
M  V30 18 N -1.958727 2.488369 5.327590 0
M  V30 19 C -1.220406 5.668881 3.805953 0
M  V30 20 C -2.002333 4.861276 2.743722 0
M  V30 21 C 0.876836 1.173321 1.894345 0
M  V30 22 C 1.568967 -0.095699 1.823846 0
M  V30 23 Cl 2.555801 -0.898435 3.070701 0
M  V30 24 N 1.003750 -3.670632 1.120275 0
M  V30 25 C 0.379558 -4.797196 1.425341 0
M  V30 26 C 0.657156 -5.817893 0.527916 0
M  V30 27 Cl -0.121200 -7.355517 0.840834 0
M  V30 28 H 2.622050 -8.567396 -1.247786 0
M  V30 29 H 2.986136 -7.720358 -2.737344 0
M  V30 30 H 1.274366 -8.273443 -2.440112 0
M  V30 31 H 2.318411 -6.277690 -2.005937 0
M  V30 32 H 2.974371 -2.091892 1.098348 0
M  V30 33 H 0.579962 -0.579525 -1.452324 0
M  V30 34 H 0.254207 1.434921 -2.800000 0
M  V30 35 H -1.154556 2.464480 -2.866918 0
M  V30 36 H -1.315852 0.644916 -2.519453 0
M  V30 37 H 1.237705 3.582452 3.001296 0
M  V30 38 H -0.635602 6.544959 3.485328 0
M  V30 39 H -1.853074 5.946303 4.711519 0
M  V30 40 H -1.898124 5.307961 1.735751 0
M  V30 41 H -3.057900 4.658401 2.994277 0
M  V30 42 H 1.200750 1.385066 2.986533 0
M  V30 43 H -0.312582 -4.967562 2.294608 0
M  V30 END ATOM
M  V30 BEGIN BOND
M  V30 1 1 1 2
M  V30 2 1 2 3
M  V30 3 2 3 4
M  V30 4 1 4 5
M  V30 5 1 5 6
M  V30 6 1 6 7
M  V30 7 2 7 8
M  V30 8 1 8 9
M  V30 9 1 9 10
M  V30 10 1 10 11
M  V30 11 2 9 12
M  V30 12 1 12 13
M  V30 13 2 13 14
M  V30 14 1 13 15
M  V30 15 1 15 16
M  V30 16 1 16 17
M  V30 17 3 17 18
M  V30 18 1 16 19
M  V30 19 1 19 20
M  V30 20 1 12 21
M  V30 21 2 21 22
M  V30 22 1 22 23
M  V30 23 2 5 24
M  V30 24 1 24 25
M  V30 25 2 25 26
M  V30 26 1 26 27
M  V30 27 1 26 3
M  V30 28 1 22 7
M  V30 29 1 20 16
M  V30 30 1 1 28
M  V30 31 1 1 29
M  V30 32 1 1 30
M  V30 33 1 2 31
M  V30 34 1 6 32
M  V30 35 1 8 33
M  V30 36 1 11 34
M  V30 37 1 11 35
M  V30 38 1 11 36
M  V30 39 1 15 37
M  V30 40 1 19 38
M  V30 41 1 19 39
M  V30 42 1 20 40
M  V30 43 1 20 41
M  V30 44 1 21 42
M  V30 45 1 25 43
M  V30 END BOND
M  V30 END CTAB
M  END
>  <Dataset>  (574) 
ChEMBL_Kinases

>  <Ligand_Instance>  (574) 
nan

>  <PDB_ID>  (574) 
nan

>  <Standardized_SMILES>  (574) 
CNc1nc(Nc2cc(OC)c(C(=O)NC3(C#N)CC3)cc2Cl)ncc1Cl

>  <Name>  (574) 
nan

>  <Pocket>  (574) 
nan

>  <ATP_Site>  (574) 
nan

>  <Peripheral>  (574) 
nan

>  <Num_H_Atoms_ProtBoundConf>  (574) 
nan

>  <Num_Resolved_Atoms>  (574) 
nan

>  <Num_Not_Resolved_Atoms>  (574) 
nan

$$$$
CHEMBL3641843
     RDKit          3D

  0  0  0  0  0  0  0  0  0  0999 V3000
M  V30 BEGIN CTAB
M  V30 COUNTS 43 45 0 0 0
M  V30 BEGIN ATOM
M  V30 1 C 1.433158 -4.551135 -1.009291 0
M  V30 2 N 0.136723 -5.174364 -1.056593 0
M  V30 3 C -1.125793 -4.604324 -0.783069 0
M  V30 4 N -1.251909 -3.321166 -0.422671 0
M  V30 5 C -2.412131 -2.716385 -0.149337 0
M  V30 6 N -2.581985 -1.379886 0.229860 0
M  V30 7 C -1.604143 -0.369450 0.413846 0
M  V30 8 C -0.249914 -0.556974 0.237992 0
M  V30 9 C 0.729191 0.397965 0.406991 0
M  V30 10 O 2.072134 0.174536 0.222443 0
M  V30 11 C 2.648330 -1.036583 -0.159565 0
M  V30 12 C 0.341962 1.666118 0.787083 0
M  V30 13 C 1.312837 2.735815 0.987979 0
M  V30 14 O 1.749149 3.572640 0.142606 0
M  V30 15 N 1.919787 2.970434 2.254140 0
M  V30 16 C 2.895095 3.978840 2.629767 0
M  V30 17 C 2.260883 3.959507 4.001653 0
M  V30 18 O 3.130891 4.013390 5.076793 0
M  V30 19 C 1.970108 2.505980 3.630524 0
M  V30 20 C -0.998559 1.919574 0.979574 0
M  V30 21 C -1.921579 0.918324 0.792831 0
M  V30 22 Cl -3.616826 1.318568 1.057887 0
M  V30 23 N -3.494602 -3.501661 -0.260893 0
M  V30 24 C -3.455222 -4.774432 -0.610311 0
M  V30 25 C -2.263207 -5.371875 -0.884637 0
M  V30 26 Cl -2.137867 -7.042497 -1.350208 0
M  V30 27 H 1.982612 -4.761738 -1.962862 0
M  V30 28 H 2.088511 -4.911457 -0.193734 0
M  V30 29 H 1.246117 -3.451999 -0.933500 0
M  V30 30 H 0.218867 -6.175323 -1.336048 0
M  V30 31 H -3.556102 -1.035155 0.414016 0
M  V30 32 H 0.150313 -1.505559 -0.056503 0
M  V30 33 H 3.758583 -0.927317 0.001498 0
M  V30 34 H 2.461902 -1.206260 -1.225630 0
M  V30 35 H 2.248374 -1.818545 0.516818 0
M  V30 36 H 2.847711 4.928248 2.071255 0
M  V30 37 H 3.948063 3.586797 2.743730 0
M  V30 38 H 1.313417 4.501898 4.105787 0
M  V30 39 H 3.686671 3.182738 5.072025 0
M  V30 40 H 1.001481 2.155187 4.036624 0
M  V30 41 H 2.777189 1.816138 3.885897 0
M  V30 42 H -1.327576 2.904967 1.277516 0
M  V30 43 H -4.357678 -5.392961 -0.693495 0
M  V30 END ATOM
M  V30 BEGIN BOND
M  V30 1 1 1 2
M  V30 2 1 2 3
M  V30 3 2 3 4
M  V30 4 1 4 5
M  V30 5 1 5 6
M  V30 6 1 6 7
M  V30 7 2 7 8
M  V30 8 1 8 9
M  V30 9 1 9 10
M  V30 10 1 10 11
M  V30 11 2 9 12
M  V30 12 1 12 13
M  V30 13 2 13 14
M  V30 14 1 13 15
M  V30 15 1 15 16
M  V30 16 1 16 17
M  V30 17 1 17 18
M  V30 18 1 17 19
M  V30 19 1 12 20
M  V30 20 2 20 21
M  V30 21 1 21 22
M  V30 22 2 5 23
M  V30 23 1 23 24
M  V30 24 2 24 25
M  V30 25 1 25 26
M  V30 26 1 25 3
M  V30 27 1 21 7
M  V30 28 1 19 15
M  V30 29 1 1 27
M  V30 30 1 1 28
M  V30 31 1 1 29
M  V30 32 1 2 30
M  V30 33 1 6 31
M  V30 34 1 8 32
M  V30 35 1 11 33
M  V30 36 1 11 34
M  V30 37 1 11 35
M  V30 38 1 16 36
M  V30 39 1 16 37
M  V30 40 1 17 38
M  V30 41 1 18 39
M  V30 42 1 19 40
M  V30 43 1 19 41
M  V30 44 1 20 42
M  V30 45 1 24 43
M  V30 END BOND
M  V30 END CTAB
M  END
>  <Dataset>  (575) 
ChEMBL_Kinases

>  <Ligand_Instance>  (575) 
nan

>  <PDB_ID>  (575) 
nan

>  <Standardized_SMILES>  (575) 
CNc1nc(Nc2cc(OC)c(C(=O)N3CC(O)C3)cc2Cl)ncc1Cl

>  <Name>  (575) 
nan

>  <Pocket>  (575) 
nan

>  <ATP_Site>  (575) 
nan

>  <Peripheral>  (575) 
nan

>  <Num_H_Atoms_ProtBoundConf>  (575) 
nan

>  <Num_Resolved_Atoms>  (575) 
nan

>  <Num_Not_Resolved_Atoms>  (575) 
nan

$$$$
CHEMBL3641842
     RDKit          3D

  0  0  0  0  0  0  0  0  0  0999 V3000
M  V30 BEGIN CTAB
M  V30 COUNTS 49 51 0 0 0
M  V30 BEGIN ATOM
M  V30 1 C 0.309692 -7.103597 2.859194 0
M  V30 2 N 0.856188 -6.256373 1.898601 0
M  V30 3 C 1.407778 -5.400954 0.928755 0
M  V30 4 N 1.002392 -4.481318 0.075833 0
M  V30 5 C 1.810902 -3.817639 -0.757807 0
M  V30 6 N 1.118617 -2.885666 -1.566213 0
M  V30 7 C 0.906871 -1.531070 -1.164922 0
M  V30 8 C 1.422242 -1.157353 0.068241 0
M  V30 9 C 1.262227 0.131582 0.530166 0
M  V30 10 O 1.709687 0.663643 1.725707 0
M  V30 11 C 2.419578 -0.197830 2.596493 0
M  V30 12 C 0.587995 1.064385 -0.228513 0
M  V30 13 C 0.347113 2.453623 0.136513 0
M  V30 14 O 1.230263 3.306190 -0.221007 0
M  V30 15 N -0.847637 2.792027 0.866273 0
M  V30 16 C -1.810039 1.775343 1.244385 0
M  V30 17 C -3.174456 2.158413 0.751168 0
M  V30 18 C -3.528432 3.591669 0.953545 0
M  V30 19 C -4.649241 3.894853 0.031744 0
M  V30 20 N -5.536577 4.122683 -0.674541 0
M  V30 21 C -2.418001 4.546173 0.593911 0
M  V30 22 C -1.100425 4.172575 1.232575 0
M  V30 23 C 0.058256 0.713670 -1.476057 0
M  V30 24 C 0.236084 -0.581142 -1.906109 0
M  V30 25 Cl -0.409818 -1.070584 -3.462046 0
M  V30 26 N 3.108668 -4.136747 -0.690135 0
M  V30 27 C 3.660311 -5.035670 0.113720 0
M  V30 28 C 2.775662 -5.708269 0.971527 0
M  V30 29 Cl 3.674857 -6.867263 1.970105 0
M  V30 30 H 1.122331 -7.649934 3.454460 0
M  V30 31 H -0.356450 -7.909107 2.452381 0
M  V30 32 H -0.283572 -6.626722 3.692021 0
M  V30 33 H -0.132938 -5.877974 1.699602 0
M  V30 34 H 0.744021 -3.194772 -2.498257 0
M  V30 35 H 1.954109 -1.817249 0.713629 0
M  V30 36 H 1.712193 -0.892833 3.098892 0
M  V30 37 H 2.897441 0.367709 3.425057 0
M  V30 38 H 3.138311 -0.834282 2.048669 0
M  V30 39 H -1.796012 1.688726 2.363437 0
M  V30 40 H -1.564768 0.785815 0.854272 0
M  V30 41 H -3.307279 1.809541 -0.285033 0
M  V30 42 H -3.898708 1.545321 1.363633 0
M  V30 43 H -3.888137 3.809419 1.973393 0
M  V30 44 H -2.703032 5.539749 0.998602 0
M  V30 45 H -2.266845 4.654163 -0.479232 0
M  V30 46 H -1.116351 4.212511 2.331394 0
M  V30 47 H -0.317048 4.816472 0.808121 0
M  V30 48 H -0.484462 1.397063 -2.128946 0
M  V30 49 H 4.709337 -5.086421 -0.041602 0
M  V30 END ATOM
M  V30 BEGIN BOND
M  V30 1 1 1 2
M  V30 2 1 2 3
M  V30 3 2 3 4
M  V30 4 1 4 5
M  V30 5 1 5 6
M  V30 6 1 6 7
M  V30 7 2 7 8
M  V30 8 1 8 9
M  V30 9 1 9 10
M  V30 10 1 10 11
M  V30 11 2 9 12
M  V30 12 1 12 13
M  V30 13 2 13 14
M  V30 14 1 13 15
M  V30 15 1 15 16
M  V30 16 1 16 17
M  V30 17 1 17 18
M  V30 18 1 18 19
M  V30 19 3 19 20
M  V30 20 1 18 21
M  V30 21 1 21 22
M  V30 22 1 12 23
M  V30 23 2 23 24
M  V30 24 1 24 25
M  V30 25 2 5 26
M  V30 26 1 26 27
M  V30 27 2 27 28
M  V30 28 1 28 29
M  V30 29 1 28 3
M  V30 30 1 24 7
M  V30 31 1 22 15
M  V30 32 1 1 30
M  V30 33 1 1 31
M  V30 34 1 1 32
M  V30 35 1 2 33
M  V30 36 1 6 34
M  V30 37 1 8 35
M  V30 38 1 11 36
M  V30 39 1 11 37
M  V30 40 1 11 38
M  V30 41 1 16 39
M  V30 42 1 16 40
M  V30 43 1 17 41
M  V30 44 1 17 42
M  V30 45 1 18 43
M  V30 46 1 21 44
M  V30 47 1 21 45
M  V30 48 1 22 46
M  V30 49 1 22 47
M  V30 50 1 23 48
M  V30 51 1 27 49
M  V30 END BOND
M  V30 END CTAB
M  END
>  <Dataset>  (576) 
ChEMBL_Kinases

>  <Ligand_Instance>  (576) 
nan

>  <PDB_ID>  (576) 
nan

>  <Standardized_SMILES>  (576) 
CNc1nc(Nc2cc(OC)c(C(=O)N3CCC(C#N)CC3)cc2Cl)ncc1Cl

>  <Name>  (576) 
nan

>  <Pocket>  (576) 
nan

>  <ATP_Site>  (576) 
nan

>  <Peripheral>  (576) 
nan

>  <Num_H_Atoms_ProtBoundConf>  (576) 
nan

>  <Num_Resolved_Atoms>  (576) 
nan

>  <Num_Not_Resolved_Atoms>  (576) 
nan

$$$$
CHEMBL3641841
     RDKit          3D

  0  0  0  0  0  0  0  0  0  0999 V3000
M  V30 BEGIN CTAB
M  V30 COUNTS 49 51 0 0 0
M  V30 BEGIN ATOM
M  V30 1 C -1.632426 -3.853408 2.277233 0
M  V30 2 N -0.708969 -4.909269 1.914095 0
M  V30 3 C -0.234500 -4.957819 0.548966 0
M  V30 4 N -0.654051 -4.020975 -0.322194 0
M  V30 5 C -0.281655 -3.944935 -1.612496 0
M  V30 6 N -0.921239 -2.841976 -2.234026 0
M  V30 7 C -0.523551 -1.535813 -1.802991 0
M  V30 8 C 0.409932 -1.340716 -0.818427 0
M  V30 9 C 0.821568 -0.115420 -0.336065 0
M  V30 10 O 1.775708 -0.008477 0.664336 0
M  V30 11 C 2.425790 -1.071747 1.293721 0
M  V30 12 C 0.243579 1.033150 -0.890814 0
M  V30 13 C 0.694202 2.296365 -0.317176 0
M  V30 14 O 1.660008 3.056350 -0.581539 0
M  V30 15 N -0.134562 2.770933 0.771728 0
M  V30 16 C 0.276930 4.015027 1.388087 0
M  V30 17 C 0.711254 3.879908 2.817785 0
M  V30 18 C 0.544214 2.494924 3.389974 0
M  V30 19 O -0.827257 2.186997 3.480308 0
M  V30 20 C -1.099936 1.272685 2.453162 0
M  V30 21 C -1.306955 2.023530 1.172870 0
M  V30 22 C -0.695771 0.864908 -1.882514 0
M  V30 23 C -1.071144 -0.384675 -2.329062 0
M  V30 24 Cl -2.287593 -0.517770 -3.607539 0
M  V30 25 N 0.579493 -4.893526 -2.041903 0
M  V30 26 C 1.029682 -5.855803 -1.206328 0
M  V30 27 C 0.645524 -5.928473 0.114494 0
M  V30 28 Cl 1.220928 -7.165313 1.198213 0
M  V30 29 H -1.016986 -3.073675 2.799970 0
M  V30 30 H -2.410920 -4.181804 2.968847 0
M  V30 31 H -2.011899 -3.372205 1.354430 0
M  V30 32 H -0.435299 -5.576143 2.652554 0
M  V30 33 H -1.649886 -2.921534 -2.972241 0
M  V30 34 H 0.893426 -2.201117 -0.347556 0
M  V30 35 H 3.345947 -0.723976 1.833868 0
M  V30 36 H 2.663141 -1.924010 0.633857 0
M  V30 37 H 1.734891 -1.441496 2.109520 0
M  V30 38 H 1.088475 4.465699 0.801764 0
M  V30 39 H -0.609660 4.695807 1.364561 0
M  V30 40 H 1.769628 4.176118 2.951942 0
M  V30 41 H 0.095154 4.541792 3.497871 0
M  V30 42 H 0.965929 2.510600 4.415808 0
M  V30 43 H 1.057769 1.717631 2.820661 0
M  V30 44 H -2.074841 0.765842 2.674391 0
M  V30 45 H -0.277200 0.545073 2.366265 0
M  V30 46 H -2.137095 2.763664 1.361661 0
M  V30 47 H -1.669933 1.369213 0.353701 0
M  V30 48 H -1.101491 1.781850 -2.269625 0
M  V30 49 H 1.714548 -6.573446 -1.628545 0
M  V30 END ATOM
M  V30 BEGIN BOND
M  V30 1 1 1 2
M  V30 2 1 2 3
M  V30 3 2 3 4
M  V30 4 1 4 5
M  V30 5 1 5 6
M  V30 6 1 6 7
M  V30 7 2 7 8
M  V30 8 1 8 9
M  V30 9 1 9 10
M  V30 10 1 10 11
M  V30 11 2 9 12
M  V30 12 1 12 13
M  V30 13 2 13 14
M  V30 14 1 13 15
M  V30 15 1 15 16
M  V30 16 1 16 17
M  V30 17 1 17 18
M  V30 18 1 18 19
M  V30 19 1 19 20
M  V30 20 1 20 21
M  V30 21 1 12 22
M  V30 22 2 22 23
M  V30 23 1 23 24
M  V30 24 2 5 25
M  V30 25 1 25 26
M  V30 26 2 26 27
M  V30 27 1 27 28
M  V30 28 1 27 3
M  V30 29 1 23 7
M  V30 30 1 21 15
M  V30 31 1 1 29
M  V30 32 1 1 30
M  V30 33 1 1 31
M  V30 34 1 2 32
M  V30 35 1 6 33
M  V30 36 1 8 34
M  V30 37 1 11 35
M  V30 38 1 11 36
M  V30 39 1 11 37
M  V30 40 1 16 38
M  V30 41 1 16 39
M  V30 42 1 17 40
M  V30 43 1 17 41
M  V30 44 1 18 42
M  V30 45 1 18 43
M  V30 46 1 20 44
M  V30 47 1 20 45
M  V30 48 1 21 46
M  V30 49 1 21 47
M  V30 50 1 22 48
M  V30 51 1 26 49
M  V30 END BOND
M  V30 END CTAB
M  END
>  <Dataset>  (577) 
ChEMBL_Kinases

>  <Ligand_Instance>  (577) 
nan

>  <PDB_ID>  (577) 
nan

>  <Standardized_SMILES>  (577) 
CNc1nc(Nc2cc(OC)c(C(=O)N3CCCOCC3)cc2Cl)ncc1Cl

>  <Name>  (577) 
nan

>  <Pocket>  (577) 
nan

>  <ATP_Site>  (577) 
nan

>  <Peripheral>  (577) 
nan

>  <Num_H_Atoms_ProtBoundConf>  (577) 
nan

>  <Num_Resolved_Atoms>  (577) 
nan

>  <Num_Not_Resolved_Atoms>  (577) 
nan

$$$$
CHEMBL3641840
     RDKit          3D

  0  0  0  0  0  0  0  0  0  0999 V3000
M  V30 BEGIN CTAB
M  V30 COUNTS 45 46 0 0 0
M  V30 BEGIN ATOM
M  V30 1 C -0.059983 -4.460438 1.935580 0
M  V30 2 N -0.585229 -5.018885 0.700502 0
M  V30 3 C -1.502093 -4.162884 0.012606 0
M  V30 4 N -1.867607 -2.936577 0.442515 0
M  V30 5 C -2.726533 -2.128643 -0.206172 0
M  V30 6 N -2.860113 -0.933940 0.557319 0
M  V30 7 C -1.851402 0.076981 0.586984 0
M  V30 8 C -0.716006 -0.201904 -0.153244 0
M  V30 9 C 0.308171 0.721087 -0.148293 0
M  V30 10 O 1.488430 0.557221 -0.848598 0
M  V30 11 C 1.703480 -0.602547 -1.626339 0
M  V30 12 C 0.198053 1.906881 0.588560 0
M  V30 13 C 1.222480 2.937149 0.680734 0
M  V30 14 O 1.591800 3.968793 0.075519 0
M  V30 15 N 2.185444 2.904605 1.739088 0
M  V30 16 C 3.227024 3.905800 1.862636 0
M  V30 17 C 2.188114 1.880887 2.763841 0
M  V30 18 C 3.041671 0.695041 2.400899 0
M  V30 19 O 2.983690 -0.248619 3.449280 0
M  V30 20 C -0.960044 2.147356 1.317597 0
M  V30 21 C -2.001012 1.229850 1.323580 0
M  V30 22 Cl -3.506776 1.426751 2.201599 0
M  V30 23 N -3.279756 -2.540221 -1.369227 0
M  V30 24 C -2.978953 -3.760112 -1.891003 0
M  V30 25 C -2.091877 -4.539319 -1.176671 0
M  V30 26 Cl -1.725212 -6.111956 -1.892321 0
M  V30 27 H 0.445596 -3.488157 1.672254 0
M  V30 28 H 0.680418 -5.095124 2.430691 0
M  V30 29 H -0.885449 -4.309932 2.644841 0
M  V30 30 H -0.379753 -5.943165 0.267331 0
M  V30 31 H -3.781100 -0.911805 1.079350 0
M  V30 32 H -0.616484 -1.115416 -0.723080 0
M  V30 33 H 2.490155 -0.414709 -2.414830 0
M  V30 34 H 0.782991 -0.901759 -2.206922 0
M  V30 35 H 2.106224 -1.463444 -1.037646 0
M  V30 36 H 4.178011 3.428664 1.551274 0
M  V30 37 H 3.378451 4.181417 2.935594 0
M  V30 38 H 2.927231 4.740690 1.224452 0
M  V30 39 H 1.163264 1.521598 2.995029 0
M  V30 40 H 2.567629 2.275774 3.742390 0
M  V30 41 H 4.101670 0.970647 2.224015 0
M  V30 42 H 2.722729 0.138577 1.512472 0
M  V30 43 H 2.108677 -0.725436 3.396057 0
M  V30 44 H -1.133241 3.046523 1.916347 0
M  V30 45 H -3.453949 -4.020300 -2.816444 0
M  V30 END ATOM
M  V30 BEGIN BOND
M  V30 1 1 1 2
M  V30 2 1 2 3
M  V30 3 2 3 4
M  V30 4 1 4 5
M  V30 5 1 5 6
M  V30 6 1 6 7
M  V30 7 2 7 8
M  V30 8 1 8 9
M  V30 9 1 9 10
M  V30 10 1 10 11
M  V30 11 2 9 12
M  V30 12 1 12 13
M  V30 13 2 13 14
M  V30 14 1 13 15
M  V30 15 1 15 16
M  V30 16 1 15 17
M  V30 17 1 17 18
M  V30 18 1 18 19
M  V30 19 1 12 20
M  V30 20 2 20 21
M  V30 21 1 21 22
M  V30 22 2 5 23
M  V30 23 1 23 24
M  V30 24 2 24 25
M  V30 25 1 25 26
M  V30 26 1 25 3
M  V30 27 1 21 7
M  V30 28 1 1 27
M  V30 29 1 1 28
M  V30 30 1 1 29
M  V30 31 1 2 30
M  V30 32 1 6 31
M  V30 33 1 8 32
M  V30 34 1 11 33
M  V30 35 1 11 34
M  V30 36 1 11 35
M  V30 37 1 16 36
M  V30 38 1 16 37
M  V30 39 1 16 38
M  V30 40 1 17 39
M  V30 41 1 17 40
M  V30 42 1 18 41
M  V30 43 1 18 42
M  V30 44 1 19 43
M  V30 45 1 20 44
M  V30 46 1 24 45
M  V30 END BOND
M  V30 END CTAB
M  END
>  <Dataset>  (578) 
ChEMBL_Kinases

>  <Ligand_Instance>  (578) 
nan

>  <PDB_ID>  (578) 
nan

>  <Standardized_SMILES>  (578) 
CNc1nc(Nc2cc(OC)c(C(=O)N(C)CCO)cc2Cl)ncc1Cl

>  <Name>  (578) 
nan

>  <Pocket>  (578) 
nan

>  <ATP_Site>  (578) 
nan

>  <Peripheral>  (578) 
nan

>  <Num_H_Atoms_ProtBoundConf>  (578) 
nan

>  <Num_Resolved_Atoms>  (578) 
nan

>  <Num_Not_Resolved_Atoms>  (578) 
nan

$$$$
CHEMBL3641839
     RDKit          3D

  0  0  0  0  0  0  0  0  0  0999 V3000
M  V30 BEGIN CTAB
M  V30 COUNTS 50 52 0 0 0
M  V30 BEGIN ATOM
M  V30 1 C 1.181828 -7.878611 -2.255357 0
M  V30 2 N 1.045571 -6.750669 -1.369601 0
M  V30 3 C 2.196122 -6.087955 -0.977108 0
M  V30 4 N 1.553556 -5.177624 -0.115147 0
M  V30 5 C 2.082306 -4.202893 0.631620 0
M  V30 6 N 1.381195 -3.268245 1.535190 0
M  V30 7 C 0.759534 -2.014861 1.313369 0
M  V30 8 C 0.717748 -1.448537 0.063611 0
M  V30 9 C 0.100830 -0.231441 -0.122037 0
M  V30 10 O 0.023934 0.397045 -1.356468 0
M  V30 11 C 0.612400 -0.260485 -2.466415 0
M  V30 12 C -0.474225 0.417663 0.938386 0
M  V30 13 C -1.158130 1.695615 0.939444 0
M  V30 14 O -2.299531 1.200246 0.715023 0
M  V30 15 N -0.929621 3.070934 1.095907 0
M  V30 16 C 0.253192 3.901360 1.338602 0
M  V30 17 C 0.024402 4.558339 2.673165 0
M  V30 18 O -1.201426 4.236652 3.239757 0
M  V30 19 C -2.292527 4.476161 2.430478 0
M  V30 20 C -3.437511 3.663352 3.034424 0
M  V30 21 O -4.597085 3.840958 2.292626 0
M  V30 22 C -2.108543 3.924432 1.027594 0
M  V30 23 C -0.401526 -0.207309 2.188955 0
M  V30 24 C 0.206381 -1.431498 2.443770 0
M  V30 25 Cl 0.238029 -2.119456 4.048376 0
M  V30 26 N 3.430810 -3.951145 0.648637 0
M  V30 27 C 4.248761 -4.747160 -0.142293 0
M  V30 28 C 3.309063 -5.445846 -0.596609 0
M  V30 29 Cl 4.133167 -6.654970 -1.755241 0
M  V30 30 H 0.699347 -8.819107 -1.843385 0
M  V30 31 H 2.237018 -8.158161 -2.425889 0
M  V30 32 H 0.646819 -7.723525 -3.235191 0
M  V30 33 H 0.041244 -6.694139 -1.226077 0
M  V30 34 H 1.449246 -3.765843 2.431867 0
M  V30 35 H 1.177821 -1.975528 -0.758527 0
M  V30 36 H 0.333152 -1.343882 -2.471897 0
M  V30 37 H 1.718217 -0.217140 -2.389814 0
M  V30 38 H 0.252987 0.134266 -3.429372 0
M  V30 39 H 0.262023 4.690896 0.564676 0
M  V30 40 H 1.172999 3.294104 1.297176 0
M  V30 41 H 0.785616 4.118098 3.361086 0
M  V30 42 H 0.210059 5.652414 2.682944 0
M  V30 43 H -2.629054 5.525861 2.446544 0
M  V30 44 H -3.552891 3.899045 4.103173 0
M  V30 45 H -3.078327 2.596086 2.941578 0
M  V30 46 H -4.882899 2.970592 1.918345 0
M  V30 47 H -3.007822 3.388007 0.653100 0
M  V30 48 H -1.963181 4.768366 0.322797 0
M  V30 49 H -0.848747 0.266906 3.078071 0
M  V30 50 H 5.279195 -4.752807 -0.294600 0
M  V30 END ATOM
M  V30 BEGIN BOND
M  V30 1 1 1 2
M  V30 2 1 2 3
M  V30 3 2 3 4
M  V30 4 1 4 5
M  V30 5 1 5 6
M  V30 6 1 6 7
M  V30 7 2 7 8
M  V30 8 1 8 9
M  V30 9 1 9 10
M  V30 10 1 10 11
M  V30 11 2 9 12
M  V30 12 1 12 13
M  V30 13 2 13 14
M  V30 14 1 13 15
M  V30 15 1 15 16
M  V30 16 1 16 17
M  V30 17 1 17 18
M  V30 18 1 18 19
M  V30 19 1 19 20
M  V30 20 1 20 21
M  V30 21 1 19 22
M  V30 22 1 12 23
M  V30 23 2 23 24
M  V30 24 1 24 25
M  V30 25 2 5 26
M  V30 26 1 26 27
M  V30 27 2 27 28
M  V30 28 1 28 29
M  V30 29 1 28 3
M  V30 30 1 24 7
M  V30 31 1 22 15
M  V30 32 1 1 30
M  V30 33 1 1 31
M  V30 34 1 1 32
M  V30 35 1 2 33
M  V30 36 1 6 34
M  V30 37 1 8 35
M  V30 38 1 11 36
M  V30 39 1 11 37
M  V30 40 1 11 38
M  V30 41 1 16 39
M  V30 42 1 16 40
M  V30 43 1 17 41
M  V30 44 1 17 42
M  V30 45 1 19 43
M  V30 46 1 20 44
M  V30 47 1 20 45
M  V30 48 1 21 46
M  V30 49 1 22 47
M  V30 50 1 22 48
M  V30 51 1 23 49
M  V30 52 1 27 50
M  V30 END BOND
M  V30 END CTAB
M  END
>  <Dataset>  (579) 
ChEMBL_Kinases

>  <Ligand_Instance>  (579) 
nan

>  <PDB_ID>  (579) 
nan

>  <Standardized_SMILES>  (579) 
CNc1nc(Nc2cc(OC)c(C(=O)N3CCOC(CO)C3)cc2Cl)ncc1Cl

>  <Name>  (579) 
nan

>  <Pocket>  (579) 
nan

>  <ATP_Site>  (579) 
nan

>  <Peripheral>  (579) 
nan

>  <Num_H_Atoms_ProtBoundConf>  (579) 
nan

>  <Num_Resolved_Atoms>  (579) 
nan

>  <Num_Not_Resolved_Atoms>  (579) 
nan

$$$$
CHEMBL3641838
     RDKit          3D

  0  0  0  0  0  0  0  0  0  0999 V3000
M  V30 BEGIN CTAB
M  V30 COUNTS 49 51 0 0 0
M  V30 BEGIN ATOM
M  V30 1 C 0.062746 -5.303719 3.579302 0
M  V30 2 N 1.263409 -5.897480 3.057807 0
M  V30 3 C 1.702000 -5.520924 1.734835 0
M  V30 4 N 0.995998 -4.633263 1.009246 0
M  V30 5 C 1.324496 -4.224243 -0.229132 0
M  V30 6 N 0.429816 -3.293384 -0.772719 0
M  V30 7 C 0.357210 -1.888447 -0.789684 0
M  V30 8 C 1.362369 -1.179830 -0.165933 0
M  V30 9 C 1.275655 0.213199 -0.195140 0
M  V30 10 O 2.188101 1.060918 0.374386 0
M  V30 11 C 3.343345 0.633243 1.070714 0
M  V30 12 C 0.194655 0.817677 -0.842883 0
M  V30 13 C 0.011443 2.264255 -0.934049 0
M  V30 14 O 0.399918 3.103765 -1.814631 0
M  V30 15 N -0.745907 2.657963 0.224849 0
M  V30 16 C -1.300056 1.905283 1.360340 0
M  V30 17 C -2.779909 1.999170 1.400244 0
M  V30 18 C -3.398585 3.101918 0.627399 0
M  V30 19 O -4.482624 3.604872 1.349678 0
M  V30 20 C -2.532267 4.228123 0.212668 0
M  V30 21 C -1.063514 4.066497 0.370522 0
M  V30 22 C -0.791151 0.055765 -1.455699 0
M  V30 23 C -0.720213 -1.326598 -1.435827 0
M  V30 24 Cl -1.962281 -2.288980 -2.208596 0
M  V30 25 N 2.460873 -4.763784 -0.766197 0
M  V30 26 C 3.196757 -5.654208 -0.076440 0
M  V30 27 C 2.852911 -6.068574 1.193629 0
M  V30 28 Cl 3.792540 -7.219761 2.102199 0
M  V30 29 H 0.117291 -5.291997 4.674806 0
M  V30 30 H -0.099241 -4.263986 3.229741 0
M  V30 31 H -0.864734 -5.865376 3.304106 0
M  V30 32 H 1.840773 -6.589676 3.582708 0
M  V30 33 H -0.273866 -3.927897 -1.227973 0
M  V30 34 H 2.201242 -1.627418 0.337189 0
M  V30 35 H 4.140932 1.400898 1.059843 0
M  V30 36 H 3.735179 -0.309341 0.595797 0
M  V30 37 H 3.031351 0.384907 2.102094 0
M  V30 38 H -0.928845 0.850769 1.345744 0
M  V30 39 H -0.834962 2.357597 2.263300 0
M  V30 40 H -3.072306 2.042062 2.477747 0
M  V30 41 H -3.176078 0.994092 1.062799 0
M  V30 42 H -3.858938 2.666721 -0.287972 0
M  V30 43 H -4.475712 3.341138 2.295754 0
M  V30 44 H -2.791466 5.173898 0.777035 0
M  V30 45 H -2.714120 4.537619 -0.852113 0
M  V30 46 H -0.750455 4.402613 1.396332 0
M  V30 47 H -0.518873 4.696192 -0.356742 0
M  V30 48 H -1.639142 0.518988 -1.964228 0
M  V30 49 H 4.087133 -6.048708 -0.551257 0
M  V30 END ATOM
M  V30 BEGIN BOND
M  V30 1 1 1 2
M  V30 2 1 2 3
M  V30 3 2 3 4
M  V30 4 1 4 5
M  V30 5 1 5 6
M  V30 6 1 6 7
M  V30 7 2 7 8
M  V30 8 1 8 9
M  V30 9 1 9 10
M  V30 10 1 10 11
M  V30 11 2 9 12
M  V30 12 1 12 13
M  V30 13 2 13 14
M  V30 14 1 13 15
M  V30 15 1 15 16
M  V30 16 1 16 17
M  V30 17 1 17 18
M  V30 18 1 18 19
M  V30 19 1 18 20
M  V30 20 1 20 21
M  V30 21 1 12 22
M  V30 22 2 22 23
M  V30 23 1 23 24
M  V30 24 2 5 25
M  V30 25 1 25 26
M  V30 26 2 26 27
M  V30 27 1 27 28
M  V30 28 1 27 3
M  V30 29 1 23 7
M  V30 30 1 21 15
M  V30 31 1 1 29
M  V30 32 1 1 30
M  V30 33 1 1 31
M  V30 34 1 2 32
M  V30 35 1 6 33
M  V30 36 1 8 34
M  V30 37 1 11 35
M  V30 38 1 11 36
M  V30 39 1 11 37
M  V30 40 1 16 38
M  V30 41 1 16 39
M  V30 42 1 17 40
M  V30 43 1 17 41
M  V30 44 1 18 42
M  V30 45 1 19 43
M  V30 46 1 20 44
M  V30 47 1 20 45
M  V30 48 1 21 46
M  V30 49 1 21 47
M  V30 50 1 22 48
M  V30 51 1 26 49
M  V30 END BOND
M  V30 END CTAB
M  END
>  <Dataset>  (580) 
ChEMBL_Kinases

>  <Ligand_Instance>  (580) 
nan

>  <PDB_ID>  (580) 
nan

>  <Standardized_SMILES>  (580) 
CNc1nc(Nc2cc(OC)c(C(=O)N3CCC(O)CC3)cc2Cl)ncc1Cl

>  <Name>  (580) 
nan

>  <Pocket>  (580) 
nan

>  <ATP_Site>  (580) 
nan

>  <Peripheral>  (580) 
nan

>  <Num_H_Atoms_ProtBoundConf>  (580) 
nan

>  <Num_Resolved_Atoms>  (580) 
nan

>  <Num_Not_Resolved_Atoms>  (580) 
nan

$$$$
CHEMBL3641837
     RDKit          3D

  0  0  0  0  0  0  0  0  0  0999 V3000
M  V30 BEGIN CTAB
M  V30 COUNTS 44 45 0 0 0
M  V30 BEGIN ATOM
M  V30 1 C 3.525239 -4.831676 0.469553 0
M  V30 2 N 2.466038 -4.979193 1.438660 0
M  V30 3 C 1.208382 -4.316016 1.325500 0
M  V30 4 N 1.019319 -3.518781 0.257348 0
M  V30 5 C -0.141876 -2.864514 0.089912 0
M  V30 6 N -0.538297 -1.989431 -0.949554 0
M  V30 7 C -0.314335 -0.566439 -0.895710 0
M  V30 8 C 0.315452 -0.071829 0.228720 0
M  V30 9 C 0.579212 1.274047 0.383357 0
M  V30 10 O 1.189905 1.922034 1.426873 0
M  V30 11 C 1.671979 1.260994 2.576112 0
M  V30 12 C 0.166255 2.097273 -0.672711 0
M  V30 13 C 0.385982 3.541139 -0.633416 0
M  V30 14 O 1.214836 4.417952 -0.946954 0
M  V30 15 N -0.666038 4.330294 -0.043195 0
M  V30 16 C -0.502648 5.768525 0.022999 0
M  V30 17 C -1.905623 3.774390 0.501867 0
M  V30 18 C -0.466482 1.636382 -1.812427 0
M  V30 19 C -0.713071 0.273320 -1.927877 0
M  V30 20 Cl -1.496860 -0.446107 -3.298531 0
M  V30 21 N -1.117067 -3.015193 1.004465 0
M  V30 22 C -1.022923 -3.784942 2.098143 0
M  V30 23 C 0.173256 -4.449042 2.255680 0
M  V30 24 C 0.405803 -5.334761 3.426177 0
M  V30 25 F 1.472851 -4.928756 4.198806 0
M  V30 26 F -0.764138 -5.376497 4.185601 0
M  V30 27 F 0.643788 -6.639547 3.042588 0
M  V30 28 H 4.512378 -5.061533 0.966537 0
M  V30 29 H 3.624037 -3.809149 0.058567 0
M  V30 30 H 3.435053 -5.543840 -0.382437 0
M  V30 31 H 2.566364 -5.585082 2.281374 0
M  V30 32 H -1.014304 -2.355990 -1.803535 0
M  V30 33 H 0.641428 -0.684596 1.052449 0
M  V30 34 H 1.965870 0.248456 2.288278 0
M  V30 35 H 0.913538 1.324628 3.382298 0
M  V30 36 H 2.585663 1.833298 2.883523 0
M  V30 37 H -0.899702 6.173770 0.998037 0
M  V30 38 H -0.977043 6.256448 -0.831187 0
M  V30 39 H 0.587591 5.969292 0.077940 0
M  V30 40 H -2.742900 4.488502 0.321838 0
M  V30 41 H -2.187272 2.820830 0.005645 0
M  V30 42 H -1.818016 3.686231 1.601674 0
M  V30 43 H -0.771772 2.284870 -2.604037 0
M  V30 44 H -1.811968 -3.900579 2.828641 0
M  V30 END ATOM
M  V30 BEGIN BOND
M  V30 1 1 1 2
M  V30 2 1 2 3
M  V30 3 2 3 4
M  V30 4 1 4 5
M  V30 5 1 5 6
M  V30 6 1 6 7
M  V30 7 2 7 8
M  V30 8 1 8 9
M  V30 9 1 9 10
M  V30 10 1 10 11
M  V30 11 2 9 12
M  V30 12 1 12 13
M  V30 13 2 13 14
M  V30 14 1 13 15
M  V30 15 1 15 16
M  V30 16 1 15 17
M  V30 17 1 12 18
M  V30 18 2 18 19
M  V30 19 1 19 20
M  V30 20 2 5 21
M  V30 21 1 21 22
M  V30 22 2 22 23
M  V30 23 1 23 24
M  V30 24 1 24 25
M  V30 25 1 24 26
M  V30 26 1 24 27
M  V30 27 1 23 3
M  V30 28 1 19 7
M  V30 29 1 1 28
M  V30 30 1 1 29
M  V30 31 1 1 30
M  V30 32 1 2 31
M  V30 33 1 6 32
M  V30 34 1 8 33
M  V30 35 1 11 34
M  V30 36 1 11 35
M  V30 37 1 11 36
M  V30 38 1 16 37
M  V30 39 1 16 38
M  V30 40 1 16 39
M  V30 41 1 17 40
M  V30 42 1 17 41
M  V30 43 1 17 42
M  V30 44 1 18 43
M  V30 45 1 22 44
M  V30 END BOND
M  V30 END CTAB
M  END
>  <Dataset>  (581) 
ChEMBL_Kinases

>  <Ligand_Instance>  (581) 
nan

>  <PDB_ID>  (581) 
nan

>  <Standardized_SMILES>  (581) 
CNc1nc(Nc2cc(OC)c(C(=O)N(C)C)cc2Cl)ncc1C(F)(F)F

>  <Name>  (581) 
nan

>  <Pocket>  (581) 
nan

>  <ATP_Site>  (581) 
nan

>  <Peripheral>  (581) 
nan

>  <Num_H_Atoms_ProtBoundConf>  (581) 
nan

>  <Num_Resolved_Atoms>  (581) 
nan

>  <Num_Not_Resolved_Atoms>  (581) 
nan

$$$$
CHEMBL3641836
     RDKit          3D

  0  0  0  0  0  0  0  0  0  0999 V3000
M  V30 BEGIN CTAB
M  V30 COUNTS 47 48 0 0 0
M  V30 BEGIN ATOM
M  V30 1 C -1.141105 -5.203091 0.898239 0
M  V30 2 N -1.671965 -5.333696 -0.454089 0
M  V30 3 C -2.498545 -4.272586 -0.976303 0
M  V30 4 N -2.795089 -3.176193 -0.269350 0
M  V30 5 C -3.546218 -2.147333 -0.687779 0
M  V30 6 N -3.658076 -1.158898 0.325970 0
M  V30 7 C -2.503151 -0.454219 0.736551 0
M  V30 8 C -1.253108 -0.708677 0.191901 0
M  V30 9 C -0.111044 -0.057287 0.581629 0
M  V30 10 O 1.138351 -0.289117 0.060998 0
M  V30 11 C 1.332128 -1.246691 -0.946434 0
M  V30 12 C -0.128104 0.906230 1.553702 0
M  V30 13 C 0.934458 1.719802 2.118503 0
M  V30 14 O 0.739750 2.571989 3.027489 0
M  V30 15 N 2.300027 1.710703 1.777234 0
M  V30 16 C 3.286201 2.563352 2.408225 0
M  V30 17 C 2.990942 4.020504 2.257547 0
M  V30 18 C 4.668173 2.243044 1.820017 0
M  V30 19 C 3.357424 2.195328 3.875976 0
M  V30 20 C -1.389387 1.176848 2.115849 0
M  V30 21 C -2.520596 0.511933 1.710103 0
M  V30 22 Cl -4.073154 0.889185 2.446409 0
M  V30 23 N -4.049492 -2.237633 -1.952529 0
M  V30 24 C -3.779193 -3.330827 -2.714167 0
M  V30 25 C -2.997881 -4.383481 -2.255735 0
M  V30 26 Cl -2.704172 -5.737804 -3.290863 0
M  V30 27 H -0.239993 -5.813930 1.068473 0
M  V30 28 H -0.917529 -4.103636 1.015051 0
M  V30 29 H -1.949200 -5.495397 1.593307 0
M  V30 30 H -1.469721 -6.167722 -1.042215 0
M  V30 31 H -4.574813 -0.906743 0.807038 0
M  V30 32 H -1.205046 -1.461463 -0.578447 0
M  V30 33 H 0.477603 -1.299049 -1.660237 0
M  V30 34 H 2.170047 -0.821931 -1.590504 0
M  V30 35 H 1.611303 -2.256033 -0.578851 0
M  V30 36 H 2.615734 1.063232 1.034675 0
M  V30 37 H 2.209057 4.379497 2.954761 0
M  V30 38 H 2.793096 4.307780 1.203009 0
M  V30 39 H 3.908588 4.584788 2.543389 0
M  V30 40 H 4.973470 2.987814 1.052100 0
M  V30 41 H 5.404776 2.184193 2.645106 0
M  V30 42 H 4.594278 1.209160 1.418328 0
M  V30 43 H 2.570296 2.751347 4.412304 0
M  V30 44 H 3.087617 1.110948 3.942772 0
M  V30 45 H 4.371701 2.393041 4.307060 0
M  V30 46 H -1.536189 1.917845 2.896509 0
M  V30 47 H -4.232159 -3.279398 -3.681124 0
M  V30 END ATOM
M  V30 BEGIN BOND
M  V30 1 1 1 2
M  V30 2 1 2 3
M  V30 3 2 3 4
M  V30 4 1 4 5
M  V30 5 1 5 6
M  V30 6 1 6 7
M  V30 7 2 7 8
M  V30 8 1 8 9
M  V30 9 1 9 10
M  V30 10 1 10 11
M  V30 11 2 9 12
M  V30 12 1 12 13
M  V30 13 2 13 14
M  V30 14 1 13 15
M  V30 15 1 15 16
M  V30 16 1 16 17
M  V30 17 1 16 18
M  V30 18 1 16 19
M  V30 19 1 12 20
M  V30 20 2 20 21
M  V30 21 1 21 22
M  V30 22 2 5 23
M  V30 23 1 23 24
M  V30 24 2 24 25
M  V30 25 1 25 26
M  V30 26 1 25 3
M  V30 27 1 21 7
M  V30 28 1 1 27
M  V30 29 1 1 28
M  V30 30 1 1 29
M  V30 31 1 2 30
M  V30 32 1 6 31
M  V30 33 1 8 32
M  V30 34 1 11 33
M  V30 35 1 11 34
M  V30 36 1 11 35
M  V30 37 1 15 36
M  V30 38 1 17 37
M  V30 39 1 17 38
M  V30 40 1 17 39
M  V30 41 1 18 40
M  V30 42 1 18 41
M  V30 43 1 18 42
M  V30 44 1 19 43
M  V30 45 1 19 44
M  V30 46 1 19 45
M  V30 47 1 20 46
M  V30 48 1 24 47
M  V30 END BOND
M  V30 END CTAB
M  END
>  <Dataset>  (582) 
ChEMBL_Kinases

>  <Ligand_Instance>  (582) 
nan

>  <PDB_ID>  (582) 
nan

>  <Standardized_SMILES>  (582) 
CNc1nc(Nc2cc(OC)c(C(=O)NC(C)(C)C)cc2Cl)ncc1Cl

>  <Name>  (582) 
nan

>  <Pocket>  (582) 
nan

>  <ATP_Site>  (582) 
nan

>  <Peripheral>  (582) 
nan

>  <Num_H_Atoms_ProtBoundConf>  (582) 
nan

>  <Num_Resolved_Atoms>  (582) 
nan

>  <Num_Not_Resolved_Atoms>  (582) 
nan

$$$$
CHEMBL3641835
     RDKit          3D

  0  0  0  0  0  0  0  0  0  0999 V3000
M  V30 BEGIN CTAB
M  V30 COUNTS 45 47 0 0 0
M  V30 BEGIN ATOM
M  V30 1 C -0.566240 -5.626773 1.480808 0
M  V30 2 N -1.151078 -5.681594 0.148386 0
M  V30 3 C -1.894005 -4.592509 -0.398103 0
M  V30 4 N -2.042350 -3.493345 0.364821 0
M  V30 5 C -2.727824 -2.398577 -0.050047 0
M  V30 6 N -2.810099 -1.302482 0.852937 0
M  V30 7 C -1.821751 -0.263593 0.836456 0
M  V30 8 C -0.789249 -0.345529 -0.073420 0
M  V30 9 C 0.197593 0.615439 -0.149145 0
M  V30 10 O 1.275404 0.650064 -1.007165 0
M  V30 11 C 1.435602 -0.395491 -1.937536 0
M  V30 12 C 0.153741 1.695543 0.711865 0
M  V30 13 C 1.089865 2.816027 0.801109 0
M  V30 14 O 0.871068 3.839175 0.099175 0
M  V30 15 N 2.221826 2.757472 1.658181 0
M  V30 16 C 3.220364 3.771975 1.848885 0
M  V30 17 C 3.842809 3.482101 3.197088 0
M  V30 18 C 3.743868 1.983262 3.315562 0
M  V30 19 C 2.558474 1.628187 2.503565 0
M  V30 20 C -0.879685 1.802670 1.641704 0
M  V30 21 C -1.857986 0.830288 1.701754 0
M  V30 22 Cl -3.198318 0.863980 2.827678 0
M  V30 23 N -3.278033 -2.445055 -1.298093 0
M  V30 24 C -3.155799 -3.512856 -2.087097 0
M  V30 25 C -2.461482 -4.631611 -1.676588 0
M  V30 26 Cl -2.256752 -6.070961 -2.653213 0
M  V30 27 H 0.522130 -5.455236 1.384477 0
M  V30 28 H -0.787060 -6.583279 2.031195 0
M  V30 29 H -0.985161 -4.820704 2.089828 0
M  V30 30 H -0.998744 -6.562151 -0.389519 0
M  V30 31 H -3.577166 -1.195463 1.562075 0
M  V30 32 H -0.695293 -1.163373 -0.775176 0
M  V30 33 H 1.177486 -1.395949 -1.548355 0
M  V30 34 H 0.856664 -0.180959 -2.867086 0
M  V30 35 H 2.511512 -0.470655 -2.260736 0
M  V30 36 H 2.835441 4.801910 1.769388 0
M  V30 37 H 4.020584 3.644858 1.089261 0
M  V30 38 H 3.237076 3.898691 4.029181 0
M  V30 39 H 4.920192 3.742603 3.248877 0
M  V30 40 H 4.669815 1.473140 2.984582 0
M  V30 41 H 3.604483 1.692332 4.393100 0
M  V30 42 H 2.713377 0.749029 1.833481 0
M  V30 43 H 1.704920 1.415423 3.191948 0
M  V30 44 H -1.024522 2.593772 2.364772 0
M  V30 45 H -3.596865 -3.532800 -3.070719 0
M  V30 END ATOM
M  V30 BEGIN BOND
M  V30 1 1 1 2
M  V30 2 1 2 3
M  V30 3 2 3 4
M  V30 4 1 4 5
M  V30 5 1 5 6
M  V30 6 1 6 7
M  V30 7 2 7 8
M  V30 8 1 8 9
M  V30 9 1 9 10
M  V30 10 1 10 11
M  V30 11 2 9 12
M  V30 12 1 12 13
M  V30 13 2 13 14
M  V30 14 1 13 15
M  V30 15 1 15 16
M  V30 16 1 16 17
M  V30 17 1 17 18
M  V30 18 1 18 19
M  V30 19 1 12 20
M  V30 20 2 20 21
M  V30 21 1 21 22
M  V30 22 2 5 23
M  V30 23 1 23 24
M  V30 24 2 24 25
M  V30 25 1 25 26
M  V30 26 1 25 3
M  V30 27 1 21 7
M  V30 28 1 19 15
M  V30 29 1 1 27
M  V30 30 1 1 28
M  V30 31 1 1 29
M  V30 32 1 2 30
M  V30 33 1 6 31
M  V30 34 1 8 32
M  V30 35 1 11 33
M  V30 36 1 11 34
M  V30 37 1 11 35
M  V30 38 1 16 36
M  V30 39 1 16 37
M  V30 40 1 17 38
M  V30 41 1 17 39
M  V30 42 1 18 40
M  V30 43 1 18 41
M  V30 44 1 19 42
M  V30 45 1 19 43
M  V30 46 1 20 44
M  V30 47 1 24 45
M  V30 END BOND
M  V30 END CTAB
M  END
>  <Dataset>  (583) 
ChEMBL_Kinases

>  <Ligand_Instance>  (583) 
nan

>  <PDB_ID>  (583) 
nan

>  <Standardized_SMILES>  (583) 
CNc1nc(Nc2cc(OC)c(C(=O)N3CCCC3)cc2Cl)ncc1Cl

>  <Name>  (583) 
nan

>  <Pocket>  (583) 
nan

>  <ATP_Site>  (583) 
nan

>  <Peripheral>  (583) 
nan

>  <Num_H_Atoms_ProtBoundConf>  (583) 
nan

>  <Num_Resolved_Atoms>  (583) 
nan

>  <Num_Not_Resolved_Atoms>  (583) 
nan

$$$$
CHEMBL3641834
     RDKit          3D

  0  0  0  0  0  0  0  0  0  0999 V3000
M  V30 BEGIN CTAB
M  V30 COUNTS 53 55 0 0 0
M  V30 BEGIN ATOM
M  V30 1 C 1.444701 -6.769320 3.533125 0
M  V30 2 N 2.750261 -6.794173 2.914682 0
M  V30 3 C 3.046250 -6.088919 1.721468 0
M  V30 4 N 2.122279 -5.334655 1.042669 0
M  V30 5 C 2.428908 -4.689303 -0.074139 0
M  V30 6 N 1.327546 -3.994769 -0.571743 0
M  V30 7 C 0.825863 -2.706298 -0.442158 0
M  V30 8 C 1.694269 -2.003424 0.357632 0
M  V30 9 C 1.412489 -0.722842 0.638145 0
M  V30 10 O 2.079921 0.284073 1.417921 0
M  V30 11 C 3.273987 -0.099413 2.029911 0
M  V30 12 C 0.499592 0.253084 0.411062 0
M  V30 13 C -0.449331 1.264514 0.173866 0
M  V30 14 O 0.416709 1.840332 0.921828 0
M  V30 15 N -1.545783 2.056467 -0.235778 0
M  V30 16 C -1.499733 3.395202 0.257485 0
M  V30 17 C -2.563456 3.431228 1.387625 0
M  V30 18 C -3.815984 2.818548 0.895300 0
M  V30 19 N -4.100396 2.995785 -0.480573 0
M  V30 20 C -5.498269 2.873417 -0.809948 0
M  V30 21 C -3.432547 4.040901 -1.161910 0
M  V30 22 C -2.061228 4.384496 -0.745619 0
M  V30 23 C -0.389071 -0.600313 -0.457955 0
M  V30 24 C -0.291072 -1.972439 -0.886679 0
M  V30 25 Cl -1.196106 -3.133233 -1.874127 0
M  V30 26 N 3.664570 -4.719250 -0.635987 0
M  V30 27 C 4.657726 -5.442930 -0.038302 0
M  V30 28 C 4.287790 -6.101081 1.130675 0
M  V30 29 Cl 5.539365 -7.032636 1.928671 0
M  V30 30 H 0.829104 -6.020363 2.951721 0
M  V30 31 H 0.911671 -7.740821 3.501168 0
M  V30 32 H 1.515015 -6.471901 4.605390 0
M  V30 33 H 3.492692 -7.356768 3.371588 0
M  V30 34 H 0.674891 -4.504655 -1.200464 0
M  V30 35 H 2.645581 -2.151207 0.898683 0
M  V30 36 H 3.649870 0.702105 2.738649 0
M  V30 37 H 3.221177 -1.081937 2.537165 0
M  V30 38 H 4.125056 -0.206366 1.302722 0
M  V30 39 H -1.871605 1.200192 -0.761322 0
M  V30 40 H -0.562983 3.767354 0.645065 0
M  V30 41 H -2.731750 4.477492 1.689121 0
M  V30 42 H -2.171842 2.871067 2.256960 0
M  V30 43 H -4.671326 3.268358 1.471569 0
M  V30 44 H -3.855254 1.737351 1.139301 0
M  V30 45 H -5.994831 2.159051 -0.111812 0
M  V30 46 H -5.560641 2.435679 -1.838632 0
M  V30 47 H -6.000489 3.863895 -0.802077 0
M  V30 48 H -3.425998 3.827592 -2.272465 0
M  V30 49 H -4.074243 4.963110 -1.099872 0
M  V30 50 H -1.402430 4.538199 -1.616414 0
M  V30 51 H -2.087445 5.360914 -0.178532 0
M  V30 52 H -1.365939 -0.575408 -1.071493 0
M  V30 53 H 5.668538 -5.509965 -0.435564 0
M  V30 END ATOM
M  V30 BEGIN BOND
M  V30 1 1 1 2
M  V30 2 1 2 3
M  V30 3 2 3 4
M  V30 4 1 4 5
M  V30 5 1 5 6
M  V30 6 1 6 7
M  V30 7 2 7 8
M  V30 8 1 8 9
M  V30 9 1 9 10
M  V30 10 1 10 11
M  V30 11 2 9 12
M  V30 12 1 12 13
M  V30 13 2 13 14
M  V30 14 1 13 15
M  V30 15 1 15 16
M  V30 16 1 16 17
M  V30 17 1 17 18
M  V30 18 1 18 19
M  V30 19 1 19 20
M  V30 20 1 19 21
M  V30 21 1 21 22
M  V30 22 1 12 23
M  V30 23 2 23 24
M  V30 24 1 24 25
M  V30 25 2 5 26
M  V30 26 1 26 27
M  V30 27 2 27 28
M  V30 28 1 28 29
M  V30 29 1 28 3
M  V30 30 1 24 7
M  V30 31 1 22 16
M  V30 32 1 1 30
M  V30 33 1 1 31
M  V30 34 1 1 32
M  V30 35 1 2 33
M  V30 36 1 6 34
M  V30 37 1 8 35
M  V30 38 1 11 36
M  V30 39 1 11 37
M  V30 40 1 11 38
M  V30 41 1 15 39
M  V30 42 1 16 40
M  V30 43 1 17 41
M  V30 44 1 17 42
M  V30 45 1 18 43
M  V30 46 1 18 44
M  V30 47 1 20 45
M  V30 48 1 20 46
M  V30 49 1 20 47
M  V30 50 1 21 48
M  V30 51 1 21 49
M  V30 52 1 22 50
M  V30 53 1 22 51
M  V30 54 1 23 52
M  V30 55 1 27 53
M  V30 END BOND
M  V30 END CTAB
M  END
>  <Dataset>  (584) 
ChEMBL_Kinases

>  <Ligand_Instance>  (584) 
nan

>  <PDB_ID>  (584) 
nan

>  <Standardized_SMILES>  (584) 
CNc1nc(Nc2cc(OC)c(C(=O)NC3CCN(C)CC3)cc2Cl)ncc1Cl

>  <Name>  (584) 
nan

>  <Pocket>  (584) 
nan

>  <ATP_Site>  (584) 
nan

>  <Peripheral>  (584) 
nan

>  <Num_H_Atoms_ProtBoundConf>  (584) 
nan

>  <Num_Resolved_Atoms>  (584) 
nan

>  <Num_Not_Resolved_Atoms>  (584) 
nan

$$$$
CHEMBL3641833
     RDKit          3D

  0  0  0  0  0  0  0  0  0  0999 V3000
M  V30 BEGIN CTAB
M  V30 COUNTS 45 47 0 0 0
M  V30 BEGIN ATOM
M  V30 1 C -2.530203 -6.083547 0.481064 0
M  V30 2 N -1.496694 -6.147480 -0.507160 0
M  V30 3 C -0.669688 -4.983193 -0.803160 0
M  V30 4 N -0.980801 -3.874199 -0.085779 0
M  V30 5 C -0.333721 -2.702580 -0.220737 0
M  V30 6 N -0.815719 -1.723263 0.669786 0
M  V30 7 C -0.384319 -0.426009 0.922987 0
M  V30 8 C 0.626894 -0.049896 0.074259 0
M  V30 9 C 1.029695 1.154253 0.341093 0
M  V30 10 O 2.093782 1.856742 -0.362961 0
M  V30 11 C 2.733657 1.206099 -1.391977 0
M  V30 12 C 1.018332 2.336752 1.029319 0
M  V30 13 C 0.973205 3.519665 1.763210 0
M  V30 14 O 1.759840 3.694099 0.831615 0
M  V30 15 N 0.386926 4.089052 2.865143 0
M  V30 16 C 0.323918 5.258646 3.626532 0
M  V30 17 C 1.251735 5.667813 4.724878 0
M  V30 18 C 0.085944 4.882475 5.116146 0
M  V30 19 C -0.118883 1.712990 1.864703 0
M  V30 20 C -0.827855 0.455732 1.891735 0
M  V30 21 Cl -2.144317 -0.187102 2.889642 0
M  V30 22 N 0.639394 -2.694496 -1.113909 0
M  V30 23 C 1.035369 -3.709247 -1.871906 0
M  V30 24 C 0.354941 -4.892460 -1.704862 0
M  V30 25 C 0.696090 -6.117167 -2.448630 0
M  V30 26 F 1.761898 -5.851966 -3.297684 0
M  V30 27 F 1.077049 -7.076080 -1.509014 0
M  V30 28 F -0.310742 -6.631004 -3.221814 0
M  V30 29 H -2.962733 -5.085737 0.520599 0
M  V30 30 H -3.350420 -6.817001 0.234832 0
M  V30 31 H -2.156133 -6.420470 1.480539 0
M  V30 32 H -1.148203 -6.898071 -1.128781 0
M  V30 33 H -1.656042 -1.901655 1.298348 0
M  V30 34 H 1.156542 -0.479580 -0.748810 0
M  V30 35 H 3.755500 1.665341 -1.502997 0
M  V30 36 H 2.205971 1.379106 -2.381889 0
M  V30 37 H 2.944035 0.119325 -1.248785 0
M  V30 38 H 1.000519 4.806399 2.501441 0
M  V30 39 H -0.273474 6.129057 3.230779 0
M  V30 40 H 1.271384 6.740388 4.981656 0
M  V30 41 H 2.265077 5.216932 4.828563 0
M  V30 42 H -0.875753 5.181305 5.494839 0
M  V30 43 H 0.332215 3.823305 5.422720 0
M  V30 44 H -0.757846 2.104104 2.764263 0
M  V30 45 H 1.842467 -3.620383 -2.579691 0
M  V30 END ATOM
M  V30 BEGIN BOND
M  V30 1 1 1 2
M  V30 2 1 2 3
M  V30 3 2 3 4
M  V30 4 1 4 5
M  V30 5 1 5 6
M  V30 6 1 6 7
M  V30 7 2 7 8
M  V30 8 1 8 9
M  V30 9 1 9 10
M  V30 10 1 10 11
M  V30 11 2 9 12
M  V30 12 1 12 13
M  V30 13 2 13 14
M  V30 14 1 13 15
M  V30 15 1 15 16
M  V30 16 1 16 17
M  V30 17 1 17 18
M  V30 18 1 12 19
M  V30 19 2 19 20
M  V30 20 1 20 21
M  V30 21 2 5 22
M  V30 22 1 22 23
M  V30 23 2 23 24
M  V30 24 1 24 25
M  V30 25 1 25 26
M  V30 26 1 25 27
M  V30 27 1 25 28
M  V30 28 1 24 3
M  V30 29 1 20 7
M  V30 30 1 18 16
M  V30 31 1 1 29
M  V30 32 1 1 30
M  V30 33 1 1 31
M  V30 34 1 2 32
M  V30 35 1 6 33
M  V30 36 1 8 34
M  V30 37 1 11 35
M  V30 38 1 11 36
M  V30 39 1 11 37
M  V30 40 1 15 38
M  V30 41 1 16 39
M  V30 42 1 17 40
M  V30 43 1 17 41
M  V30 44 1 18 42
M  V30 45 1 18 43
M  V30 46 1 19 44
M  V30 47 1 23 45
M  V30 END BOND
M  V30 END CTAB
M  END
>  <Dataset>  (585) 
ChEMBL_Kinases

>  <Ligand_Instance>  (585) 
nan

>  <PDB_ID>  (585) 
nan

>  <Standardized_SMILES>  (585) 
CNc1nc(Nc2cc(OC)c(C(=O)NC3CC3)cc2Cl)ncc1C(F)(F)F

>  <Name>  (585) 
nan

>  <Pocket>  (585) 
nan

>  <ATP_Site>  (585) 
nan

>  <Peripheral>  (585) 
nan

>  <Num_H_Atoms_ProtBoundConf>  (585) 
nan

>  <Num_Resolved_Atoms>  (585) 
nan

>  <Num_Not_Resolved_Atoms>  (585) 
nan

$$$$
CHEMBL3641832
     RDKit          3D

  0  0  0  0  0  0  0  0  0  0999 V3000
M  V30 BEGIN CTAB
M  V30 COUNTS 43 45 0 0 0
M  V30 BEGIN ATOM
M  V30 1 C -1.562663 -5.747343 2.807408 0
M  V30 2 N -2.041932 -5.577384 1.458073 0
M  V30 3 C -2.463471 -4.396358 0.778711 0
M  V30 4 N -2.431878 -3.227164 1.447587 0
M  V30 5 C -2.816843 -2.064193 0.868019 0
M  V30 6 N -2.809789 -0.794726 1.512868 0
M  V30 7 C -1.672535 0.059700 1.477276 0
M  V30 8 C -0.557725 -0.374980 0.793626 0
M  V30 9 C 0.578946 0.400941 0.718451 0
M  V30 10 O 1.683795 -0.043346 0.034043 0
M  V30 11 C 1.641803 -1.306249 -0.592876 0
M  V30 12 C 0.678795 1.638160 1.308180 0
M  V30 13 C 1.805938 2.556712 1.309773 0
M  V30 14 O 1.749971 3.666466 1.899050 0
M  V30 15 N 3.079986 2.412324 0.708332 0
M  V30 16 C 4.098056 3.431088 0.806286 0
M  V30 17 C 5.438481 2.815981 1.142875 0
M  V30 18 O 5.711405 2.592662 -0.223577 0
M  V30 19 C 4.874598 3.647719 -0.494029 0
M  V30 20 C -0.440957 2.068928 1.991891 0
M  V30 21 C -1.579280 1.300116 2.071382 0
M  V30 22 Cl -2.965853 1.881425 2.942340 0
M  V30 23 N -3.244248 -2.102074 -0.428334 0
M  V30 24 C -3.284801 -3.254273 -1.115599 0
M  V30 25 C -2.898993 -4.451965 -0.550623 0
M  V30 26 Cl -2.934665 -5.978691 -1.407203 0
M  V30 27 H -0.637618 -6.376853 2.809063 0
M  V30 28 H -2.313053 -6.268330 3.454730 0
M  V30 29 H -1.276121 -4.794006 3.303568 0
M  V30 30 H -2.065865 -6.482326 0.941080 0
M  V30 31 H -3.685882 -0.527063 2.012797 0
M  V30 32 H -0.566577 -1.339505 0.305286 0
M  V30 33 H 1.541118 -2.136258 0.131548 0
M  V30 34 H 0.748852 -1.301949 -1.255739 0
M  V30 35 H 2.542423 -1.450588 -1.252648 0
M  V30 36 H 3.269759 1.535605 0.182511 0
M  V30 37 H 3.839240 4.325349 1.367572 0
M  V30 38 H 5.401606 1.912420 1.764324 0
M  V30 39 H 6.141220 3.620056 1.475566 0
M  V30 40 H 4.196720 3.359845 -1.348258 0
M  V30 41 H 5.295283 4.643649 -0.617809 0
M  V30 42 H -0.468715 3.043910 2.500762 0
M  V30 43 H -3.623567 -3.296817 -2.149499 0
M  V30 END ATOM
M  V30 BEGIN BOND
M  V30 1 1 1 2
M  V30 2 1 2 3
M  V30 3 2 3 4
M  V30 4 1 4 5
M  V30 5 1 5 6
M  V30 6 1 6 7
M  V30 7 2 7 8
M  V30 8 1 8 9
M  V30 9 1 9 10
M  V30 10 1 10 11
M  V30 11 2 9 12
M  V30 12 1 12 13
M  V30 13 2 13 14
M  V30 14 1 13 15
M  V30 15 1 15 16
M  V30 16 1 16 17
M  V30 17 1 17 18
M  V30 18 1 18 19
M  V30 19 1 12 20
M  V30 20 2 20 21
M  V30 21 1 21 22
M  V30 22 2 5 23
M  V30 23 1 23 24
M  V30 24 2 24 25
M  V30 25 1 25 26
M  V30 26 1 25 3
M  V30 27 1 21 7
M  V30 28 1 19 16
M  V30 29 1 1 27
M  V30 30 1 1 28
M  V30 31 1 1 29
M  V30 32 1 2 30
M  V30 33 1 6 31
M  V30 34 1 8 32
M  V30 35 1 11 33
M  V30 36 1 11 34
M  V30 37 1 11 35
M  V30 38 1 15 36
M  V30 39 1 16 37
M  V30 40 1 17 38
M  V30 41 1 17 39
M  V30 42 1 19 40
M  V30 43 1 19 41
M  V30 44 1 20 42
M  V30 45 1 24 43
M  V30 END BOND
M  V30 END CTAB
M  END
>  <Dataset>  (586) 
ChEMBL_Kinases

>  <Ligand_Instance>  (586) 
nan

>  <PDB_ID>  (586) 
nan

>  <Standardized_SMILES>  (586) 
CNc1nc(Nc2cc(OC)c(C(=O)NC3COC3)cc2Cl)ncc1Cl

>  <Name>  (586) 
nan

>  <Pocket>  (586) 
nan

>  <ATP_Site>  (586) 
nan

>  <Peripheral>  (586) 
nan

>  <Num_H_Atoms_ProtBoundConf>  (586) 
nan

>  <Num_Resolved_Atoms>  (586) 
nan

>  <Num_Not_Resolved_Atoms>  (586) 
nan

$$$$
CHEMBL3641831
     RDKit          3D

  0  0  0  0  0  0  0  0  0  0999 V3000
M  V30 BEGIN CTAB
M  V30 COUNTS 46 48 0 0 0
M  V30 BEGIN ATOM
M  V30 1 C 2.638584 -4.362416 0.753743 0
M  V30 2 N 1.721976 -5.318939 0.163789 0
M  V30 3 C 0.473277 -5.114717 -0.468770 0
M  V30 4 N -0.047968 -3.909398 -0.605690 0
M  V30 5 C -1.213031 -3.593748 -1.181495 0
M  V30 6 N -1.797190 -2.314507 -1.343374 0
M  V30 7 C -1.275759 -1.064140 -0.931834 0
M  V30 8 C -0.072127 -0.888258 -0.287236 0
M  V30 9 C 0.438211 0.325893 0.113776 0
M  V30 10 O 1.646739 0.504653 0.761112 0
M  V30 11 C 2.533883 -0.530914 1.105533 0
M  V30 12 C -0.286504 1.472171 -0.134003 0
M  V30 13 C 0.161082 2.805962 0.247540 0
M  V30 14 O 0.848860 3.663127 -0.364871 0
M  V30 15 N -0.242554 3.235875 1.544571 0
M  V30 16 C 0.127600 4.554598 2.077388 0
M  V30 17 C 0.628280 4.170052 3.466928 0
M  V30 18 C 0.028540 2.824418 3.769125 0
M  V30 19 O 0.954583 1.801837 3.516767 0
M  V30 20 C -1.011059 2.709790 2.661201 0
M  V30 21 C -1.497896 1.344238 -0.777224 0
M  V30 22 C -1.962353 0.107605 -1.156958 0
M  V30 23 Cl -3.515133 0.053412 -1.968945 0
M  V30 24 N -1.859354 -4.674637 -1.643346 0
M  V30 25 C -1.452873 -5.927587 -1.572063 0
M  V30 26 C -0.251614 -6.169451 -0.968914 0
M  V30 27 Cl 0.382358 -7.793384 -0.820318 0
M  V30 28 H 3.602274 -4.301876 0.184059 0
M  V30 29 H 2.965024 -4.726242 1.772199 0
M  V30 30 H 2.144216 -3.387490 0.849519 0
M  V30 31 H 2.092190 -6.290184 0.247861 0
M  V30 32 H -2.727069 -2.271678 -1.823451 0
M  V30 33 H 0.553380 -1.721196 -0.055778 0
M  V30 34 H 2.890967 -1.091121 0.217399 0
M  V30 35 H 2.068096 -1.153171 1.886095 0
M  V30 36 H 3.420242 -0.031708 1.591110 0
M  V30 37 H -0.763594 5.185755 2.252433 0
M  V30 38 H 0.897833 5.049810 1.465154 0
M  V30 39 H 0.270038 4.862758 4.252577 0
M  V30 40 H 1.746305 4.110927 3.486232 0
M  V30 41 H -0.399559 2.729359 4.779933 0
M  V30 42 H 1.361749 1.444657 4.348413 0
M  V30 43 H -1.833142 3.417528 2.927410 0
M  V30 44 H -1.359029 1.683368 2.508586 0
M  V30 45 H -2.078877 2.237871 -0.978692 0
M  V30 46 H -2.061307 -6.705371 -1.979588 0
M  V30 END ATOM
M  V30 BEGIN BOND
M  V30 1 1 1 2
M  V30 2 1 2 3
M  V30 3 2 3 4
M  V30 4 1 4 5
M  V30 5 1 5 6
M  V30 6 1 6 7
M  V30 7 2 7 8
M  V30 8 1 8 9
M  V30 9 1 9 10
M  V30 10 1 10 11
M  V30 11 2 9 12
M  V30 12 1 12 13
M  V30 13 2 13 14
M  V30 14 1 13 15
M  V30 15 1 15 16
M  V30 16 1 16 17
M  V30 17 1 17 18
M  V30 18 1 18 19
M  V30 19 1 18 20
M  V30 20 1 12 21
M  V30 21 2 21 22
M  V30 22 1 22 23
M  V30 23 2 5 24
M  V30 24 1 24 25
M  V30 25 2 25 26
M  V30 26 1 26 27
M  V30 27 1 26 3
M  V30 28 1 22 7
M  V30 29 1 20 15
M  V30 30 1 1 28
M  V30 31 1 1 29
M  V30 32 1 1 30
M  V30 33 1 2 31
M  V30 34 1 6 32
M  V30 35 1 8 33
M  V30 36 1 11 34
M  V30 37 1 11 35
M  V30 38 1 11 36
M  V30 39 1 16 37
M  V30 40 1 16 38
M  V30 41 1 17 39
M  V30 42 1 17 40
M  V30 43 1 18 41
M  V30 44 1 19 42
M  V30 45 1 20 43
M  V30 46 1 20 44
M  V30 47 1 21 45
M  V30 48 1 25 46
M  V30 END BOND
M  V30 END CTAB
M  END
>  <Dataset>  (587) 
ChEMBL_Kinases

>  <Ligand_Instance>  (587) 
nan

>  <PDB_ID>  (587) 
nan

>  <Standardized_SMILES>  (587) 
CNc1nc(Nc2cc(OC)c(C(=O)N3CCC(O)C3)cc2Cl)ncc1Cl

>  <Name>  (587) 
nan

>  <Pocket>  (587) 
nan

>  <ATP_Site>  (587) 
nan

>  <Peripheral>  (587) 
nan

>  <Num_H_Atoms_ProtBoundConf>  (587) 
nan

>  <Num_Resolved_Atoms>  (587) 
nan

>  <Num_Not_Resolved_Atoms>  (587) 
nan

$$$$
CHEMBL3640641
     RDKit          3D

  0  0  0  0  0  0  0  0  0  0999 V3000
M  V30 BEGIN CTAB
M  V30 COUNTS 50 52 0 0 0
M  V30 BEGIN ATOM
M  V30 1 C 3.668328 -2.646261 6.941621 0
M  V30 2 C 3.361941 -2.543238 5.773126 0
M  V30 3 C 2.995312 -2.443312 4.388598 0
M  V30 4 C 3.759774 -1.672716 3.562665 0
M  V30 5 C 3.384186 -1.595068 2.242294 0
M  V30 6 C 2.287768 -2.238516 1.680291 0
M  V30 7 N 1.954049 -2.103279 0.320408 0
M  V30 8 C 0.897390 -1.689870 -0.485080 0
M  V30 9 C 0.510133 -0.438810 -0.903203 0
M  V30 10 C 1.336919 0.655279 -0.432852 0
M  V30 11 O 2.357656 0.719141 0.280906 0
M  V30 12 N 1.032408 1.989316 -0.785455 0
M  V30 13 O 1.932850 2.870765 -0.240945 0
M  V30 14 C 1.458903 3.261632 1.011448 0
M  V30 15 C 2.443133 4.217214 1.654016 0
M  V30 16 O 1.979135 4.611829 2.902187 0
M  V30 17 C -0.571069 -0.204681 -1.713613 0
M  V30 18 C -1.316908 -1.281748 -2.137379 0
M  V30 19 C -2.499651 -1.000876 -3.023725 0
M  V30 20 N -3.747155 -1.094822 -2.295226 0
M  V30 21 O -4.256283 -0.001942 -1.686240 0
M  V30 22 C -4.901446 -0.448392 -0.540288 0
M  V30 23 C -5.260024 -1.886489 -0.719281 0
M  V30 24 C -4.644006 -2.199581 -2.055252 0
M  V30 25 O -4.740621 -3.122080 -2.907502 0
M  V30 26 C -0.985064 -2.561060 -1.757106 0
M  V30 27 F -1.799827 -3.529504 -2.243998 0
M  V30 28 C 0.122569 -2.767391 -0.930658 0
M  V30 29 F 0.265583 -4.115155 -0.695575 0
M  V30 30 C 1.571601 -2.996668 2.590167 0
M  V30 31 F 0.488009 -3.673830 2.211319 0
M  V30 32 C 1.890822 -3.115545 3.912264 0
M  V30 33 H 3.925745 -2.721500 7.965604 0
M  V30 34 H 4.622880 -1.150842 3.946787 0
M  V30 35 H 4.032156 -0.968390 1.628632 0
M  V30 36 H 2.767642 -2.416452 -0.258749 0
M  V30 37 H 0.223397 2.305383 -1.388745 0
M  V30 38 H 0.509557 3.817208 0.849000 0
M  V30 39 H 1.300952 2.412422 1.697509 0
M  V30 40 H 3.393328 3.653221 1.803112 0
M  V30 41 H 2.653856 5.062780 0.978310 0
M  V30 42 H 2.228494 3.931404 3.593878 0
M  V30 43 H -0.870271 0.774711 -2.037667 0
M  V30 44 H -2.406935 -0.039785 -3.527022 0
M  V30 45 H -2.464510 -1.774071 -3.836454 0
M  V30 46 H -5.778407 0.161471 -0.323906 0
M  V30 47 H -4.225982 -0.403748 0.357891 0
M  V30 48 H -6.372469 -1.966222 -0.891972 0
M  V30 49 H -4.938091 -2.560756 0.075955 0
M  V30 50 H 1.323766 -3.712615 4.619172 0
M  V30 END ATOM
M  V30 BEGIN BOND
M  V30 1 3 1 2
M  V30 2 1 2 3
M  V30 3 2 3 4
M  V30 4 1 4 5
M  V30 5 2 5 6
M  V30 6 1 6 7
M  V30 7 1 7 8
M  V30 8 2 8 9
M  V30 9 1 9 10
M  V30 10 2 10 11
M  V30 11 1 10 12
M  V30 12 1 12 13
M  V30 13 1 13 14
M  V30 14 1 14 15
M  V30 15 1 15 16
M  V30 16 1 9 17
M  V30 17 2 17 18
M  V30 18 1 18 19
M  V30 19 1 19 20
M  V30 20 1 20 21
M  V30 21 1 21 22
M  V30 22 1 22 23
M  V30 23 1 23 24
M  V30 24 2 24 25
M  V30 25 1 18 26
M  V30 26 1 26 27
M  V30 27 2 26 28
M  V30 28 1 28 29
M  V30 29 1 6 30
M  V30 30 1 30 31
M  V30 31 2 30 32
M  V30 32 1 32 3
M  V30 33 1 28 8
M  V30 34 1 24 20
M  V30 35 1 1 33
M  V30 36 1 4 34
M  V30 37 1 5 35
M  V30 38 1 7 36
M  V30 39 1 12 37
M  V30 40 1 14 38
M  V30 41 1 14 39
M  V30 42 1 15 40
M  V30 43 1 15 41
M  V30 44 1 16 42
M  V30 45 1 17 43
M  V30 46 1 19 44
M  V30 47 1 19 45
M  V30 48 1 22 46
M  V30 49 1 22 47
M  V30 50 1 23 48
M  V30 51 1 23 49
M  V30 52 1 32 50
M  V30 END BOND
M  V30 END CTAB
M  END
>  <Dataset>  (588) 
ChEMBL_Kinases

>  <Ligand_Instance>  (588) 
nan

>  <PDB_ID>  (588) 
nan

>  <Standardized_SMILES>  (588) 
C#Cc1ccc(Nc2c(C(=O)NOCCO)cc(CN3OCCC3=O)c(F)c2F)c(F)c1

>  <Name>  (588) 
nan

>  <Pocket>  (588) 
nan

>  <ATP_Site>  (588) 
nan

>  <Peripheral>  (588) 
nan

>  <Num_H_Atoms_ProtBoundConf>  (588) 
nan

>  <Num_Resolved_Atoms>  (588) 
nan

>  <Num_Not_Resolved_Atoms>  (588) 
nan

$$$$
CHEMBL3641814
     RDKit          3D

  0  0  0  0  0  0  0  0  0  0999 V3000
M  V30 BEGIN CTAB
M  V30 COUNTS 57 60 0 0 0
M  V30 BEGIN ATOM
M  V30 1 C 0.851779 -1.317939 5.247323 0
M  V30 2 O -0.038879 -0.907362 4.239570 0
M  V30 3 C 0.326728 -0.133987 3.154736 0
M  V30 4 C 1.621433 0.302241 2.968042 0
M  V30 5 C 1.911007 1.069743 1.858470 0
M  V30 6 C 3.259902 1.589424 1.546846 0
M  V30 7 O 3.414063 2.513108 2.361662 0
M  V30 8 N 3.867661 0.861635 0.457590 0
M  V30 9 C 3.263078 -0.261173 -0.277176 0
M  V30 10 C 3.048750 0.204652 -1.685098 0
M  V30 11 O 3.684040 1.415254 -1.951161 0
M  V30 12 C 5.015168 1.405143 -1.554037 0
M  V30 13 C 5.200815 1.140614 -0.083854 0
M  V30 14 C 0.914530 1.388447 0.963050 0
M  V30 15 C -0.375110 0.945092 1.163336 0
M  V30 16 C -0.711660 0.160587 2.278186 0
M  V30 17 N -2.054170 -0.301035 2.451208 0
M  V30 18 C -3.006833 0.098013 1.476138 0
M  V30 19 N -3.911326 1.097541 1.510168 0
M  V30 20 C -4.725136 1.336616 0.450271 0
M  V30 21 C -4.627119 0.561509 -0.655000 0
M  V30 22 Cl -5.684042 0.869119 -2.036937 0
M  V30 23 C -3.713364 -0.474782 -0.732690 0
M  V30 24 N -3.554881 -1.297153 -1.895433 0
M  V30 25 C -2.721019 -2.401894 -2.209537 0
M  V30 26 C -3.044246 -3.724491 -1.630648 0
M  V30 27 C -3.069904 -3.858545 -0.150139 0
M  V30 28 C -1.601530 -3.734256 0.165261 0
M  V30 29 O -0.984849 -4.503549 -0.809448 0
M  V30 30 C -1.805681 -4.604938 -1.912254 0
M  V30 31 N -2.979678 -0.615804 0.347279 0
M  V30 32 H 1.724080 -1.800714 4.792743 0
M  V30 33 H 1.221280 -0.457797 5.860048 0
M  V30 34 H 0.331033 -2.068245 5.882929 0
M  V30 35 H 2.404345 0.065092 3.652211 0
M  V30 36 H 3.935506 -1.138126 -0.247230 0
M  V30 37 H 2.320813 -0.576122 0.226385 0
M  V30 38 H 1.957410 0.408717 -1.764085 0
M  V30 39 H 3.283695 -0.557564 -2.462269 0
M  V30 40 H 5.411277 2.426818 -1.737987 0
M  V30 41 H 5.617919 0.725248 -2.201306 0
M  V30 42 H 5.774971 0.181579 0.057952 0
M  V30 43 H 5.691801 1.964931 0.465088 0
M  V30 44 H 1.067324 1.981279 0.082779 0
M  V30 45 H -1.164728 1.191774 0.466477 0
M  V30 46 H -2.235595 -0.904379 3.293529 0
M  V30 47 H -5.433258 2.142270 0.506446 0
M  V30 48 H -4.214746 -0.998304 -2.681848 0
M  V30 49 H -1.640344 -2.206128 -1.964248 0
M  V30 50 H -2.686806 -2.554346 -3.327678 0
M  V30 51 H -3.919087 -4.221885 -2.115655 0
M  V30 52 H -3.744886 -3.222278 0.404156 0
M  V30 53 H -3.314100 -4.945655 0.053114 0
M  V30 54 H -1.193739 -2.722236 0.104585 0
M  V30 55 H -1.457080 -4.106293 1.198732 0
M  V30 56 H -2.119680 -5.673566 -2.066061 0
M  V30 57 H -1.324914 -4.269650 -2.843443 0
M  V30 END ATOM
M  V30 BEGIN BOND
M  V30 1 1 1 2
M  V30 2 1 2 3
M  V30 3 2 3 4
M  V30 4 1 4 5
M  V30 5 1 5 6
M  V30 6 2 6 7
M  V30 7 1 6 8
M  V30 8 1 8 9
M  V30 9 1 9 10
M  V30 10 1 10 11
M  V30 11 1 11 12
M  V30 12 1 12 13
M  V30 13 2 5 14
M  V30 14 1 14 15
M  V30 15 2 15 16
M  V30 16 1 16 17
M  V30 17 1 17 18
M  V30 18 2 18 19
M  V30 19 1 19 20
M  V30 20 2 20 21
M  V30 21 1 21 22
M  V30 22 1 21 23
M  V30 23 1 23 24
M  V30 24 1 24 25
M  V30 25 1 25 26
M  V30 26 1 26 27
M  V30 27 1 27 28
M  V30 28 1 28 29
M  V30 29 1 29 30
M  V30 30 2 23 31
M  V30 31 1 16 3
M  V30 32 1 31 18
M  V30 33 1 13 8
M  V30 34 1 30 26
M  V30 35 1 1 32
M  V30 36 1 1 33
M  V30 37 1 1 34
M  V30 38 1 4 35
M  V30 39 1 9 36
M  V30 40 1 9 37
M  V30 41 1 10 38
M  V30 42 1 10 39
M  V30 43 1 12 40
M  V30 44 1 12 41
M  V30 45 1 13 42
M  V30 46 1 13 43
M  V30 47 1 14 44
M  V30 48 1 15 45
M  V30 49 1 17 46
M  V30 50 1 20 47
M  V30 51 1 24 48
M  V30 52 1 25 49
M  V30 53 1 25 50
M  V30 54 1 26 51
M  V30 55 1 27 52
M  V30 56 1 27 53
M  V30 57 1 28 54
M  V30 58 1 28 55
M  V30 59 1 30 56
M  V30 60 1 30 57
M  V30 END BOND
M  V30 END CTAB
M  END
>  <Dataset>  (589) 
ChEMBL_Kinases

>  <Ligand_Instance>  (589) 
nan

>  <PDB_ID>  (589) 
nan

>  <Standardized_SMILES>  (589) 
COc1cc(C(=O)N2CCOCC2)ccc1Nc1ncc(Cl)c(NCC2CCOC2)n1

>  <Name>  (589) 
nan

>  <Pocket>  (589) 
nan

>  <ATP_Site>  (589) 
nan

>  <Peripheral>  (589) 
nan

>  <Num_H_Atoms_ProtBoundConf>  (589) 
nan

>  <Num_Resolved_Atoms>  (589) 
nan

>  <Num_Not_Resolved_Atoms>  (589) 
nan

$$$$
CHEMBL3641815
     RDKit          3D

  0  0  0  0  0  0  0  0  0  0999 V3000
M  V30 BEGIN CTAB
M  V30 COUNTS 45 47 0 0 0
M  V30 BEGIN ATOM
M  V30 1 C 2.246108 -4.429721 3.240828 0
M  V30 2 O 1.792097 -3.148594 2.888259 0
M  V30 3 C 1.657461 -2.076557 2.464171 0
M  V30 4 C 2.510628 -1.250934 1.576688 0
M  V30 5 C 2.048497 0.002510 1.112669 0
M  V30 6 C 2.965950 0.913147 0.378101 0
M  V30 7 O 4.363196 1.397658 0.171289 0
M  V30 8 N 2.289468 1.628886 -0.518637 0
M  V30 9 C 1.040729 1.454250 -1.281526 0
M  V30 10 C 1.587606 1.733416 -2.685230 0
M  V30 11 O 2.088134 3.015218 -2.864949 0
M  V30 12 C 3.061341 3.462230 -1.954240 0
M  V30 13 C 2.418748 3.154568 -0.638318 0
M  V30 14 C 0.793305 0.564847 1.425696 0
M  V30 15 C -0.033750 -0.150896 2.257262 0
M  V30 16 C 0.467385 -1.360535 2.655470 0
M  V30 17 N -0.436587 -2.343094 3.248115 0
M  V30 18 C -1.650712 -2.167931 2.481964 0
M  V30 19 N -0.724374 -2.035819 1.387813 0
M  V30 20 C -1.309224 -1.849088 0.104240 0
M  V30 21 C -2.771606 -1.796634 -0.053994 0
M  V30 22 I -3.856676 -1.729640 -1.864336 0
M  V30 23 C -3.475326 -1.946529 1.082256 0
M  V30 24 O -4.835599 -1.995887 1.173731 0
M  V30 25 C -5.466929 -2.107229 2.392291 0
M  V30 26 N -2.896843 -2.127786 2.321753 0
M  V30 27 H 2.485585 -5.107533 2.509971 0
M  V30 28 H 2.932221 -4.457016 4.070632 0
M  V30 29 H 1.278509 -4.992298 3.645126 0
M  V30 30 H 3.446413 -1.509727 1.188816 0
M  V30 31 H 0.911442 0.362855 -1.297115 0
M  V30 32 H 0.248580 2.051233 -1.028685 0
M  V30 33 H 0.708677 1.648133 -3.321757 0
M  V30 34 H 2.306915 0.954845 -2.910423 0
M  V30 35 H 3.216730 4.504734 -2.083476 0
M  V30 36 H 4.015529 2.921492 -2.029632 0
M  V30 37 H 1.292676 3.531296 -0.689699 0
M  V30 38 H 2.808859 3.565239 0.284104 0
M  V30 39 H 0.516758 1.605530 1.166237 0
M  V30 40 H -0.988937 0.127286 2.447833 0
M  V30 41 H -0.831057 -3.067851 3.820420 0
M  V30 42 H -0.772266 -1.545517 -0.867696 0
M  V30 43 H -4.709965 -2.763230 2.995814 0
M  V30 44 H -6.297907 -2.807231 2.409451 0
M  V30 45 H -5.612953 -1.205102 2.908856 0
M  V30 END ATOM
M  V30 BEGIN BOND
M  V30 1 1 1 2
M  V30 2 1 2 3
M  V30 3 2 3 4
M  V30 4 1 4 5
M  V30 5 1 5 6
M  V30 6 2 6 7
M  V30 7 1 6 8
M  V30 8 1 8 9
M  V30 9 1 9 10
M  V30 10 1 10 11
M  V30 11 1 11 12
M  V30 12 1 12 13
M  V30 13 2 5 14
M  V30 14 1 14 15
M  V30 15 2 15 16
M  V30 16 1 16 17
M  V30 17 1 17 18
M  V30 18 2 18 19
M  V30 19 1 19 20
M  V30 20 2 20 21
M  V30 21 1 21 22
M  V30 22 1 21 23
M  V30 23 1 23 24
M  V30 24 1 24 25
M  V30 25 2 23 26
M  V30 26 1 16 3
M  V30 27 1 26 18
M  V30 28 1 13 8
M  V30 29 1 1 27
M  V30 30 1 1 28
M  V30 31 1 1 29
M  V30 32 1 4 30
M  V30 33 1 9 31
M  V30 34 1 9 32
M  V30 35 1 10 33
M  V30 36 1 10 34
M  V30 37 1 12 35
M  V30 38 1 12 36
M  V30 39 1 13 37
M  V30 40 1 13 38
M  V30 41 1 14 39
M  V30 42 1 15 40
M  V30 43 1 17 41
M  V30 44 1 20 42
M  V30 45 1 25 43
M  V30 46 1 25 44
M  V30 47 1 25 45
M  V30 END BOND
M  V30 END CTAB
M  END
>  <Dataset>  (590) 
ChEMBL_Kinases

>  <Ligand_Instance>  (590) 
nan

>  <PDB_ID>  (590) 
nan

>  <Standardized_SMILES>  (590) 
COc1cc(C(=O)N2CCOCC2)ccc1Nc1ncc(I)c(OC)n1

>  <Name>  (590) 
nan

>  <Pocket>  (590) 
nan

>  <ATP_Site>  (590) 
nan

>  <Peripheral>  (590) 
nan

>  <Num_H_Atoms_ProtBoundConf>  (590) 
nan

>  <Num_Resolved_Atoms>  (590) 
nan

>  <Num_Not_Resolved_Atoms>  (590) 
nan

$$$$
CHEMBL3641816
     RDKit          3D

  0  0  0  0  0  0  0  0  0  0999 V3000
M  V30 BEGIN CTAB
M  V30 COUNTS 56 59 0 0 0
M  V30 BEGIN ATOM
M  V30 1 C -0.884733 2.238662 -1.522958 0
M  V30 2 O -1.346844 1.338137 -0.538201 0
M  V30 3 C -0.495532 0.730652 0.393982 0
M  V30 4 C 0.848648 1.022083 0.350480 0
M  V30 5 C 1.646438 0.395119 1.293138 0
M  V30 6 C 3.081277 0.644450 1.307934 0
M  V30 7 O 3.892824 -0.146887 1.852520 0
M  V30 8 N 3.895761 1.685306 0.797806 0
M  V30 9 C 5.309353 1.537216 1.035070 0
M  V30 10 C 6.031756 1.957119 -0.232161 0
M  V30 11 O 5.828343 3.282722 -0.538468 0
M  V30 12 C 4.708652 3.819695 0.089508 0
M  V30 13 C 3.528304 2.880950 0.070718 0
M  V30 14 C 1.174706 -0.482927 2.248645 0
M  V30 15 C -0.180864 -0.753552 2.265001 0
M  V30 16 C -0.976500 -0.141970 1.340442 0
M  V30 17 N -2.361011 -0.389643 1.302384 0
M  V30 18 C -3.347821 -1.143912 1.975369 0
M  V30 19 N -4.230130 -0.828893 2.973680 0
M  V30 20 C -5.069522 -1.785732 3.423474 0
M  V30 21 C -5.050046 -3.056115 2.897869 0
M  V30 22 Cl -6.189000 -4.232756 3.555417 0
M  V30 23 C -4.170559 -3.398196 1.891853 0
M  V30 24 N -4.149217 -4.715058 1.349267 0
M  V30 25 C -3.171332 -4.886579 0.322630 0
M  V30 26 C -3.327145 -4.038040 -0.893750 0
M  V30 27 C -2.194356 -4.316966 -1.895499 0
M  V30 28 C -0.790101 -4.077558 -1.448375 0
M  V30 29 C -1.443489 -3.178119 -2.469214 0
M  V30 30 N -3.399987 -2.382702 1.534168 0
M  V30 31 H -1.758687 2.501750 -2.146250 0
M  V30 32 H -0.090278 1.709808 -2.091421 0
M  V30 33 H -0.475277 3.111247 -0.962212 0
M  V30 34 H 1.214021 1.698595 -0.386793 0
M  V30 35 H 5.596729 2.244122 1.832438 0
M  V30 36 H 5.591022 0.504309 1.232861 0
M  V30 37 H 5.814415 1.277653 -1.071314 0
M  V30 38 H 7.123705 1.823861 -0.012356 0
M  V30 39 H 4.973267 4.051417 1.138993 0
M  V30 40 H 4.417730 4.797459 -0.356711 0
M  V30 41 H 3.334022 2.608977 -1.008236 0
M  V30 42 H 2.669144 3.412800 0.522762 0
M  V30 43 H 1.852138 -0.943991 2.963407 0
M  V30 44 H -0.628683 -1.435394 2.987807 0
M  V30 45 H -3.019952 0.059665 0.602987 0
M  V30 46 H -5.733231 -1.430444 4.222031 0
M  V30 47 H -4.819637 -5.414942 1.728871 0
M  V30 48 H -3.102333 -5.975386 0.077769 0
M  V30 49 H -2.160335 -4.640329 0.763183 0
M  V30 50 H -4.262526 -4.390973 -1.422488 0
M  V30 51 H -3.469928 -2.974564 -0.735024 0
M  V30 52 H -2.348920 -5.199652 -2.535213 0
M  V30 53 H -0.581660 -3.734982 -0.428333 0
M  V30 54 H 0.027866 -4.712064 -1.873792 0
M  V30 55 H -1.083725 -3.214847 -3.521619 0
M  V30 56 H -1.623259 -2.116468 -2.131230 0
M  V30 END ATOM
M  V30 BEGIN BOND
M  V30 1 1 1 2
M  V30 2 1 2 3
M  V30 3 2 3 4
M  V30 4 1 4 5
M  V30 5 1 5 6
M  V30 6 2 6 7
M  V30 7 1 6 8
M  V30 8 1 8 9
M  V30 9 1 9 10
M  V30 10 1 10 11
M  V30 11 1 11 12
M  V30 12 1 12 13
M  V30 13 2 5 14
M  V30 14 1 14 15
M  V30 15 2 15 16
M  V30 16 1 16 17
M  V30 17 1 17 18
M  V30 18 2 18 19
M  V30 19 1 19 20
M  V30 20 2 20 21
M  V30 21 1 21 22
M  V30 22 1 21 23
M  V30 23 1 23 24
M  V30 24 1 24 25
M  V30 25 1 25 26
M  V30 26 1 26 27
M  V30 27 1 27 28
M  V30 28 1 28 29
M  V30 29 2 23 30
M  V30 30 1 16 3
M  V30 31 1 30 18
M  V30 32 1 13 8
M  V30 33 1 29 27
M  V30 34 1 1 31
M  V30 35 1 1 32
M  V30 36 1 1 33
M  V30 37 1 4 34
M  V30 38 1 9 35
M  V30 39 1 9 36
M  V30 40 1 10 37
M  V30 41 1 10 38
M  V30 42 1 12 39
M  V30 43 1 12 40
M  V30 44 1 13 41
M  V30 45 1 13 42
M  V30 46 1 14 43
M  V30 47 1 15 44
M  V30 48 1 17 45
M  V30 49 1 20 46
M  V30 50 1 24 47
M  V30 51 1 25 48
M  V30 52 1 25 49
M  V30 53 1 26 50
M  V30 54 1 26 51
M  V30 55 1 27 52
M  V30 56 1 28 53
M  V30 57 1 28 54
M  V30 58 1 29 55
M  V30 59 1 29 56
M  V30 END BOND
M  V30 END CTAB
M  END
>  <Dataset>  (591) 
ChEMBL_Kinases

>  <Ligand_Instance>  (591) 
nan

>  <PDB_ID>  (591) 
nan

>  <Standardized_SMILES>  (591) 
COc1cc(C(=O)N2CCOCC2)ccc1Nc1ncc(Cl)c(NCCC2CC2)n1

>  <Name>  (591) 
nan

>  <Pocket>  (591) 
nan

>  <ATP_Site>  (591) 
nan

>  <Peripheral>  (591) 
nan

>  <Num_H_Atoms_ProtBoundConf>  (591) 
nan

>  <Num_Resolved_Atoms>  (591) 
nan

>  <Num_Not_Resolved_Atoms>  (591) 
nan

$$$$
CHEMBL3641817
     RDKit          3D

  0  0  0  0  0  0  0  0  0  0999 V3000
M  V30 BEGIN CTAB
M  V30 COUNTS 53 55 0 0 0
M  V30 BEGIN ATOM
M  V30 1 C 0.498938 -2.584931 4.620534 0
M  V30 2 O 1.905837 -2.528795 4.486794 0
M  V30 3 C 2.126629 -1.392385 3.686032 0
M  V30 4 C 3.578073 -1.136057 3.414758 0
M  V30 5 N 4.244542 -2.204758 2.731793 0
M  V30 6 C 3.941526 -2.692501 1.437571 0
M  V30 7 N 2.989065 -2.227570 0.643920 0
M  V30 8 C 2.677113 -2.661136 -0.583151 0
M  V30 9 N 1.662841 -2.151805 -1.421269 0
M  V30 10 C 0.793285 -1.077834 -1.214823 0
M  V30 11 C 0.799317 -0.257331 -0.106265 0
M  V30 12 C -0.036791 0.812941 0.130745 0
M  V30 13 C -0.989311 1.109653 -0.835961 0
M  V30 14 C -1.925503 2.216984 -0.690452 0
M  V30 15 O -1.915515 3.317249 -1.334753 0
M  V30 16 N -2.910603 1.904233 0.316764 0
M  V30 17 C -3.045787 0.693087 1.129539 0
M  V30 18 C -4.371964 0.091978 0.707698 0
M  V30 19 O -5.340608 0.894242 1.341838 0
M  V30 20 C -5.296176 2.198013 0.918745 0
M  V30 21 C -3.971840 2.804146 0.688098 0
M  V30 22 C -1.047237 0.326910 -1.968122 0
M  V30 23 C -0.184186 -0.726739 -2.143991 0
M  V30 24 O -0.294956 -1.485095 -3.318139 0
M  V30 25 C -1.253838 -1.194953 -4.299942 0
M  V30 26 N 3.436114 -3.678061 -1.018769 0
M  V30 27 C 4.427890 -4.257695 -0.350743 0
M  V30 28 C 4.662290 -3.734717 0.897204 0
M  V30 29 Cl 5.965690 -4.442028 1.860776 0
M  V30 30 H 0.189206 -1.633636 5.109096 0
M  V30 31 H 0.069508 -2.606778 3.582626 0
M  V30 32 H 0.156522 -3.455776 5.190684 0
M  V30 33 H 1.622981 -1.635593 2.719785 0
M  V30 34 H 1.673322 -0.536083 4.193995 0
M  V30 35 H 4.080021 -0.833283 4.348205 0
M  V30 36 H 3.614367 -0.241771 2.739285 0
M  V30 37 H 5.027691 -2.657337 3.256638 0
M  V30 38 H 1.526305 -2.646770 -2.354417 0
M  V30 39 H 1.504146 -0.418551 0.678345 0
M  V30 40 H 0.009192 1.422948 1.014344 0
M  V30 41 H -2.206151 -0.007780 0.998584 0
M  V30 42 H -3.127850 0.930578 2.208467 0
M  V30 43 H -4.566093 0.207346 -0.382727 0
M  V30 44 H -4.488691 -0.946072 1.030256 0
M  V30 45 H -5.947628 2.271993 0.001561 0
M  V30 46 H -5.833962 2.797164 1.695447 0
M  V30 47 H -3.610630 3.377243 1.592547 0
M  V30 48 H -4.043971 3.577969 -0.105918 0
M  V30 49 H -1.773964 0.537663 -2.726193 0
M  V30 50 H -1.161790 -0.124154 -4.560386 0
M  V30 51 H -2.269398 -1.437107 -3.943644 0
M  V30 52 H -0.982690 -1.820510 -5.191053 0
M  V30 53 H 5.000792 -5.070732 -0.754352 0
M  V30 END ATOM
M  V30 BEGIN BOND
M  V30 1 1 1 2
M  V30 2 1 2 3
M  V30 3 1 3 4
M  V30 4 1 4 5
M  V30 5 1 5 6
M  V30 6 2 6 7
M  V30 7 1 7 8
M  V30 8 1 8 9
M  V30 9 1 9 10
M  V30 10 2 10 11
M  V30 11 1 11 12
M  V30 12 2 12 13
M  V30 13 1 13 14
M  V30 14 2 14 15
M  V30 15 1 14 16
M  V30 16 1 16 17
M  V30 17 1 17 18
M  V30 18 1 18 19
M  V30 19 1 19 20
M  V30 20 1 20 21
M  V30 21 1 13 22
M  V30 22 2 22 23
M  V30 23 1 23 24
M  V30 24 1 24 25
M  V30 25 2 8 26
M  V30 26 1 26 27
M  V30 27 2 27 28
M  V30 28 1 28 29
M  V30 29 1 28 6
M  V30 30 1 23 10
M  V30 31 1 21 16
M  V30 32 1 1 30
M  V30 33 1 1 31
M  V30 34 1 1 32
M  V30 35 1 3 33
M  V30 36 1 3 34
M  V30 37 1 4 35
M  V30 38 1 4 36
M  V30 39 1 5 37
M  V30 40 1 9 38
M  V30 41 1 11 39
M  V30 42 1 12 40
M  V30 43 1 17 41
M  V30 44 1 17 42
M  V30 45 1 18 43
M  V30 46 1 18 44
M  V30 47 1 20 45
M  V30 48 1 20 46
M  V30 49 1 21 47
M  V30 50 1 21 48
M  V30 51 1 22 49
M  V30 52 1 25 50
M  V30 53 1 25 51
M  V30 54 1 25 52
M  V30 55 1 27 53
M  V30 END BOND
M  V30 END CTAB
M  END
>  <Dataset>  (592) 
ChEMBL_Kinases

>  <Ligand_Instance>  (592) 
nan

>  <PDB_ID>  (592) 
nan

>  <Standardized_SMILES>  (592) 
COCCNc1nc(Nc2ccc(C(=O)N3CCOCC3)cc2OC)ncc1Cl

>  <Name>  (592) 
nan

>  <Pocket>  (592) 
nan

>  <ATP_Site>  (592) 
nan

>  <Peripheral>  (592) 
nan

>  <Num_H_Atoms_ProtBoundConf>  (592) 
nan

>  <Num_Resolved_Atoms>  (592) 
nan

>  <Num_Not_Resolved_Atoms>  (592) 
nan

$$$$
CHEMBL3641818
     RDKit          3D

  0  0  0  0  0  0  0  0  0  0999 V3000
M  V30 BEGIN CTAB
M  V30 COUNTS 56 58 0 0 0
M  V30 BEGIN ATOM
M  V30 1 C 1.431011 0.140333 3.684263 0
M  V30 2 O 1.925636 -1.119074 3.897459 0
M  V30 3 C 2.769624 -1.553720 2.910440 0
M  V30 4 C 3.947338 -0.626235 2.771282 0
M  V30 5 N 4.898498 -1.080159 1.736542 0
M  V30 6 C 4.586342 -1.428045 0.396629 0
M  V30 7 N 3.353159 -1.440325 -0.101154 0
M  V30 8 C 3.004954 -1.802563 -1.345396 0
M  V30 9 N 1.616383 -1.711307 -1.577417 0
M  V30 10 C 0.638047 -0.773581 -1.191599 0
M  V30 11 C 0.933849 0.409950 -0.574589 0
M  V30 12 C -0.071812 1.311626 -0.243864 0
M  V30 13 C -1.372422 1.008375 -0.539745 0
M  V30 14 C -2.615024 1.776686 -0.293987 0
M  V30 15 O -2.996883 2.698630 -1.056711 0
M  V30 16 N -3.269655 1.300667 0.909552 0
M  V30 17 C -2.802707 0.248585 1.773848 0
M  V30 18 C -3.957449 -0.453978 2.409058 0
M  V30 19 O -5.058718 -0.485620 1.592172 0
M  V30 20 C -5.610913 0.774654 1.375911 0
M  V30 21 C -4.534933 1.846237 1.374051 0
M  V30 22 C -1.702398 -0.199252 -1.173454 0
M  V30 23 C -0.663083 -1.071661 -1.485980 0
M  V30 24 O -0.948127 -2.281175 -2.112798 0
M  V30 25 C -2.233083 -2.696110 -2.454418 0
M  V30 26 C -2.251085 -4.067227 -3.103541 0
M  V30 27 F -1.486611 -3.985536 -4.252234 0
M  V30 28 F -1.772436 -5.038991 -2.245839 0
M  V30 29 F -3.516437 -4.473531 -3.473821 0
M  V30 30 N 3.995159 -2.185107 -2.162917 0
M  V30 31 C 5.293093 -2.199539 -1.729861 0
M  V30 32 C 5.632914 -1.826801 -0.448712 0
M  V30 33 Cl 7.311759 -1.857456 0.085899 0
M  V30 34 H 0.720297 0.408558 4.539249 0
M  V30 35 H 2.236601 0.942444 3.682173 0
M  V30 36 H 0.875297 0.244214 2.737258 0
M  V30 37 H 3.064528 -2.617256 3.037007 0
M  V30 38 H 2.144977 -1.531620 1.959406 0
M  V30 39 H 4.450043 -0.425476 3.714005 0
M  V30 40 H 3.539490 0.359446 2.391496 0
M  V30 41 H 5.900590 -1.138994 2.057923 0
M  V30 42 H 1.406339 -2.552709 -2.145571 0
M  V30 43 H 1.941129 0.693315 -0.322179 0
M  V30 44 H 0.039608 2.271431 0.239475 0
M  V30 45 H -2.181099 0.693476 2.604478 0
M  V30 46 H -2.183520 -0.500304 1.211737 0
M  V30 47 H -3.651338 -1.530194 2.567169 0
M  V30 48 H -4.157606 -0.083188 3.436256 0
M  V30 49 H -6.159517 0.720362 0.413660 0
M  V30 50 H -6.341244 0.963040 2.179441 0
M  V30 51 H -4.386120 2.318738 2.346930 0
M  V30 52 H -4.848216 2.609230 0.633897 0
M  V30 53 H -2.699930 -0.538064 -1.453791 0
M  V30 54 H -2.721587 -1.928786 -3.065913 0
M  V30 55 H -2.873792 -2.819539 -1.537302 0
M  V30 56 H 6.034588 -2.522738 -2.453028 0
M  V30 END ATOM
M  V30 BEGIN BOND
M  V30 1 1 1 2
M  V30 2 1 2 3
M  V30 3 1 3 4
M  V30 4 1 4 5
M  V30 5 1 5 6
M  V30 6 2 6 7
M  V30 7 1 7 8
M  V30 8 1 8 9
M  V30 9 1 9 10
M  V30 10 2 10 11
M  V30 11 1 11 12
M  V30 12 2 12 13
M  V30 13 1 13 14
M  V30 14 2 14 15
M  V30 15 1 14 16
M  V30 16 1 16 17
M  V30 17 1 17 18
M  V30 18 1 18 19
M  V30 19 1 19 20
M  V30 20 1 20 21
M  V30 21 1 13 22
M  V30 22 2 22 23
M  V30 23 1 23 24
M  V30 24 1 24 25
M  V30 25 1 25 26
M  V30 26 1 26 27
M  V30 27 1 26 28
M  V30 28 1 26 29
M  V30 29 2 8 30
M  V30 30 1 30 31
M  V30 31 2 31 32
M  V30 32 1 32 33
M  V30 33 1 32 6
M  V30 34 1 23 10
M  V30 35 1 21 16
M  V30 36 1 1 34
M  V30 37 1 1 35
M  V30 38 1 1 36
M  V30 39 1 3 37
M  V30 40 1 3 38
M  V30 41 1 4 39
M  V30 42 1 4 40
M  V30 43 1 5 41
M  V30 44 1 9 42
M  V30 45 1 11 43
M  V30 46 1 12 44
M  V30 47 1 17 45
M  V30 48 1 17 46
M  V30 49 1 18 47
M  V30 50 1 18 48
M  V30 51 1 20 49
M  V30 52 1 20 50
M  V30 53 1 21 51
M  V30 54 1 21 52
M  V30 55 1 22 53
M  V30 56 1 25 54
M  V30 57 1 25 55
M  V30 58 1 31 56
M  V30 END BOND
M  V30 END CTAB
M  END
>  <Dataset>  (593) 
ChEMBL_Kinases

>  <Ligand_Instance>  (593) 
nan

>  <PDB_ID>  (593) 
nan

>  <Standardized_SMILES>  (593) 
COCCNc1nc(Nc2ccc(C(=O)N3CCOCC3)cc2OCC(F)(F)F)ncc1Cl

>  <Name>  (593) 
nan

>  <Pocket>  (593) 
nan

>  <ATP_Site>  (593) 
nan

>  <Peripheral>  (593) 
nan

>  <Num_H_Atoms_ProtBoundConf>  (593) 
nan

>  <Num_Resolved_Atoms>  (593) 
nan

>  <Num_Not_Resolved_Atoms>  (593) 
nan

$$$$
CHEMBL3641819
     RDKit          3D

  0  0  0  0  0  0  0  0  0  0999 V3000
M  V30 BEGIN CTAB
M  V30 COUNTS 42 44 0 0 0
M  V30 BEGIN ATOM
M  V30 1 C -0.540717 -7.270836 2.744459 0
M  V30 2 N 0.175479 -7.348739 1.462602 0
M  V30 3 C 0.360446 -6.163719 0.689670 0
M  V30 4 N -0.123904 -5.014916 1.152881 0
M  V30 5 C -0.025953 -3.833204 0.545306 0
M  V30 6 N -0.607219 -2.690864 1.141863 0
M  V30 7 C -0.582609 -1.324358 0.773991 0
M  V30 8 C 0.188047 -0.880306 -0.276483 0
M  V30 9 C 0.284218 0.433726 -0.680499 0
M  V30 10 C -0.432712 1.394455 -0.003052 0
M  V30 11 C -0.563354 2.837674 -0.139822 0
M  V30 12 O -1.559966 3.519634 -0.550734 0
M  V30 13 N 0.544214 3.647839 0.224494 0
M  V30 14 C 1.799387 3.050899 0.698489 0
M  V30 15 C 2.909568 4.071307 0.745210 0
M  V30 16 O 2.585343 5.036552 1.695265 0
M  V30 17 C 1.262028 5.415489 1.629552 0
M  V30 18 C 0.673157 5.105750 0.244877 0
M  V30 19 C -1.224845 0.959898 1.071262 0
M  V30 20 C -1.316737 -0.355060 1.470780 0
M  V30 21 Cl -2.320179 -0.889034 2.827510 0
M  V30 22 N 0.614704 -3.793975 -0.631092 0
M  V30 23 C 1.132723 -4.903749 -1.168378 0
M  V30 24 C 1.011600 -6.106539 -0.513928 0
M  V30 25 Cl 1.667263 -7.600282 -1.159967 0
M  V30 26 H -1.474365 -6.670144 2.557151 0
M  V30 27 H -0.755266 -8.268468 3.149085 0
M  V30 28 H 0.103276 -6.648707 3.399732 0
M  V30 29 H 0.537167 -8.268391 1.135126 0
M  V30 30 H -1.172926 -2.864890 2.029558 0
M  V30 31 H 0.799680 -1.506937 -0.895050 0
M  V30 32 H 0.852542 0.869588 -1.479033 0
M  V30 33 H 1.606231 2.730629 1.742764 0
M  V30 34 H 2.092816 2.165602 0.096744 0
M  V30 35 H 2.999329 4.530780 -0.256593 0
M  V30 36 H 3.833510 3.540468 1.060587 0
M  V30 37 H 1.204125 6.505012 1.805865 0
M  V30 38 H 0.629519 4.920612 2.387164 0
M  V30 39 H -0.340237 5.603187 0.282192 0
M  V30 40 H 1.246782 5.523045 -0.572949 0
M  V30 41 H -1.851908 1.595780 1.710641 0
M  V30 42 H 1.644635 -4.847351 -2.115527 0
M  V30 END ATOM
M  V30 BEGIN BOND
M  V30 1 1 1 2
M  V30 2 1 2 3
M  V30 3 2 3 4
M  V30 4 1 4 5
M  V30 5 1 5 6
M  V30 6 1 6 7
M  V30 7 2 7 8
M  V30 8 1 8 9
M  V30 9 2 9 10
M  V30 10 1 10 11
M  V30 11 2 11 12
M  V30 12 1 11 13
M  V30 13 1 13 14
M  V30 14 1 14 15
M  V30 15 1 15 16
M  V30 16 1 16 17
M  V30 17 1 17 18
M  V30 18 1 10 19
M  V30 19 2 19 20
M  V30 20 1 20 21
M  V30 21 2 5 22
M  V30 22 1 22 23
M  V30 23 2 23 24
M  V30 24 1 24 25
M  V30 25 1 24 3
M  V30 26 1 20 7
M  V30 27 1 18 13
M  V30 28 1 1 26
M  V30 29 1 1 27
M  V30 30 1 1 28
M  V30 31 1 2 29
M  V30 32 1 6 30
M  V30 33 1 8 31
M  V30 34 1 9 32
M  V30 35 1 14 33
M  V30 36 1 14 34
M  V30 37 1 15 35
M  V30 38 1 15 36
M  V30 39 1 17 37
M  V30 40 1 17 38
M  V30 41 1 18 39
M  V30 42 1 18 40
M  V30 43 1 19 41
M  V30 44 1 23 42
M  V30 END BOND
M  V30 END CTAB
M  END
>  <Dataset>  (594) 
ChEMBL_Kinases

>  <Ligand_Instance>  (594) 
nan

>  <PDB_ID>  (594) 
nan

>  <Standardized_SMILES>  (594) 
CNc1nc(Nc2ccc(C(=O)N3CCOCC3)cc2Cl)ncc1Cl

>  <Name>  (594) 
nan

>  <Pocket>  (594) 
nan

>  <ATP_Site>  (594) 
nan

>  <Peripheral>  (594) 
nan

>  <Num_H_Atoms_ProtBoundConf>  (594) 
nan

>  <Num_Resolved_Atoms>  (594) 
nan

>  <Num_Not_Resolved_Atoms>  (594) 
nan

$$$$
CHEMBL3641820
     RDKit          3D

  0  0  0  0  0  0  0  0  0  0999 V3000
M  V30 BEGIN CTAB
M  V30 COUNTS 50 52 0 0 0
M  V30 BEGIN ATOM
M  V30 1 C 0.317909 -4.181468 2.600411 0
M  V30 2 N 0.207073 -5.002646 1.428661 0
M  V30 3 C -0.625131 -4.461650 0.395953 0
M  V30 4 N -1.264866 -3.291048 0.493878 0
M  V30 5 C -2.055817 -2.736751 -0.441571 0
M  V30 6 N -2.530438 -1.500130 0.086855 0
M  V30 7 C -1.727813 -0.324350 0.086643 0
M  V30 8 C -0.462373 -0.376888 -0.453161 0
M  V30 9 C 0.374304 0.720202 -0.470842 0
M  V30 10 C -0.075974 1.927110 0.077973 0
M  V30 11 C 0.855943 3.043751 0.036222 0
M  V30 12 O 0.714139 4.156638 -0.493291 0
M  V30 13 N 2.127460 2.890642 0.675728 0
M  V30 14 C 3.086550 4.004330 0.652638 0
M  V30 15 C 3.420236 4.412659 2.081951 0
M  V30 16 O 3.122255 3.408017 2.982806 0
M  V30 17 C 3.633584 2.198571 2.460343 0
M  V30 18 C 2.671443 1.739376 1.388137 0
M  V30 19 C -1.349654 1.980203 0.619986 0
M  V30 20 C -2.184629 0.867886 0.632645 0
M  V30 21 O -3.435146 0.830807 1.141090 0
M  V30 22 C -4.211780 1.799697 1.745846 0
M  V30 23 N -2.214162 -3.432123 -1.581324 0
M  V30 24 C -1.609819 -4.617957 -1.766116 0
M  V30 25 C -0.805975 -5.162357 -0.794514 0
M  V30 26 O -0.154469 -6.373811 -0.909479 0
M  V30 27 C -0.210420 -7.220243 -2.022534 0
M  V30 28 H 0.935813 -4.663324 3.367708 0
M  V30 29 H 0.792768 -3.201998 2.377028 0
M  V30 30 H -0.678036 -3.975687 3.059409 0
M  V30 31 H 0.677514 -5.921119 1.299693 0
M  V30 32 H -3.499263 -1.507645 0.473932 0
M  V30 33 H -0.109969 -1.326525 -0.886349 0
M  V30 34 H 1.351945 0.635374 -0.906084 0
M  V30 35 H 2.755469 4.848964 0.047531 0
M  V30 36 H 4.048639 3.630800 0.208609 0
M  V30 37 H 4.515752 4.600863 2.163430 0
M  V30 38 H 2.833322 5.318778 2.304156 0
M  V30 39 H 4.674238 2.342182 2.098505 0
M  V30 40 H 3.617443 1.448621 3.283649 0
M  V30 41 H 1.875953 1.162235 1.901096 0
M  V30 42 H 3.150104 1.030744 0.677817 0
M  V30 43 H -1.701166 2.904555 1.037537 0
M  V30 44 H -4.489885 1.483163 2.777578 0
M  V30 45 H -3.715703 2.771092 1.807580 0
M  V30 46 H -5.180786 1.986803 1.216463 0
M  V30 47 H -1.794030 -5.104291 -2.708227 0
M  V30 48 H 0.765089 -7.683238 -2.286914 0
M  V30 49 H -0.565944 -6.682358 -2.936162 0
M  V30 50 H -0.970175 -8.037891 -1.863654 0
M  V30 END ATOM
M  V30 BEGIN BOND
M  V30 1 1 1 2
M  V30 2 1 2 3
M  V30 3 2 3 4
M  V30 4 1 4 5
M  V30 5 1 5 6
M  V30 6 1 6 7
M  V30 7 2 7 8
M  V30 8 1 8 9
M  V30 9 2 9 10
M  V30 10 1 10 11
M  V30 11 2 11 12
M  V30 12 1 11 13
M  V30 13 1 13 14
M  V30 14 1 14 15
M  V30 15 1 15 16
M  V30 16 1 16 17
M  V30 17 1 17 18
M  V30 18 1 10 19
M  V30 19 2 19 20
M  V30 20 1 20 21
M  V30 21 1 21 22
M  V30 22 2 5 23
M  V30 23 1 23 24
M  V30 24 2 24 25
M  V30 25 1 25 26
M  V30 26 1 26 27
M  V30 27 1 25 3
M  V30 28 1 20 7
M  V30 29 1 18 13
M  V30 30 1 1 28
M  V30 31 1 1 29
M  V30 32 1 1 30
M  V30 33 1 2 31
M  V30 34 1 6 32
M  V30 35 1 8 33
M  V30 36 1 9 34
M  V30 37 1 14 35
M  V30 38 1 14 36
M  V30 39 1 15 37
M  V30 40 1 15 38
M  V30 41 1 17 39
M  V30 42 1 17 40
M  V30 43 1 18 41
M  V30 44 1 18 42
M  V30 45 1 19 43
M  V30 46 1 22 44
M  V30 47 1 22 45
M  V30 48 1 22 46
M  V30 49 1 24 47
M  V30 50 1 27 48
M  V30 51 1 27 49
M  V30 52 1 27 50
M  V30 END BOND
M  V30 END CTAB
M  END
>  <Dataset>  (595) 
ChEMBL_Kinases

>  <Ligand_Instance>  (595) 
nan

>  <PDB_ID>  (595) 
nan

>  <Standardized_SMILES>  (595) 
CNc1nc(Nc2ccc(C(=O)N3CCOCC3)cc2OC)ncc1OC

>  <Name>  (595) 
nan

>  <Pocket>  (595) 
nan

>  <ATP_Site>  (595) 
nan

>  <Peripheral>  (595) 
nan

>  <Num_H_Atoms_ProtBoundConf>  (595) 
nan

>  <Num_Resolved_Atoms>  (595) 
nan

>  <Num_Not_Resolved_Atoms>  (595) 
nan

$$$$
CHEMBL3641830
     RDKit          3D

  0  0  0  0  0  0  0  0  0  0999 V3000
M  V30 BEGIN CTAB
M  V30 COUNTS 56 58 0 0 0
M  V30 BEGIN ATOM
M  V30 1 C 1.808564 -1.251878 6.078074 0
M  V30 2 N 2.655817 -2.432033 6.237012 0
M  V30 3 C 3.220582 -3.162165 5.166554 0
M  V30 4 N 3.027710 -2.835878 3.884419 0
M  V30 5 C 3.534504 -3.487188 2.834817 0
M  V30 6 N 3.339789 -3.159225 1.475415 0
M  V30 7 C 2.577765 -2.107958 0.911393 0
M  V30 8 C 1.851205 -1.184819 1.629651 0
M  V30 9 C 1.100122 -0.154835 1.110881 0
M  V30 10 O 0.387392 0.748464 1.851076 0
M  V30 11 C 0.349839 0.713347 3.260494 0
M  V30 12 C 1.055634 -0.013227 -0.259968 0
M  V30 13 C 0.317205 1.012086 -0.985134 0
M  V30 14 O 1.049884 2.015739 -1.148476 0
M  V30 15 N -1.040624 0.894657 -1.443846 0
M  V30 16 C -1.827390 -0.303932 -1.215367 0
M  V30 17 C -2.699306 -0.450060 -2.471653 0
M  V30 18 C -3.670494 0.696541 -2.460868 0
M  V30 19 N -4.494233 0.778710 -3.623583 0
M  V30 20 C -5.323931 -0.385319 -3.829801 0
M  V30 21 C -3.835441 1.215046 -4.826242 0
M  V30 22 C -3.044409 2.031996 -2.186706 0
M  V30 23 C -1.550418 2.034969 -2.136610 0
M  V30 24 C 1.762384 -0.906757 -1.034480 0
M  V30 25 C 2.498355 -1.919592 -0.468544 0
M  V30 26 Cl 3.375006 -3.021007 -1.526195 0
M  V30 27 N 4.294321 -4.550468 3.126324 0
M  V30 28 C 4.553051 -4.965931 4.371123 0
M  V30 29 C 4.006887 -4.259952 5.411888 0
M  V30 30 Cl 4.358475 -4.821409 7.026643 0
M  V30 31 H 0.748830 -1.577760 6.107330 0
M  V30 32 H 1.951139 -0.548747 6.932834 0
M  V30 33 H 2.018368 -0.772937 5.097992 0
M  V30 34 H 2.830588 -2.722703 7.215447 0
M  V30 35 H 3.820991 -3.770041 0.749751 0
M  V30 36 H 1.833937 -1.227718 2.700570 0
M  V30 37 H 0.172281 -0.329653 3.633248 0
M  V30 38 H -0.534100 1.309432 3.578149 0
M  V30 39 H 1.303771 1.059869 3.703020 0
M  V30 40 H -1.173067 -1.175574 -1.074381 0
M  V30 41 H -2.405885 -0.164976 -0.304669 0
M  V30 42 H -3.210290 -1.424370 -2.335470 0
M  V30 43 H -2.009505 -0.471409 -3.312065 0
M  V30 44 H -4.372131 0.479288 -1.600019 0
M  V30 45 H -4.993844 -1.010446 -4.697840 0
M  V30 46 H -5.439790 -0.996895 -2.919349 0
M  V30 47 H -6.335320 -0.025779 -4.112875 0
M  V30 48 H -3.837847 0.443712 -5.623815 0
M  V30 49 H -4.417821 2.072135 -5.227151 0
M  V30 50 H -2.815174 1.574195 -4.603888 0
M  V30 51 H -3.451762 2.492657 -1.253619 0
M  V30 52 H -3.322609 2.745870 -3.017990 0
M  V30 53 H -1.258671 2.929264 -1.515651 0
M  V30 54 H -1.057919 2.215332 -3.113920 0
M  V30 55 H 1.755689 -0.832190 -2.127339 0
M  V30 56 H 5.185403 -5.844345 4.486255 0
M  V30 END ATOM
M  V30 BEGIN BOND
M  V30 1 1 1 2
M  V30 2 1 2 3
M  V30 3 2 3 4
M  V30 4 1 4 5
M  V30 5 1 5 6
M  V30 6 1 6 7
M  V30 7 2 7 8
M  V30 8 1 8 9
M  V30 9 1 9 10
M  V30 10 1 10 11
M  V30 11 2 9 12
M  V30 12 1 12 13
M  V30 13 2 13 14
M  V30 14 1 13 15
M  V30 15 1 15 16
M  V30 16 1 16 17
M  V30 17 1 17 18
M  V30 18 1 18 19
M  V30 19 1 19 20
M  V30 20 1 19 21
M  V30 21 1 18 22
M  V30 22 1 22 23
M  V30 23 1 12 24
M  V30 24 2 24 25
M  V30 25 1 25 26
M  V30 26 2 5 27
M  V30 27 1 27 28
M  V30 28 2 28 29
M  V30 29 1 29 30
M  V30 30 1 29 3
M  V30 31 1 25 7
M  V30 32 1 23 15
M  V30 33 1 1 31
M  V30 34 1 1 32
M  V30 35 1 1 33
M  V30 36 1 2 34
M  V30 37 1 6 35
M  V30 38 1 8 36
M  V30 39 1 11 37
M  V30 40 1 11 38
M  V30 41 1 11 39
M  V30 42 1 16 40
M  V30 43 1 16 41
M  V30 44 1 17 42
M  V30 45 1 17 43
M  V30 46 1 18 44
M  V30 47 1 20 45
M  V30 48 1 20 46
M  V30 49 1 20 47
M  V30 50 1 21 48
M  V30 51 1 21 49
M  V30 52 1 21 50
M  V30 53 1 22 51
M  V30 54 1 22 52
M  V30 55 1 23 53
M  V30 56 1 23 54
M  V30 57 1 24 55
M  V30 58 1 28 56
M  V30 END BOND
M  V30 END CTAB
M  END
>  <Dataset>  (596) 
ChEMBL_Kinases

>  <Ligand_Instance>  (596) 
nan

>  <PDB_ID>  (596) 
nan

>  <Standardized_SMILES>  (596) 
CNc1nc(Nc2cc(OC)c(C(=O)N3CCC(N(C)C)CC3)cc2Cl)ncc1Cl

>  <Name>  (596) 
nan

>  <Pocket>  (596) 
nan

>  <ATP_Site>  (596) 
nan

>  <Peripheral>  (596) 
nan

>  <Num_H_Atoms_ProtBoundConf>  (596) 
nan

>  <Num_Resolved_Atoms>  (596) 
nan

>  <Num_Not_Resolved_Atoms>  (596) 
nan

$$$$
CHEMBL3641822
     RDKit          3D

  0  0  0  0  0  0  0  0  0  0999 V3000
M  V30 BEGIN CTAB
M  V30 COUNTS 41 42 0 0 0
M  V30 BEGIN ATOM
M  V30 1 C -1.799377 -5.153094 -0.637124 0
M  V30 2 N -1.100209 -5.333260 0.621096 0
M  V30 3 C 0.038191 -4.662818 1.110317 0
M  V30 4 N 0.564176 -3.706221 0.282581 0
M  V30 5 C 1.671577 -3.026688 0.722330 0
M  V30 6 N 2.442955 -2.009888 0.110361 0
M  V30 7 C 1.931902 -0.678396 0.000264 0
M  V30 8 C 0.617119 -0.446996 0.431748 0
M  V30 9 C 0.079484 0.846655 0.310252 0
M  V30 10 O -1.207483 1.131566 0.715129 0
M  V30 11 C -2.058732 0.165309 1.270023 0
M  V30 12 C 0.836044 1.901977 -0.230871 0
M  V30 13 C 0.144319 3.217308 -0.293980 0
M  V30 14 O -0.231288 2.982816 -1.459215 0
M  V30 15 N 0.441715 3.714194 1.000936 0
M  V30 16 C 1.200192 3.239775 2.174764 0
M  V30 17 C -0.191710 5.032620 1.184048 0
M  V30 18 C 2.120188 1.625598 -0.638258 0
M  V30 19 C 2.681150 0.370248 -0.536503 0
M  V30 20 Cl 4.307876 0.064800 -1.063547 0
M  V30 21 N 2.213185 -3.293491 1.918136 0
M  V30 22 C 1.714089 -4.238325 2.765435 0
M  V30 23 C 0.590705 -4.955451 2.364534 0
M  V30 24 Cl -0.133532 -6.193013 3.369401 0
M  V30 25 H -1.109099 -5.090470 -1.486902 0
M  V30 26 H -2.409459 -4.224086 -0.652911 0
M  V30 27 H -2.480456 -6.014205 -0.817785 0
M  V30 28 H -1.499713 -6.074337 1.271277 0
M  V30 29 H 3.401184 -2.206906 -0.274342 0
M  V30 30 H 0.075270 -1.280172 0.842946 0
M  V30 31 H -2.096774 0.187635 2.384327 0
M  V30 32 H -1.854242 -0.874526 0.967138 0
M  V30 33 H -3.125460 0.366762 0.968758 0
M  V30 34 H 1.947659 2.487713 1.830221 0
M  V30 35 H 0.486536 2.807361 2.897575 0
M  V30 36 H 1.684430 4.124687 2.616095 0
M  V30 37 H -1.182985 5.095653 0.688551 0
M  V30 38 H -0.413104 5.174613 2.268969 0
M  V30 39 H 0.479020 5.854638 0.873069 0
M  V30 40 H 2.676418 2.477516 -1.052570 0
M  V30 41 H 2.101073 -4.503152 3.738807 0
M  V30 END ATOM
M  V30 BEGIN BOND
M  V30 1 1 1 2
M  V30 2 1 2 3
M  V30 3 2 3 4
M  V30 4 1 4 5
M  V30 5 1 5 6
M  V30 6 1 6 7
M  V30 7 2 7 8
M  V30 8 1 8 9
M  V30 9 1 9 10
M  V30 10 1 10 11
M  V30 11 2 9 12
M  V30 12 1 12 13
M  V30 13 2 13 14
M  V30 14 1 13 15
M  V30 15 1 15 16
M  V30 16 1 15 17
M  V30 17 1 12 18
M  V30 18 2 18 19
M  V30 19 1 19 20
M  V30 20 2 5 21
M  V30 21 1 21 22
M  V30 22 2 22 23
M  V30 23 1 23 24
M  V30 24 1 23 3
M  V30 25 1 19 7
M  V30 26 1 1 25
M  V30 27 1 1 26
M  V30 28 1 1 27
M  V30 29 1 2 28
M  V30 30 1 6 29
M  V30 31 1 8 30
M  V30 32 1 11 31
M  V30 33 1 11 32
M  V30 34 1 11 33
M  V30 35 1 16 34
M  V30 36 1 16 35
M  V30 37 1 16 36
M  V30 38 1 17 37
M  V30 39 1 17 38
M  V30 40 1 17 39
M  V30 41 1 18 40
M  V30 42 1 22 41
M  V30 END BOND
M  V30 END CTAB
M  END
>  <Dataset>  (597) 
ChEMBL_Kinases

>  <Ligand_Instance>  (597) 
nan

>  <PDB_ID>  (597) 
nan

>  <Standardized_SMILES>  (597) 
CNc1nc(Nc2cc(OC)c(C(=O)N(C)C)cc2Cl)ncc1Cl

>  <Name>  (597) 
nan

>  <Pocket>  (597) 
nan

>  <ATP_Site>  (597) 
nan

>  <Peripheral>  (597) 
nan

>  <Num_H_Atoms_ProtBoundConf>  (597) 
nan

>  <Num_Resolved_Atoms>  (597) 
nan

>  <Num_Not_Resolved_Atoms>  (597) 
nan

$$$$
CHEMBL3641823
     RDKit          3D

  0  0  0  0  0  0  0  0  0  0999 V3000
M  V30 BEGIN CTAB
M  V30 COUNTS 35 36 0 0 0
M  V30 BEGIN ATOM
M  V30 1 C -0.442529 -5.105125 0.812889 0
M  V30 2 N -1.256675 -4.534463 1.861554 0
M  V30 3 C -0.984243 -3.274667 2.466175 0
M  V30 4 N 0.091987 -2.608743 2.015325 0
M  V30 5 C 0.450675 -1.396955 2.516651 0
M  V30 6 N 1.579616 -0.645267 2.079723 0
M  V30 7 C 1.604515 0.310237 1.027987 0
M  V30 8 C 0.440117 0.567423 0.326580 0
M  V30 9 C 0.431885 1.495042 -0.707361 0
M  V30 10 O -0.700305 1.805388 -1.456355 0
M  V30 11 C -1.902208 1.105875 -1.107912 0
M  V30 12 C 1.611016 2.123536 -0.985117 0
M  V30 13 C 1.756707 3.127131 -2.048900 0
M  V30 14 N 0.688505 3.561337 -2.912190 0
M  V30 15 O 2.742424 3.785187 -2.429231 0
M  V30 16 C 2.777418 1.876444 -0.294159 0
M  V30 17 C 2.800061 0.960927 0.731501 0
M  V30 18 Cl 4.287832 0.646992 1.611495 0
M  V30 19 N -0.315618 -0.863054 3.501161 0
M  V30 20 C -1.405675 -1.504142 3.979804 0
M  V30 21 C -1.773905 -2.739109 3.471177 0
M  V30 22 Cl -3.165847 -3.619320 4.042002 0
M  V30 23 H -0.805502 -4.893203 -0.205776 0
M  V30 24 H 0.595952 -4.704102 0.864859 0
M  V30 25 H -0.475905 -6.201924 0.932075 0
M  V30 26 H -2.090225 -5.056425 2.206672 0
M  V30 27 H 2.446115 -0.860270 2.623410 0
M  V30 28 H -0.478638 0.054404 0.568969 0
M  V30 29 H -2.273303 1.397400 -0.107649 0
M  V30 30 H -1.753914 0.004719 -1.172860 0
M  V30 31 H -2.659945 1.377591 -1.881990 0
M  V30 32 H 0.350575 3.286944 -3.859413 0
M  V30 33 H -0.009106 4.321976 -2.695100 0
M  V30 34 H 3.728392 2.378180 -0.512252 0
M  V30 35 H -1.996086 -1.051416 4.765544 0
M  V30 END ATOM
M  V30 BEGIN BOND
M  V30 1 1 1 2
M  V30 2 1 2 3
M  V30 3 2 3 4
M  V30 4 1 4 5
M  V30 5 1 5 6
M  V30 6 1 6 7
M  V30 7 2 7 8
M  V30 8 1 8 9
M  V30 9 1 9 10
M  V30 10 1 10 11
M  V30 11 2 9 12
M  V30 12 1 12 13
M  V30 13 1 13 14
M  V30 14 2 13 15
M  V30 15 1 12 16
M  V30 16 2 16 17
M  V30 17 1 17 18
M  V30 18 2 5 19
M  V30 19 1 19 20
M  V30 20 2 20 21
M  V30 21 1 21 22
M  V30 22 1 21 3
M  V30 23 1 17 7
M  V30 24 1 1 23
M  V30 25 1 1 24
M  V30 26 1 1 25
M  V30 27 1 2 26
M  V30 28 1 6 27
M  V30 29 1 8 28
M  V30 30 1 11 29
M  V30 31 1 11 30
M  V30 32 1 11 31
M  V30 33 1 14 32
M  V30 34 1 14 33
M  V30 35 1 16 34
M  V30 36 1 20 35
M  V30 END BOND
M  V30 END CTAB
M  END
>  <Dataset>  (598) 
ChEMBL_Kinases

>  <Ligand_Instance>  (598) 
nan

>  <PDB_ID>  (598) 
nan

>  <Standardized_SMILES>  (598) 
CNc1nc(Nc2cc(OC)c(C(N)=O)cc2Cl)ncc1Cl

>  <Name>  (598) 
nan

>  <Pocket>  (598) 
nan

>  <ATP_Site>  (598) 
nan

>  <Peripheral>  (598) 
nan

>  <Num_H_Atoms_ProtBoundConf>  (598) 
nan

>  <Num_Resolved_Atoms>  (598) 
nan

>  <Num_Not_Resolved_Atoms>  (598) 
nan

$$$$
CHEMBL3641824
     RDKit          3D

  0  0  0  0  0  0  0  0  0  0999 V3000
M  V30 BEGIN CTAB
M  V30 COUNTS 42 43 0 0 0
M  V30 BEGIN ATOM
M  V30 1 C -3.818124 -6.048816 1.318871 0
M  V30 2 N -3.722758 -5.688166 -0.102931 0
M  V30 3 C -2.926190 -4.590268 -0.527776 0
M  V30 4 N -2.235234 -3.841799 0.324221 0
M  V30 5 C -1.467396 -2.806353 0.048220 0
M  V30 6 N -0.854146 -2.205331 1.162193 0
M  V30 7 C 0.015286 -1.106728 1.260770 0
M  V30 8 C 0.277455 -0.555505 0.034015 0
M  V30 9 C 1.101830 0.500538 0.038222 0
M  V30 10 O 1.556402 1.279963 -1.083889 0
M  V30 11 C 1.068739 0.873009 -2.329859 0
M  V30 12 C 1.827205 1.304651 0.753291 0
M  V30 13 C 2.629172 2.193611 1.544254 0
M  V30 14 O 2.840523 2.631724 0.356469 0
M  V30 15 N 3.220762 2.773456 2.639473 0
M  V30 16 C 4.074463 3.898694 2.212822 0
M  V30 17 C 4.712219 4.518912 3.409449 0
M  V30 18 O 5.511642 3.609211 4.119525 0
M  V30 19 C 1.483877 0.634194 2.071417 0
M  V30 20 C 0.637063 -0.501816 2.360393 0
M  V30 21 Cl 0.157399 -1.371579 3.818536 0
M  V30 22 N -1.401860 -2.505429 -1.247724 0
M  V30 23 C -2.021629 -3.141075 -2.226030 0
M  V30 24 C -2.796021 -4.203504 -1.841343 0
M  V30 25 Cl -3.645383 -5.096751 -3.080773 0
M  V30 26 H -4.649962 -5.465112 1.765552 0
M  V30 27 H -3.945702 -7.151976 1.451764 0
M  V30 28 H -2.871008 -5.740158 1.833873 0
M  V30 29 H -4.252165 -6.256024 -0.795073 0
M  V30 30 H -1.001075 -2.554703 2.130242 0
M  V30 31 H 0.001877 -0.726517 -1.004166 0
M  V30 32 H -0.056155 0.972744 -2.326613 0
M  V30 33 H 1.342848 -0.203653 -2.530290 0
M  V30 34 H 1.416144 1.520917 -3.160532 0
M  V30 35 H 2.841106 2.189853 3.402475 0
M  V30 36 H 4.887515 3.527436 1.554791 0
M  V30 37 H 3.449494 4.679381 1.734754 0
M  V30 38 H 4.001366 4.938572 4.142754 0
M  V30 39 H 5.359389 5.366842 3.035884 0
M  V30 40 H 5.334216 2.680648 3.818817 0
M  V30 41 H 1.697932 0.709398 3.196320 0
M  V30 42 H -1.916222 -2.835032 -3.250657 0
M  V30 END ATOM
M  V30 BEGIN BOND
M  V30 1 1 1 2
M  V30 2 1 2 3
M  V30 3 2 3 4
M  V30 4 1 4 5
M  V30 5 1 5 6
M  V30 6 1 6 7
M  V30 7 2 7 8
M  V30 8 1 8 9
M  V30 9 1 9 10
M  V30 10 1 10 11
M  V30 11 2 9 12
M  V30 12 1 12 13
M  V30 13 2 13 14
M  V30 14 1 13 15
M  V30 15 1 15 16
M  V30 16 1 16 17
M  V30 17 1 17 18
M  V30 18 1 12 19
M  V30 19 2 19 20
M  V30 20 1 20 21
M  V30 21 2 5 22
M  V30 22 1 22 23
M  V30 23 2 23 24
M  V30 24 1 24 25
M  V30 25 1 24 3
M  V30 26 1 20 7
M  V30 27 1 1 26
M  V30 28 1 1 27
M  V30 29 1 1 28
M  V30 30 1 2 29
M  V30 31 1 6 30
M  V30 32 1 8 31
M  V30 33 1 11 32
M  V30 34 1 11 33
M  V30 35 1 11 34
M  V30 36 1 15 35
M  V30 37 1 16 36
M  V30 38 1 16 37
M  V30 39 1 17 38
M  V30 40 1 17 39
M  V30 41 1 18 40
M  V30 42 1 19 41
M  V30 43 1 23 42
M  V30 END BOND
M  V30 END CTAB
M  END
>  <Dataset>  (599) 
ChEMBL_Kinases

>  <Ligand_Instance>  (599) 
nan

>  <PDB_ID>  (599) 
nan

>  <Standardized_SMILES>  (599) 
CNc1nc(Nc2cc(OC)c(C(=O)NCCO)cc2Cl)ncc1Cl

>  <Name>  (599) 
nan

>  <Pocket>  (599) 
nan

>  <ATP_Site>  (599) 
nan

>  <Peripheral>  (599) 
nan

>  <Num_H_Atoms_ProtBoundConf>  (599) 
nan

>  <Num_Resolved_Atoms>  (599) 
nan

>  <Num_Not_Resolved_Atoms>  (599) 
nan

$$$$
CHEMBL3641825
     RDKit          3D

  0  0  0  0  0  0  0  0  0  0999 V3000
M  V30 BEGIN CTAB
M  V30 COUNTS 38 39 0 0 0
M  V30 BEGIN ATOM
M  V30 1 C 0.772345 -6.028219 2.826436 0
M  V30 2 N 0.705350 -4.644126 2.409049 0
M  V30 3 C 1.720861 -3.876008 1.838340 0
M  V30 4 O 2.756258 -4.605147 1.736726 0
M  V30 5 C 1.716640 -2.498217 1.403246 0
M  V30 6 C 2.922125 -2.050753 0.846745 0
M  V30 7 C 3.082930 -0.770021 0.370125 0
M  V30 8 Cl 4.599556 -0.243710 -0.316750 0
M  V30 9 C 2.036520 0.127246 0.431174 0
M  V30 10 N 2.113358 1.457297 -0.057606 0
M  V30 11 C 1.025790 2.351525 0.083225 0
M  V30 12 N 0.943142 3.411353 0.929842 0
M  V30 13 C -0.163786 4.167756 0.968839 0
M  V30 14 C -1.226374 3.849000 0.128672 0
M  V30 15 Cl -2.715092 4.769576 0.097533 0
M  V30 16 C -1.149130 2.776675 -0.730699 0
M  V30 17 N -2.215932 2.400215 -1.615251 0
M  V30 18 C -2.046660 1.239824 -2.493357 0
M  V30 19 N -0.002204 2.027396 -0.742512 0
M  V30 20 C 0.852309 -0.314741 0.979317 0
M  V30 21 C 0.682197 -1.596914 1.458152 0
M  V30 22 O -0.496628 -2.005223 1.990101 0
M  V30 23 C -1.679852 -1.288751 2.155808 0
M  V30 24 H 0.198996 -6.127869 3.790194 0
M  V30 25 H 1.812593 -6.405364 2.954510 0
M  V30 26 H 0.216252 -6.705069 2.119657 0
M  V30 27 H -0.219032 -4.167155 2.554111 0
M  V30 28 H 3.799266 -2.690205 0.759649 0
M  V30 29 H 2.976037 1.827691 -0.542745 0
M  V30 30 H -0.243397 5.012221 1.637383 0
M  V30 31 H -3.081092 3.017858 -1.564354 0
M  V30 32 H -1.822443 1.509167 -3.527788 0
M  V30 33 H -2.995083 0.658303 -2.488883 0
M  V30 34 H -1.283113 0.591297 -2.001911 0
M  V30 35 H 0.029508 0.388019 1.027411 0
M  V30 36 H -2.508454 -2.015831 1.902496 0
M  V30 37 H -1.777395 -0.380819 1.538454 0
M  V30 38 H -1.861646 -0.989408 3.226841 0
M  V30 END ATOM
M  V30 BEGIN BOND
M  V30 1 1 1 2
M  V30 2 1 2 3
M  V30 3 2 3 4
M  V30 4 1 3 5
M  V30 5 2 5 6
M  V30 6 1 6 7
M  V30 7 1 7 8
M  V30 8 2 7 9
M  V30 9 1 9 10
M  V30 10 1 10 11
M  V30 11 2 11 12
M  V30 12 1 12 13
M  V30 13 2 13 14
M  V30 14 1 14 15
M  V30 15 1 14 16
M  V30 16 1 16 17
M  V30 17 1 17 18
M  V30 18 2 16 19
M  V30 19 1 9 20
M  V30 20 2 20 21
M  V30 21 1 21 22
M  V30 22 1 22 23
M  V30 23 1 21 5
M  V30 24 1 19 11
M  V30 25 1 1 24
M  V30 26 1 1 25
M  V30 27 1 1 26
M  V30 28 1 2 27
M  V30 29 1 6 28
M  V30 30 1 10 29
M  V30 31 1 13 30
M  V30 32 1 17 31
M  V30 33 1 18 32
M  V30 34 1 18 33
M  V30 35 1 18 34
M  V30 36 1 20 35
M  V30 37 1 23 36
M  V30 38 1 23 37
M  V30 39 1 23 38
M  V30 END BOND
M  V30 END CTAB
M  END
>  <Dataset>  (600) 
ChEMBL_Kinases

>  <Ligand_Instance>  (600) 
nan

>  <PDB_ID>  (600) 
nan

>  <Standardized_SMILES>  (600) 
CNC(=O)c1cc(Cl)c(Nc2ncc(Cl)c(NC)n2)cc1OC

>  <Name>  (600) 
nan

>  <Pocket>  (600) 
nan

>  <ATP_Site>  (600) 
nan

>  <Peripheral>  (600) 
nan

>  <Num_H_Atoms_ProtBoundConf>  (600) 
nan

>  <Num_Resolved_Atoms>  (600) 
nan

>  <Num_Not_Resolved_Atoms>  (600) 
nan

$$$$
CHEMBL3641826
     RDKit          3D

  0  0  0  0  0  0  0  0  0  0999 V3000
M  V30 BEGIN CTAB
M  V30 COUNTS 48 50 0 0 0
M  V30 BEGIN ATOM
M  V30 1 C 5.472628 -0.188502 -2.605654 0
M  V30 2 N 4.948752 0.384892 -1.368749 0
M  V30 3 C 3.915657 -0.286120 -0.747913 0
M  V30 4 N 3.391339 -1.418750 -1.294436 0
M  V30 5 C 2.354365 -2.076684 -0.799566 0
M  V30 6 N 1.295079 -3.107593 -0.571687 0
M  V30 7 C -0.071386 -2.987382 -0.932513 0
M  V30 8 C -0.940232 -2.897732 -1.915948 0
M  V30 9 C -2.301811 -2.627636 -1.856850 0
M  V30 10 O -3.484427 -2.427484 -2.112414 0
M  V30 11 C -4.726843 -2.220299 -2.453323 0
M  V30 12 C -2.456280 -2.459626 -0.501747 0
M  V30 13 C -3.485391 -1.336545 0.039497 0
M  V30 14 O -4.463362 -1.101350 0.723292 0
M  V30 15 N -3.050490 -0.000246 -0.551581 0
M  V30 16 C -2.172170 0.114028 -1.726287 0
M  V30 17 C -2.056786 1.534594 -2.297432 0
M  V30 18 C -1.203881 2.234308 -1.219382 0
M  V30 19 F -0.115879 1.455090 -1.041662 0
M  V30 20 F -0.939926 3.506164 -1.628442 0
M  V30 21 C -2.069270 2.195576 0.052413 0
M  V30 22 C -3.328297 1.333032 -0.131160 0
M  V30 23 C -1.844784 -2.478956 0.835281 0
M  V30 24 C -0.481410 -2.799157 0.469824 0
M  V30 25 Cl 0.466185 -3.118668 1.997811 0
M  V30 26 N 1.875425 -1.511281 0.279396 0
M  V30 27 C 2.332806 -0.363696 0.916834 0
M  V30 28 C 3.365418 0.204450 0.350847 0
M  V30 29 Cl 3.944209 1.676391 1.021105 0
M  V30 30 H 5.614738 0.676955 -3.290520 0
M  V30 31 H 6.572359 -0.444134 -2.348445 0
M  V30 32 H 4.935347 -1.046599 -3.006104 0
M  V30 33 H 5.329456 1.189183 -0.942016 0
M  V30 34 H 1.673646 -4.038073 -0.154004 0
M  V30 35 H -0.663272 -3.018260 -2.906387 0
M  V30 36 H -5.403855 -2.167822 -1.592691 0
M  V30 37 H -4.914135 -1.272375 -3.017772 0
M  V30 38 H -5.238745 -2.996283 -3.115937 0
M  V30 39 H -2.746007 -0.343579 -2.609927 0
M  V30 40 H -1.166001 -0.268762 -1.608516 0
M  V30 41 H -1.464589 1.434432 -3.277038 0
M  V30 42 H -3.001346 1.985778 -2.463423 0
M  V30 43 H -2.280954 3.206144 0.305710 0
M  V30 44 H -1.395750 1.788382 0.807872 0
M  V30 45 H -3.963719 1.825323 -0.876000 0
M  V30 46 H -3.899073 1.330138 0.811675 0
M  V30 47 H -2.144451 -2.329234 1.850109 0
M  V30 48 H 1.952159 0.086030 1.862820 0
M  V30 END ATOM
M  V30 BEGIN BOND
M  V30 1 1 1 2
M  V30 2 1 2 3
M  V30 3 2 3 4
M  V30 4 1 4 5
M  V30 5 1 5 6
M  V30 6 1 6 7
M  V30 7 2 7 8
M  V30 8 1 8 9
M  V30 9 1 9 10
M  V30 10 1 10 11
M  V30 11 2 9 12
M  V30 12 1 12 13
M  V30 13 2 13 14
M  V30 14 1 13 15
M  V30 15 1 15 16
M  V30 16 1 16 17
M  V30 17 1 17 18
M  V30 18 1 18 19
M  V30 19 1 18 20
M  V30 20 1 18 21
M  V30 21 1 21 22
M  V30 22 1 12 23
M  V30 23 2 23 24
M  V30 24 1 24 25
M  V30 25 2 5 26
M  V30 26 1 26 27
M  V30 27 2 27 28
M  V30 28 1 28 29
M  V30 29 1 28 3
M  V30 30 1 24 7
M  V30 31 1 22 15
M  V30 32 1 1 30
M  V30 33 1 1 31
M  V30 34 1 1 32
M  V30 35 1 2 33
M  V30 36 1 6 34
M  V30 37 1 8 35
M  V30 38 1 11 36
M  V30 39 1 11 37
M  V30 40 1 11 38
M  V30 41 1 16 39
M  V30 42 1 16 40
M  V30 43 1 17 41
M  V30 44 1 17 42
M  V30 45 1 21 43
M  V30 46 1 21 44
M  V30 47 1 22 45
M  V30 48 1 22 46
M  V30 49 1 23 47
M  V30 50 1 27 48
M  V30 END BOND
M  V30 END CTAB
M  END
>  <Dataset>  (601) 
ChEMBL_Kinases

>  <Ligand_Instance>  (601) 
nan

>  <PDB_ID>  (601) 
nan

>  <Standardized_SMILES>  (601) 
CNc1nc(Nc2cc(OC)c(C(=O)N3CCC(F)(F)CC3)cc2Cl)ncc1Cl

>  <Name>  (601) 
nan

>  <Pocket>  (601) 
nan

>  <ATP_Site>  (601) 
nan

>  <Peripheral>  (601) 
nan

>  <Num_H_Atoms_ProtBoundConf>  (601) 
nan

>  <Num_Resolved_Atoms>  (601) 
nan

>  <Num_Not_Resolved_Atoms>  (601) 
nan

$$$$
CHEMBL3641827
     RDKit          3D

  0  0  0  0  0  0  0  0  0  0999 V3000
M  V30 BEGIN CTAB
M  V30 COUNTS 48 50 0 0 0
M  V30 BEGIN ATOM
M  V30 1 C 1.141215 -6.663381 -1.450573 0
M  V30 2 C 0.850864 -5.533692 -0.466734 0
M  V30 3 N 2.086962 -4.982661 0.059733 0
M  V30 4 C 2.088666 -3.950406 1.018356 0
M  V30 5 N 0.898595 -3.450695 1.481115 0
M  V30 6 C 0.936552 -2.453450 2.420764 0
M  V30 7 N -0.196353 -1.815348 3.010550 0
M  V30 8 C -0.852504 -0.622621 2.552197 0
M  V30 9 C -0.309255 -0.029596 1.412800 0
M  V30 10 C -0.992018 1.107524 1.046058 0
M  V30 11 O -0.506612 1.774329 -0.085074 0
M  V30 12 C 0.592841 1.283677 -0.773008 0
M  V30 13 C -2.085020 1.659221 1.672644 0
M  V30 14 C -2.821959 2.851862 1.312758 0
M  V30 15 O -3.804568 3.271956 1.943049 0
M  V30 16 N -2.558865 3.709000 0.227472 0
M  V30 17 C -3.277453 4.901664 -0.157105 0
M  V30 18 C -3.065170 5.632784 -1.396910 0
M  V30 19 C -2.440313 6.147812 -0.113524 0
M  V30 20 C -2.552600 0.997823 2.798396 0
M  V30 21 C -1.940610 -0.149720 3.249398 0
M  V30 22 Cl -2.527785 -0.969933 4.665895 0
M  V30 23 N 2.062315 -1.926320 2.923830 0
M  V30 24 C 3.273022 -2.380621 2.502004 0
M  V30 25 C 3.221833 -3.385492 1.555499 0
M  V30 26 C 4.511784 -3.924992 1.045509 0
M  V30 27 F 5.615117 -3.316410 1.608416 0
M  V30 28 F 4.635265 -5.282241 1.363661 0
M  V30 29 F 4.627614 -3.771028 -0.312452 0
M  V30 30 H 1.233414 -7.640922 -0.935174 0
M  V30 31 H 2.083734 -6.500400 -1.985404 0
M  V30 32 H 0.329866 -6.776135 -2.200961 0
M  V30 33 H 0.205185 -4.808951 -0.959181 0
M  V30 34 H 0.299830 -5.989547 0.378535 0
M  V30 35 H 3.001597 -5.351980 -0.267165 0
M  V30 36 H -0.445783 -2.391139 3.838727 0
M  V30 37 H 0.527608 -0.411441 0.873102 0
M  V30 38 H 0.890197 2.007015 -1.569789 0
M  V30 39 H 0.347319 0.320252 -1.310638 0
M  V30 40 H 1.440025 1.134139 -0.057913 0
M  V30 41 H -1.764739 3.534695 -0.421465 0
M  V30 42 H -4.275610 4.988252 0.365256 0
M  V30 43 H -2.378106 5.332930 -2.212431 0
M  V30 44 H -3.906917 6.248143 -1.784462 0
M  V30 45 H -1.348590 6.054625 -0.039627 0
M  V30 46 H -2.888760 6.996770 0.420227 0
M  V30 47 H -3.406965 1.343679 3.367598 0
M  V30 48 H 4.189158 -1.986243 2.880768 0
M  V30 END ATOM
M  V30 BEGIN BOND
M  V30 1 1 1 2
M  V30 2 1 2 3
M  V30 3 1 3 4
M  V30 4 2 4 5
M  V30 5 1 5 6
M  V30 6 1 6 7
M  V30 7 1 7 8
M  V30 8 2 8 9
M  V30 9 1 9 10
M  V30 10 1 10 11
M  V30 11 1 11 12
M  V30 12 2 10 13
M  V30 13 1 13 14
M  V30 14 2 14 15
M  V30 15 1 14 16
M  V30 16 1 16 17
M  V30 17 1 17 18
M  V30 18 1 18 19
M  V30 19 1 13 20
M  V30 20 2 20 21
M  V30 21 1 21 22
M  V30 22 2 6 23
M  V30 23 1 23 24
M  V30 24 2 24 25
M  V30 25 1 25 26
M  V30 26 1 26 27
M  V30 27 1 26 28
M  V30 28 1 26 29
M  V30 29 1 25 4
M  V30 30 1 21 8
M  V30 31 1 19 17
M  V30 32 1 1 30
M  V30 33 1 1 31
M  V30 34 1 1 32
M  V30 35 1 2 33
M  V30 36 1 2 34
M  V30 37 1 3 35
M  V30 38 1 7 36
M  V30 39 1 9 37
M  V30 40 1 12 38
M  V30 41 1 12 39
M  V30 42 1 12 40
M  V30 43 1 16 41
M  V30 44 1 17 42
M  V30 45 1 18 43
M  V30 46 1 18 44
M  V30 47 1 19 45
M  V30 48 1 19 46
M  V30 49 1 20 47
M  V30 50 1 24 48
M  V30 END BOND
M  V30 END CTAB
M  END
>  <Dataset>  (602) 
ChEMBL_Kinases

>  <Ligand_Instance>  (602) 
nan

>  <PDB_ID>  (602) 
nan

>  <Standardized_SMILES>  (602) 
CCNc1nc(Nc2cc(OC)c(C(=O)NC3CC3)cc2Cl)ncc1C(F)(F)F

>  <Name>  (602) 
nan

>  <Pocket>  (602) 
nan

>  <ATP_Site>  (602) 
nan

>  <Peripheral>  (602) 
nan

>  <Num_H_Atoms_ProtBoundConf>  (602) 
nan

>  <Num_Resolved_Atoms>  (602) 
nan

>  <Num_Not_Resolved_Atoms>  (602) 
nan

$$$$
CHEMBL3641828
     RDKit          3D

  0  0  0  0  0  0  0  0  0  0999 V3000
M  V30 BEGIN CTAB
M  V30 COUNTS 51 52 0 0 0
M  V30 BEGIN ATOM
M  V30 1 C 0.422703 -4.558890 -0.296803 0
M  V30 2 C 1.547277 -5.558139 -0.239593 0
M  V30 3 N 2.186854 -5.508243 1.063613 0
M  V30 4 C 2.774068 -4.265556 1.468676 0
M  V30 5 N 2.748954 -3.185724 0.702112 0
M  V30 6 C 3.273754 -1.986781 1.005684 0
M  V30 7 N 3.144308 -0.944542 0.045970 0
M  V30 8 C 2.036329 -0.074453 0.046462 0
M  V30 9 C 1.035782 -0.209216 0.986313 0
M  V30 10 C -0.033069 0.658999 0.957384 0
M  V30 11 O -0.990762 0.477345 1.910734 0
M  V30 12 C -0.963819 -0.512934 2.899728 0
M  V30 13 C -0.198340 1.677211 0.050811 0
M  V30 14 C -1.291477 2.623212 -0.037990 0
M  V30 15 O -1.282693 3.497733 -0.937517 0
M  V30 16 N -2.443754 2.737227 0.769729 0
M  V30 17 C -3.478124 3.708806 0.605385 0
M  V30 18 C -4.164363 3.623990 -0.734669 0
M  V30 19 O -5.174288 4.597455 -0.850749 0
M  V30 20 C -5.803481 4.512813 -2.090999 0
M  V30 21 C 0.821169 1.782034 -0.873690 0
M  V30 22 C 1.908329 0.936783 -0.882878 0
M  V30 23 Cl 3.154599 1.127963 -2.077339 0
M  V30 24 N 3.886264 -1.881399 2.215678 0
M  V30 25 C 3.969488 -2.902641 3.064898 0
M  V30 26 C 3.409363 -4.109349 2.692659 0
M  V30 27 C 3.466704 -5.302793 3.601678 0
M  V30 28 F 4.135774 -6.362536 3.005940 0
M  V30 29 F 4.165200 -4.970217 4.747741 0
M  V30 30 F 2.163452 -5.683248 3.934504 0
M  V30 31 H -0.419526 -4.973827 -0.902544 0
M  V30 32 H 0.785429 -3.631634 -0.778314 0
M  V30 33 H 0.053615 -4.349641 0.727037 0
M  V30 34 H 2.333561 -5.264432 -0.977953 0
M  V30 35 H 1.206136 -6.563994 -0.494621 0
M  V30 36 H 2.237222 -6.324107 1.708312 0
M  V30 37 H 3.893129 -0.811616 -0.690030 0
M  V30 38 H 1.113348 -0.980325 1.711059 0
M  V30 39 H -1.865888 -0.391672 3.553464 0
M  V30 40 H -0.098407 -0.412334 3.604281 0
M  V30 41 H -0.932750 -1.499854 2.403436 0
M  V30 42 H -2.548953 2.056493 1.550437 0
M  V30 43 H -2.954723 4.711932 0.613286 0
M  V30 44 H -4.214198 3.682034 1.412083 0
M  V30 45 H -4.658878 2.652510 -0.907096 0
M  V30 46 H -3.488626 3.789173 -1.587785 0
M  V30 47 H -6.590319 5.283145 -2.161377 0
M  V30 48 H -6.209602 3.492425 -2.274923 0
M  V30 49 H -5.075931 4.692819 -2.921278 0
M  V30 50 H 0.792038 2.550100 -1.634172 0
M  V30 51 H 4.464823 -2.778813 4.017882 0
M  V30 END ATOM
M  V30 BEGIN BOND
M  V30 1 1 1 2
M  V30 2 1 2 3
M  V30 3 1 3 4
M  V30 4 2 4 5
M  V30 5 1 5 6
M  V30 6 1 6 7
M  V30 7 1 7 8
M  V30 8 2 8 9
M  V30 9 1 9 10
M  V30 10 1 10 11
M  V30 11 1 11 12
M  V30 12 2 10 13
M  V30 13 1 13 14
M  V30 14 2 14 15
M  V30 15 1 14 16
M  V30 16 1 16 17
M  V30 17 1 17 18
M  V30 18 1 18 19
M  V30 19 1 19 20
M  V30 20 1 13 21
M  V30 21 2 21 22
M  V30 22 1 22 23
M  V30 23 2 6 24
M  V30 24 1 24 25
M  V30 25 2 25 26
M  V30 26 1 26 27
M  V30 27 1 27 28
M  V30 28 1 27 29
M  V30 29 1 27 30
M  V30 30 1 26 4
M  V30 31 1 22 8
M  V30 32 1 1 31
M  V30 33 1 1 32
M  V30 34 1 1 33
M  V30 35 1 2 34
M  V30 36 1 2 35
M  V30 37 1 3 36
M  V30 38 1 7 37
M  V30 39 1 9 38
M  V30 40 1 12 39
M  V30 41 1 12 40
M  V30 42 1 12 41
M  V30 43 1 16 42
M  V30 44 1 17 43
M  V30 45 1 17 44
M  V30 46 1 18 45
M  V30 47 1 18 46
M  V30 48 1 20 47
M  V30 49 1 20 48
M  V30 50 1 20 49
M  V30 51 1 21 50
M  V30 52 1 25 51
M  V30 END BOND
M  V30 END CTAB
M  END
>  <Dataset>  (603) 
ChEMBL_Kinases

>  <Ligand_Instance>  (603) 
nan

>  <PDB_ID>  (603) 
nan

>  <Standardized_SMILES>  (603) 
CCNc1nc(Nc2cc(OC)c(C(=O)NCCOC)cc2Cl)ncc1C(F)(F)F

>  <Name>  (603) 
nan

>  <Pocket>  (603) 
nan

>  <ATP_Site>  (603) 
nan

>  <Peripheral>  (603) 
nan

>  <Num_H_Atoms_ProtBoundConf>  (603) 
nan

>  <Num_Resolved_Atoms>  (603) 
nan

>  <Num_Not_Resolved_Atoms>  (603) 
nan

$$$$
CHEMBL3641829
     RDKit          3D

  0  0  0  0  0  0  0  0  0  0999 V3000
M  V30 BEGIN CTAB
M  V30 COUNTS 47 49 0 0 0
M  V30 BEGIN ATOM
M  V30 1 C 2.042057 -4.409784 0.773347 0
M  V30 2 N 1.165317 -5.425212 0.174286 0
M  V30 3 C -0.022450 -5.105921 -0.509817 0
M  V30 4 N -0.420745 -3.841000 -0.652085 0
M  V30 5 C -1.530519 -3.438606 -1.283411 0
M  V30 6 N -1.950503 -2.092252 -1.432499 0
M  V30 7 C -1.328689 -0.915688 -0.973306 0
M  V30 8 C -0.148216 -0.854680 -0.264977 0
M  V30 9 C 0.470159 0.279142 0.188954 0
M  V30 10 O 1.657926 0.271569 0.896480 0
M  V30 11 C 2.383272 -0.883542 1.242010 0
M  V30 12 C -0.121811 1.496646 -0.072376 0
M  V30 13 C 0.451492 2.751774 0.363826 0
M  V30 14 O 1.266742 3.532913 -0.201906 0
M  V30 15 N 0.038395 3.199475 1.647262 0
M  V30 16 C 0.489317 4.437248 2.286543 0
M  V30 17 C 1.090187 4.148334 3.659058 0
M  V30 18 N 1.189754 2.719225 3.794948 0
M  V30 19 C -0.060590 2.020485 3.701876 0
M  V30 20 C -0.892977 2.498428 2.519542 0
M  V30 21 C -1.303647 1.509017 -0.776003 0
M  V30 22 C -1.880280 0.337877 -1.207851 0
M  V30 23 Cl -3.386184 0.447956 -2.097332 0
M  V30 24 N -2.287139 -4.413352 -1.807825 0
M  V30 25 C -1.953357 -5.707181 -1.706197 0
M  V30 26 C -0.804450 -6.087217 -1.049860 0
M  V30 27 Cl -0.285431 -7.749430 -0.865561 0
M  V30 28 H 3.062490 -4.782587 0.895663 0
M  V30 29 H 2.068082 -3.583506 0.033218 0
M  V30 30 H 1.648391 -4.017282 1.714442 0
M  V30 31 H 1.464814 -6.419259 0.278094 0
M  V30 32 H -2.859106 -1.929895 -1.961921 0
M  V30 33 H 0.375091 -1.753902 -0.020650 0
M  V30 34 H 1.705358 -1.587539 1.768334 0
M  V30 35 H 3.216047 -0.568699 1.904140 0
M  V30 36 H 2.851546 -1.333761 0.330597 0
M  V30 37 H 1.174036 5.009661 1.637251 0
M  V30 38 H -0.426664 5.044682 2.455993 0
M  V30 39 H 0.486137 4.517069 4.490701 0
M  V30 40 H 2.130941 4.537508 3.732492 0
M  V30 41 H 1.696226 2.381458 4.618697 0
M  V30 42 H -0.626355 2.013496 4.640949 0
M  V30 43 H 0.180445 0.954677 3.469024 0
M  V30 44 H -1.655847 3.200207 2.915145 0
M  V30 45 H -1.406222 1.667199 2.000464 0
M  V30 46 H -1.785940 2.451892 -0.992603 0
M  V30 47 H -2.577014 -6.471911 -2.135561 0
M  V30 END ATOM
M  V30 BEGIN BOND
M  V30 1 1 1 2
M  V30 2 1 2 3
M  V30 3 2 3 4
M  V30 4 1 4 5
M  V30 5 1 5 6
M  V30 6 1 6 7
M  V30 7 2 7 8
M  V30 8 1 8 9
M  V30 9 1 9 10
M  V30 10 1 10 11
M  V30 11 2 9 12
M  V30 12 1 12 13
M  V30 13 2 13 14
M  V30 14 1 13 15
M  V30 15 1 15 16
M  V30 16 1 16 17
M  V30 17 1 17 18
M  V30 18 1 18 19
M  V30 19 1 19 20
M  V30 20 1 12 21
M  V30 21 2 21 22
M  V30 22 1 22 23
M  V30 23 2 5 24
M  V30 24 1 24 25
M  V30 25 2 25 26
M  V30 26 1 26 27
M  V30 27 1 26 3
M  V30 28 1 22 7
M  V30 29 1 20 15
M  V30 30 1 1 28
M  V30 31 1 1 29
M  V30 32 1 1 30
M  V30 33 1 2 31
M  V30 34 1 6 32
M  V30 35 1 8 33
M  V30 36 1 11 34
M  V30 37 1 11 35
M  V30 38 1 11 36
M  V30 39 1 16 37
M  V30 40 1 16 38
M  V30 41 1 17 39
M  V30 42 1 17 40
M  V30 43 1 18 41
M  V30 44 1 19 42
M  V30 45 1 19 43
M  V30 46 1 20 44
M  V30 47 1 20 45
M  V30 48 1 21 46
M  V30 49 1 25 47
M  V30 END BOND
M  V30 END CTAB
M  END
>  <Dataset>  (604) 
ChEMBL_Kinases

>  <Ligand_Instance>  (604) 
nan

>  <PDB_ID>  (604) 
nan

>  <Standardized_SMILES>  (604) 
CNc1nc(Nc2cc(OC)c(C(=O)N3CCNCC3)cc2Cl)ncc1Cl

>  <Name>  (604) 
nan

>  <Pocket>  (604) 
nan

>  <ATP_Site>  (604) 
nan

>  <Peripheral>  (604) 
nan

>  <Num_H_Atoms_ProtBoundConf>  (604) 
nan

>  <Num_Resolved_Atoms>  (604) 
nan

>  <Num_Not_Resolved_Atoms>  (604) 
nan

$$$$
CHEMBL3641821
     RDKit          3D

  0  0  0  0  0  0  0  0  0  0999 V3000
M  V30 BEGIN CTAB
M  V30 COUNTS 52 54 0 0 0
M  V30 BEGIN ATOM
M  V30 1 C 1.131147 -3.401107 4.093808 0
M  V30 2 O 2.488775 -3.243791 3.818763 0
M  V30 3 C 2.636736 -2.014335 3.180077 0
M  V30 4 C 4.047022 -1.705357 2.820226 0
M  V30 5 O 4.544355 -2.684100 1.955313 0
M  V30 6 C 3.985076 -2.917018 0.729075 0
M  V30 7 N 2.965858 -2.353274 0.110166 0
M  V30 8 C 2.512766 -2.671781 -1.097288 0
M  V30 9 N 1.424390 -2.051922 -1.748287 0
M  V30 10 C 0.624350 -0.971052 -1.331020 0
M  V30 11 C 0.803173 -0.272227 -0.162864 0
M  V30 12 C 0.040271 0.793170 0.267061 0
M  V30 13 C -1.003678 1.223625 -0.519115 0
M  V30 14 C -1.831255 2.335300 -0.109943 0
M  V30 15 O -1.874308 3.391518 -0.812471 0
M  V30 16 N -2.541356 2.102067 1.102976 0
M  V30 17 C -2.563836 0.929199 1.983851 0
M  V30 18 C -3.985635 0.438582 2.033034 0
M  V30 19 O -4.932985 1.388650 2.188976 0
M  V30 20 C -4.787664 2.605267 1.613994 0
M  V30 21 C -3.405142 3.172412 1.600977 0
M  V30 22 C -1.227030 0.556705 -1.702783 0
M  V30 23 C -0.447022 -0.501571 -2.100852 0
M  V30 24 O -0.710780 -1.140714 -3.301068 0
M  V30 25 C -1.766359 -0.712927 -4.105895 0
M  V30 26 N 3.168298 -3.652846 -1.711311 0
M  V30 27 C 4.213335 -4.311174 -1.208859 0
M  V30 28 C 4.633910 -3.922756 0.063250 0
M  V30 29 Br 6.137163 -4.901309 0.729733 0
M  V30 30 H 0.941860 -4.370365 4.607333 0
M  V30 31 H 0.566235 -3.378295 3.129130 0
M  V30 32 H 0.796933 -2.609405 4.783825 0
M  V30 33 H 2.027726 -2.080363 2.260326 0
M  V30 34 H 2.187870 -1.218977 3.834102 0
M  V30 35 H 4.665146 -1.568174 3.728720 0
M  V30 36 H 4.037262 -0.733118 2.269767 0
M  V30 37 H 1.153385 -2.442946 -2.693509 0
M  V30 38 H 1.586371 -0.523119 0.515070 0
M  V30 39 H 0.212822 1.318597 1.195341 0
M  V30 40 H -2.277462 1.271284 2.997366 0
M  V30 41 H -1.932842 0.131280 1.594285 0
M  V30 42 H -4.034256 -0.223910 2.927750 0
M  V30 43 H -4.135642 -0.248843 1.158753 0
M  V30 44 H -5.403720 3.324499 2.227777 0
M  V30 45 H -5.268444 2.639927 0.605491 0
M  V30 46 H -3.097829 3.333224 2.662803 0
M  V30 47 H -3.372613 4.076539 0.995601 0
M  V30 48 H -2.034979 0.851562 -2.360814 0
M  V30 49 H -1.763124 -1.321087 -5.028402 0
M  V30 50 H -1.728493 0.349029 -4.417415 0
M  V30 51 H -2.742891 -0.869951 -3.610365 0
M  V30 52 H 4.701449 -5.111164 -1.778774 0
M  V30 END ATOM
M  V30 BEGIN BOND
M  V30 1 1 1 2
M  V30 2 1 2 3
M  V30 3 1 3 4
M  V30 4 1 4 5
M  V30 5 1 5 6
M  V30 6 2 6 7
M  V30 7 1 7 8
M  V30 8 1 8 9
M  V30 9 1 9 10
M  V30 10 2 10 11
M  V30 11 1 11 12
M  V30 12 2 12 13
M  V30 13 1 13 14
M  V30 14 2 14 15
M  V30 15 1 14 16
M  V30 16 1 16 17
M  V30 17 1 17 18
M  V30 18 1 18 19
M  V30 19 1 19 20
M  V30 20 1 20 21
M  V30 21 1 13 22
M  V30 22 2 22 23
M  V30 23 1 23 24
M  V30 24 1 24 25
M  V30 25 2 8 26
M  V30 26 1 26 27
M  V30 27 2 27 28
M  V30 28 1 28 29
M  V30 29 1 28 6
M  V30 30 1 23 10
M  V30 31 1 21 16
M  V30 32 1 1 30
M  V30 33 1 1 31
M  V30 34 1 1 32
M  V30 35 1 3 33
M  V30 36 1 3 34
M  V30 37 1 4 35
M  V30 38 1 4 36
M  V30 39 1 9 37
M  V30 40 1 11 38
M  V30 41 1 12 39
M  V30 42 1 17 40
M  V30 43 1 17 41
M  V30 44 1 18 42
M  V30 45 1 18 43
M  V30 46 1 20 44
M  V30 47 1 20 45
M  V30 48 1 21 46
M  V30 49 1 21 47
M  V30 50 1 22 48
M  V30 51 1 25 49
M  V30 52 1 25 50
M  V30 53 1 25 51
M  V30 54 1 27 52
M  V30 END BOND
M  V30 END CTAB
M  END
>  <Dataset>  (605) 
ChEMBL_Kinases

>  <Ligand_Instance>  (605) 
nan

>  <PDB_ID>  (605) 
nan

>  <Standardized_SMILES>  (605) 
COCCOc1nc(Nc2ccc(C(=O)N3CCOCC3)cc2OC)ncc1Br

>  <Name>  (605) 
nan

>  <Pocket>  (605) 
nan

>  <ATP_Site>  (605) 
nan

>  <Peripheral>  (605) 
nan

>  <Num_H_Atoms_ProtBoundConf>  (605) 
nan

>  <Num_Resolved_Atoms>  (605) 
nan

>  <Num_Not_Resolved_Atoms>  (605) 
nan

$$$$
CHEMBL3641878
     RDKit          3D

  0  0  0  0  0  0  0  0  0  0999 V3000
M  V30 BEGIN CTAB
M  V30 COUNTS 54 57 0 0 0
M  V30 BEGIN ATOM
M  V30 1 C -1.254678 4.497358 2.149700 0
M  V30 2 O -1.644908 3.187325 1.812921 0
M  V30 3 C -0.745653 2.163507 1.739807 0
M  V30 4 C 0.602473 2.258945 1.974825 0
M  V30 5 C 1.495655 1.217307 1.897111 0
M  V30 6 C 2.919949 1.398640 2.161190 0
M  V30 7 O 3.537249 1.710455 3.235274 0
M  V30 8 N 3.825082 1.205432 1.056251 0
M  V30 9 C 5.257488 1.367507 1.239567 0
M  V30 10 C 5.964119 1.896481 0.036905 0
M  V30 11 O 5.378760 1.615500 -1.174536 0
M  V30 12 C 4.003421 1.877673 -1.194812 0
M  V30 13 C 3.381406 0.845289 -0.284835 0
M  V30 14 C 0.970625 -0.008376 1.555229 0
M  V30 15 C -0.397221 -0.161519 1.304651 0
M  V30 16 C -1.266699 0.920180 1.394506 0
M  V30 17 N -2.638418 0.668861 1.121098 0
M  V30 18 C -3.368097 -0.494820 0.765898 0
M  V30 19 N -4.692320 -0.402428 0.557497 0
M  V30 20 C -5.410170 -1.479240 0.221470 0
M  V30 21 C -4.750556 -2.678187 0.097203 0
M  V30 22 Cl -5.736001 -4.061147 -0.313301 0
M  V30 23 C -3.415825 -2.836363 0.293735 0
M  V30 24 N -2.671591 -4.040388 0.161945 0
M  V30 25 C -3.037972 -5.352377 -0.240100 0
M  V30 26 C -1.871901 -6.319880 0.061138 0
M  V30 27 C -0.937089 -5.949367 -1.048100 0
M  V30 28 O -1.670215 -5.379252 -2.052141 0
M  V30 29 C -3.025872 -5.499112 -1.769624 0
M  V30 30 N -2.814882 -1.698308 0.622195 0
M  V30 31 H -1.978386 5.245802 1.742263 0
M  V30 32 H -0.243043 4.762349 1.798249 0
M  V30 33 H -1.255162 4.672313 3.264978 0
M  V30 34 H 1.000792 3.227945 2.244335 0
M  V30 35 H 5.491676 2.016816 2.111800 0
M  V30 36 H 5.634496 0.323110 1.438372 0
M  V30 37 H 6.147732 3.005297 0.086336 0
M  V30 38 H 6.984932 1.418386 0.010509 0
M  V30 39 H 3.894662 2.901041 -0.779024 0
M  V30 40 H 3.622168 1.850621 -2.215667 0
M  V30 41 H 3.796223 -0.137038 -0.572676 0
M  V30 42 H 2.280227 0.807652 -0.375038 0
M  V30 43 H 1.700928 -0.817713 1.500260 0
M  V30 44 H -0.605785 -1.183250 1.057409 0
M  V30 45 H -3.203388 1.552995 1.209320 0
M  V30 46 H -6.470711 -1.372025 0.063006 0
M  V30 47 H -1.648688 -3.937601 0.412662 0
M  V30 48 H -3.955797 -5.764489 0.177453 0
M  V30 49 H -1.500923 -6.101529 1.077100 0
M  V30 50 H -2.231852 -7.366221 -0.014985 0
M  V30 51 H -0.255257 -5.149050 -0.646234 0
M  V30 52 H -0.292636 -6.791573 -1.394137 0
M  V30 53 H -3.580864 -4.659898 -2.190368 0
M  V30 54 H -3.426547 -6.497092 -1.979891 0
M  V30 END ATOM
M  V30 BEGIN BOND
M  V30 1 1 1 2
M  V30 2 1 2 3
M  V30 3 2 3 4
M  V30 4 1 4 5
M  V30 5 1 5 6
M  V30 6 2 6 7
M  V30 7 1 6 8
M  V30 8 1 8 9
M  V30 9 1 9 10
M  V30 10 1 10 11
M  V30 11 1 11 12
M  V30 12 1 12 13
M  V30 13 2 5 14
M  V30 14 1 14 15
M  V30 15 2 15 16
M  V30 16 1 16 17
M  V30 17 1 17 18
M  V30 18 2 18 19
M  V30 19 1 19 20
M  V30 20 2 20 21
M  V30 21 1 21 22
M  V30 22 1 21 23
M  V30 23 1 23 24
M  V30 24 1 24 25
M  V30 25 1 25 26
M  V30 26 1 26 27
M  V30 27 1 27 28
M  V30 28 1 28 29
M  V30 29 2 23 30
M  V30 30 1 16 3
M  V30 31 1 30 18
M  V30 32 1 13 8
M  V30 33 1 29 25
M  V30 34 1 1 31
M  V30 35 1 1 32
M  V30 36 1 1 33
M  V30 37 1 4 34
M  V30 38 1 9 35
M  V30 39 1 9 36
M  V30 40 1 10 37
M  V30 41 1 10 38
M  V30 42 1 12 39
M  V30 43 1 12 40
M  V30 44 1 13 41
M  V30 45 1 13 42
M  V30 46 1 14 43
M  V30 47 1 15 44
M  V30 48 1 17 45
M  V30 49 1 20 46
M  V30 50 1 24 47
M  V30 51 1 25 48
M  V30 52 1 26 49
M  V30 53 1 26 50
M  V30 54 1 27 51
M  V30 55 1 27 52
M  V30 56 1 29 53
M  V30 57 1 29 54
M  V30 END BOND
M  V30 END CTAB
M  END
>  <Dataset>  (606) 
ChEMBL_Kinases

>  <Ligand_Instance>  (606) 
nan

>  <PDB_ID>  (606) 
nan

>  <Standardized_SMILES>  (606) 
COc1cc(C(=O)N2CCOCC2)ccc1Nc1ncc(Cl)c(NC2CCOC2)n1

>  <Name>  (606) 
nan

>  <Pocket>  (606) 
nan

>  <ATP_Site>  (606) 
nan

>  <Peripheral>  (606) 
nan

>  <Num_H_Atoms_ProtBoundConf>  (606) 
nan

>  <Num_Resolved_Atoms>  (606) 
nan

>  <Num_Not_Resolved_Atoms>  (606) 
nan

$$$$
CHEMBL3641877
     RDKit          3D

  0  0  0  0  0  0  0  0  0  0999 V3000
M  V30 BEGIN CTAB
M  V30 COUNTS 48 49 0 0 0
M  V30 BEGIN ATOM
M  V30 1 C 1.868772 -4.555874 1.333886 0
M  V30 2 N 0.800866 -5.513685 1.134890 0
M  V30 3 C -0.482109 -5.161990 0.630233 0
M  V30 4 N -0.773153 -3.901033 0.306762 0
M  V30 5 C -1.931643 -3.449021 -0.172729 0
M  V30 6 N -2.233954 -2.105019 -0.514927 0
M  V30 7 C -1.394285 -0.966588 -0.429137 0
M  V30 8 C -0.092046 -0.971341 0.015544 0
M  V30 9 C 0.728997 0.131602 0.100404 0
M  V30 10 C 0.230063 1.356807 -0.286161 0
M  V30 11 C 1.096142 2.528283 -0.198602 0
M  V30 12 O 1.463854 3.344413 -1.083570 0
M  V30 13 N 1.663965 2.880233 1.061324 0
M  V30 14 C 2.525380 4.053689 1.116147 0
M  V30 15 C 1.544560 2.261765 2.382431 0
M  V30 16 C 0.948109 3.216953 3.367666 0
M  V30 17 C 2.876329 1.721979 2.856951 0
M  V30 18 C -1.070405 1.416741 -0.740019 0
M  V30 19 C -1.866115 0.295781 -0.813119 0
M  V30 20 O -3.165429 0.420676 -1.278035 0
M  V30 21 C -3.702383 1.660867 -1.680161 0
M  V30 22 N -2.877336 -4.385484 -0.333106 0
M  V30 23 C -2.676832 -5.667011 -0.037292 0
M  V30 24 C -1.469005 -6.083822 0.452984 0
M  V30 25 C -1.199951 -7.450001 0.787659 0
M  V30 26 N -0.988842 -8.562991 1.061536 0
M  V30 27 H 2.528410 -4.444597 0.451501 0
M  V30 28 H 2.535512 -4.859249 2.181495 0
M  V30 29 H 1.396411 -3.602635 1.646212 0
M  V30 30 H 0.978452 -6.509025 1.372182 0
M  V30 31 H -3.205173 -1.910905 -0.882426 0
M  V30 32 H 0.364458 -1.880757 0.331601 0
M  V30 33 H 1.743744 0.079395 0.455675 0
M  V30 34 H 2.232640 4.688758 1.972793 0
M  V30 35 H 2.502291 4.659765 0.198614 0
M  V30 36 H 3.587931 3.768819 1.265389 0
M  V30 37 H 0.881586 1.379592 2.289440 0
M  V30 38 H 0.249525 2.677169 4.029673 0
M  V30 39 H 1.778938 3.710775 3.943537 0
M  V30 40 H 0.415686 4.015544 2.779371 0
M  V30 41 H 2.676783 1.014940 3.693400 0
M  V30 42 H 3.308022 1.102916 2.050020 0
M  V30 43 H 3.540980 2.503803 3.239275 0
M  V30 44 H -1.470904 2.368546 -1.044871 0
M  V30 45 H -4.808767 1.523659 -1.748929 0
M  V30 46 H -3.504460 2.455830 -0.924114 0
M  V30 47 H -3.350823 1.984652 -2.670372 0
M  V30 48 H -3.460767 -6.410137 -0.176299 0
M  V30 END ATOM
M  V30 BEGIN BOND
M  V30 1 1 1 2
M  V30 2 1 2 3
M  V30 3 2 3 4
M  V30 4 1 4 5
M  V30 5 1 5 6
M  V30 6 1 6 7
M  V30 7 2 7 8
M  V30 8 1 8 9
M  V30 9 2 9 10
M  V30 10 1 10 11
M  V30 11 2 11 12
M  V30 12 1 11 13
M  V30 13 1 13 14
M  V30 14 1 13 15
M  V30 15 1 15 16
M  V30 16 1 15 17
M  V30 17 1 10 18
M  V30 18 2 18 19
M  V30 19 1 19 20
M  V30 20 1 20 21
M  V30 21 2 5 22
M  V30 22 1 22 23
M  V30 23 2 23 24
M  V30 24 1 24 25
M  V30 25 3 25 26
M  V30 26 1 24 3
M  V30 27 1 19 7
M  V30 28 1 1 27
M  V30 29 1 1 28
M  V30 30 1 1 29
M  V30 31 1 2 30
M  V30 32 1 6 31
M  V30 33 1 8 32
M  V30 34 1 9 33
M  V30 35 1 14 34
M  V30 36 1 14 35
M  V30 37 1 14 36
M  V30 38 1 15 37
M  V30 39 1 16 38
M  V30 40 1 16 39
M  V30 41 1 16 40
M  V30 42 1 17 41
M  V30 43 1 17 42
M  V30 44 1 17 43
M  V30 45 1 18 44
M  V30 46 1 21 45
M  V30 47 1 21 46
M  V30 48 1 21 47
M  V30 49 1 23 48
M  V30 END BOND
M  V30 END CTAB
M  END
>  <Dataset>  (607) 
ChEMBL_Kinases

>  <Ligand_Instance>  (607) 
nan

>  <PDB_ID>  (607) 
nan

>  <Standardized_SMILES>  (607) 
CNc1nc(Nc2ccc(C(=O)N(C)C(C)C)cc2OC)ncc1C#N

>  <Name>  (607) 
nan

>  <Pocket>  (607) 
nan

>  <ATP_Site>  (607) 
nan

>  <Peripheral>  (607) 
nan

>  <Num_H_Atoms_ProtBoundConf>  (607) 
nan

>  <Num_Resolved_Atoms>  (607) 
nan

>  <Num_Not_Resolved_Atoms>  (607) 
nan

$$$$
CHEMBL3641876
     RDKit          3D

  0  0  0  0  0  0  0  0  0  0999 V3000
M  V30 BEGIN CTAB
M  V30 COUNTS 43 45 0 0 0
M  V30 BEGIN ATOM
M  V30 1 C -0.286843 -6.857157 2.724121 0
M  V30 2 N -0.975147 -5.965601 3.671744 0
M  V30 3 C -1.037702 -4.567264 3.423063 0
M  V30 4 N -0.478320 -4.037737 2.329624 0
M  V30 5 C -0.505467 -2.729322 2.035196 0
M  V30 6 N 0.111161 -2.280024 0.859676 0
M  V30 7 C 0.191427 -0.969692 0.325173 0
M  V30 8 C -0.362773 0.145495 0.914288 0
M  V30 9 C -0.303494 1.427284 0.409094 0
M  V30 10 C 0.360075 1.637345 -0.783760 0
M  V30 11 C 0.435884 2.987869 -1.337321 0
M  V30 12 O -0.203661 3.284000 -2.353843 0
M  V30 13 N 1.249244 3.969327 -0.706968 0
M  V30 14 C 1.463980 5.360859 -1.087993 0
M  V30 15 C 2.371792 5.562800 0.087804 0
M  V30 16 C 2.135855 4.116578 0.424698 0
M  V30 17 C 0.931409 0.551918 -1.410078 0
M  V30 18 C 0.843161 -0.705164 -0.862906 0
M  V30 19 O 1.457097 -1.717697 -1.579189 0
M  V30 20 C 2.138626 -1.532464 -2.802787 0
M  V30 21 N -1.137871 -1.963447 2.917094 0
M  V30 22 C -1.727939 -2.390119 4.039055 0
M  V30 23 C -1.683045 -3.737551 4.311654 0
M  V30 24 C -2.296159 -4.275356 5.494165 0
M  V30 25 N -2.805009 -4.696516 6.452725 0
M  V30 26 H -0.629605 -6.647656 1.679043 0
M  V30 27 H 0.796122 -6.649875 2.781952 0
M  V30 28 H -0.469500 -7.903435 2.989584 0
M  V30 29 H -1.418054 -6.365956 4.528424 0
M  V30 30 H 0.600657 -3.012700 0.257382 0
M  V30 31 H -0.893364 0.078281 1.835379 0
M  V30 32 H -0.740666 2.284195 0.881783 0
M  V30 33 H 0.503131 5.896221 -0.982397 0
M  V30 34 H 1.932680 5.400935 -2.088331 0
M  V30 35 H 3.417944 5.715454 -0.237927 0
M  V30 36 H 2.008472 6.288639 0.848283 0
M  V30 37 H 3.050127 3.496448 0.426457 0
M  V30 38 H 1.604266 3.931336 1.394059 0
M  V30 39 H 1.443860 0.731135 -2.337000 0
M  V30 40 H 2.410392 -2.548936 -3.176983 0
M  V30 41 H 1.583337 -0.964550 -3.549308 0
M  V30 42 H 3.120184 -1.035767 -2.573000 0
M  V30 43 H -2.231299 -1.691513 4.717061 0
M  V30 END ATOM
M  V30 BEGIN BOND
M  V30 1 1 1 2
M  V30 2 1 2 3
M  V30 3 2 3 4
M  V30 4 1 4 5
M  V30 5 1 5 6
M  V30 6 1 6 7
M  V30 7 2 7 8
M  V30 8 1 8 9
M  V30 9 2 9 10
M  V30 10 1 10 11
M  V30 11 2 11 12
M  V30 12 1 11 13
M  V30 13 1 13 14
M  V30 14 1 14 15
M  V30 15 1 15 16
M  V30 16 1 10 17
M  V30 17 2 17 18
M  V30 18 1 18 19
M  V30 19 1 19 20
M  V30 20 2 5 21
M  V30 21 1 21 22
M  V30 22 2 22 23
M  V30 23 1 23 24
M  V30 24 3 24 25
M  V30 25 1 23 3
M  V30 26 1 18 7
M  V30 27 1 16 13
M  V30 28 1 1 26
M  V30 29 1 1 27
M  V30 30 1 1 28
M  V30 31 1 2 29
M  V30 32 1 6 30
M  V30 33 1 8 31
M  V30 34 1 9 32
M  V30 35 1 14 33
M  V30 36 1 14 34
M  V30 37 1 15 35
M  V30 38 1 15 36
M  V30 39 1 16 37
M  V30 40 1 16 38
M  V30 41 1 17 39
M  V30 42 1 20 40
M  V30 43 1 20 41
M  V30 44 1 20 42
M  V30 45 1 22 43
M  V30 END BOND
M  V30 END CTAB
M  END
>  <Dataset>  (608) 
ChEMBL_Kinases

>  <Ligand_Instance>  (608) 
nan

>  <PDB_ID>  (608) 
nan

>  <Standardized_SMILES>  (608) 
CNc1nc(Nc2ccc(C(=O)N3CCC3)cc2OC)ncc1C#N

>  <Name>  (608) 
nan

>  <Pocket>  (608) 
nan

>  <ATP_Site>  (608) 
nan

>  <Peripheral>  (608) 
nan

>  <Num_H_Atoms_ProtBoundConf>  (608) 
nan

>  <Num_Resolved_Atoms>  (608) 
nan

>  <Num_Not_Resolved_Atoms>  (608) 
nan

$$$$
CHEMBL3641875
     RDKit          3D

  0  0  0  0  0  0  0  0  0  0999 V3000
M  V30 BEGIN CTAB
M  V30 COUNTS 46 48 0 0 0
M  V30 BEGIN ATOM
M  V30 1 C -4.899271 -4.733271 2.522281 0
M  V30 2 N -3.497351 -5.017194 2.552108 0
M  V30 3 C -2.645166 -3.919664 2.311196 0
M  V30 4 N -2.910077 -2.656127 2.045080 0
M  V30 5 C -2.514251 -1.524918 1.808510 0
M  V30 6 N -2.217430 -0.155345 1.517611 0
M  V30 7 C -1.689569 0.520763 0.389769 0
M  V30 8 C -0.444773 0.638089 1.191442 0
M  V30 9 C 0.935587 1.165690 1.165013 0
M  V30 10 C 0.906930 1.745358 -0.204697 0
M  V30 11 C 2.218878 2.389134 -0.449478 0
M  V30 12 O 2.754602 3.433270 -0.771559 0
M  V30 13 N 3.344925 1.481422 -0.234889 0
M  V30 14 C 4.658685 2.133214 -0.367176 0
M  V30 15 C 5.229596 1.777826 1.047128 0
M  V30 16 C 4.986102 0.307580 1.057764 0
M  V30 17 F 4.623665 -0.174359 2.275646 0
M  V30 18 F 6.131215 -0.427442 0.631770 0
M  V30 19 C 3.843270 0.124445 0.081619 0
M  V30 20 C -0.093449 1.759244 -1.103223 0
M  V30 21 C -1.189013 1.157297 -0.636549 0
M  V30 22 O -2.408608 1.042367 -1.322416 0
M  V30 23 C -2.801789 1.411422 -2.559667 0
M  V30 24 N -1.426441 -2.004491 1.920935 0
M  V30 25 C -0.341830 -2.743489 2.093102 0
M  V30 26 C -1.293563 -3.794038 2.298336 0
M  V30 27 C -0.582360 -5.111622 2.634327 0
M  V30 28 N -0.027983 -6.171184 2.915107 0
M  V30 29 H -5.109042 -3.719988 3.032695 0
M  V30 30 H -5.502740 -5.544534 3.016699 0
M  V30 31 H -5.310449 -4.561487 1.498389 0
M  V30 32 H -2.833034 -5.824160 2.687818 0
M  V30 33 H -2.580868 0.291027 2.430086 0
M  V30 34 H -0.194094 0.234629 2.271830 0
M  V30 35 H 1.832275 1.254953 1.733588 0
M  V30 36 H 5.336002 1.691240 -1.123329 0
M  V30 37 H 4.585412 3.236631 -0.416135 0
M  V30 38 H 4.599959 2.307043 1.776463 0
M  V30 39 H 6.313582 1.943151 1.100204 0
M  V30 40 H 3.061097 -0.490820 0.602212 0
M  V30 41 H 4.220203 -0.348047 -0.861228 0
M  V30 42 H -0.048967 2.215236 -2.052890 0
M  V30 43 H -2.571139 0.668701 -3.342335 0
M  V30 44 H -3.937818 1.557111 -2.634174 0
M  V30 45 H -2.319774 2.412840 -2.801182 0
M  V30 46 H 0.697163 -3.023970 2.160101 0
M  V30 END ATOM
M  V30 BEGIN BOND
M  V30 1 1 1 2
M  V30 2 1 2 3
M  V30 3 2 3 4
M  V30 4 1 4 5
M  V30 5 1 5 6
M  V30 6 1 6 7
M  V30 7 2 7 8
M  V30 8 1 8 9
M  V30 9 2 9 10
M  V30 10 1 10 11
M  V30 11 2 11 12
M  V30 12 1 11 13
M  V30 13 1 13 14
M  V30 14 1 14 15
M  V30 15 1 15 16
M  V30 16 1 16 17
M  V30 17 1 16 18
M  V30 18 1 16 19
M  V30 19 1 10 20
M  V30 20 2 20 21
M  V30 21 1 21 22
M  V30 22 1 22 23
M  V30 23 2 5 24
M  V30 24 1 24 25
M  V30 25 2 25 26
M  V30 26 1 26 27
M  V30 27 3 27 28
M  V30 28 1 26 3
M  V30 29 1 21 7
M  V30 30 1 19 13
M  V30 31 1 1 29
M  V30 32 1 1 30
M  V30 33 1 1 31
M  V30 34 1 2 32
M  V30 35 1 6 33
M  V30 36 1 8 34
M  V30 37 1 9 35
M  V30 38 1 14 36
M  V30 39 1 14 37
M  V30 40 1 15 38
M  V30 41 1 15 39
M  V30 42 1 19 40
M  V30 43 1 19 41
M  V30 44 1 20 42
M  V30 45 1 23 43
M  V30 46 1 23 44
M  V30 47 1 23 45
M  V30 48 1 25 46
M  V30 END BOND
M  V30 END CTAB
M  END
>  <Dataset>  (609) 
ChEMBL_Kinases

>  <Ligand_Instance>  (609) 
nan

>  <PDB_ID>  (609) 
nan

>  <Standardized_SMILES>  (609) 
CNc1nc(Nc2ccc(C(=O)N3CCC(F)(F)C3)cc2OC)ncc1C#N

>  <Name>  (609) 
nan

>  <Pocket>  (609) 
nan

>  <ATP_Site>  (609) 
nan

>  <Peripheral>  (609) 
nan

>  <Num_H_Atoms_ProtBoundConf>  (609) 
nan

>  <Num_Resolved_Atoms>  (609) 
nan

>  <Num_Not_Resolved_Atoms>  (609) 
nan

$$$$
CHEMBL3641874
     RDKit          3D

  0  0  0  0  0  0  0  0  0  0999 V3000
M  V30 BEGIN CTAB
M  V30 COUNTS 51 52 0 0 0
M  V30 BEGIN ATOM
M  V30 1 C -1.187432 -3.301570 2.491537 0
M  V30 2 C -0.236437 -3.921277 1.520460 0
M  V30 3 N -0.798728 -4.039123 0.185598 0
M  V30 4 C -0.734717 -3.088126 -0.895010 0
M  V30 5 O -1.180378 -3.101512 -2.062242 0
M  V30 6 C 0.007060 -1.913127 -0.468963 0
M  V30 7 C -0.665847 -0.777981 -0.100954 0
M  V30 8 C -0.047344 0.362473 0.329504 0
M  V30 9 C 1.355188 0.349776 0.389998 0
M  V30 10 N 2.118629 1.445725 0.837471 0
M  V30 11 C 1.648863 2.776234 1.273322 0
M  V30 12 N 2.646758 3.608947 1.728946 0
M  V30 13 C 2.327060 4.884525 2.167001 0
M  V30 14 C 1.109074 4.631487 1.899028 0
M  V30 15 C 0.573686 6.116158 2.401679 0
M  V30 16 N 0.171759 7.265316 2.781474 0
M  V30 17 C -0.100762 4.471371 1.667237 0
M  V30 18 N -1.510937 4.284730 1.397060 0
M  V30 19 C -2.249954 5.495852 1.711889 0
M  V30 20 N 0.339668 3.176050 1.239429 0
M  V30 21 C 2.003555 -0.799473 0.014524 0
M  V30 22 O 3.375177 -0.827619 0.066409 0
M  V30 23 C 4.190859 -1.899984 -0.287689 0
M  V30 24 C 1.406444 -1.950226 -0.418218 0
M  V30 25 C -1.515919 -5.287467 -0.079405 0
M  V30 26 C -2.934421 -5.023611 -0.486909 0
M  V30 27 C -0.819455 -5.990920 -1.207835 0
M  V30 28 H -0.758875 -3.458362 3.522557 0
M  V30 29 H -2.192583 -3.779543 2.411076 0
M  V30 30 H -1.227700 -2.196682 2.344161 0
M  V30 31 H 0.714160 -3.318656 1.506872 0
M  V30 32 H 0.076328 -4.924360 1.864470 0
M  V30 33 H -1.766607 -0.814899 -0.168161 0
M  V30 34 H -0.633444 1.205907 0.596235 0
M  V30 35 H 3.139158 1.331228 0.879710 0
M  V30 36 H 3.028153 5.577492 2.528014 0
M  V30 37 H -2.061790 3.502145 1.048498 0
M  V30 38 H -1.835114 6.298282 1.090554 0
M  V30 39 H -2.133658 5.727053 2.811170 0
M  V30 40 H -3.342459 5.362402 1.558992 0
M  V30 41 H 5.239172 -1.603704 0.024233 0
M  V30 42 H 4.257037 -1.968126 -1.409511 0
M  V30 43 H 3.955193 -2.869557 0.138111 0
M  V30 44 H 1.966548 -2.816244 -0.691223 0
M  V30 45 H -1.520195 -5.964624 0.800060 0
M  V30 46 H -3.219717 -4.013479 -0.114040 0
M  V30 47 H -3.652949 -5.738468 -0.026296 0
M  V30 48 H -3.059409 -5.071948 -1.590918 0
M  V30 49 H -1.240662 -7.028376 -1.361428 0
M  V30 50 H -1.025038 -5.435865 -2.156635 0
M  V30 51 H 0.250707 -6.074947 -0.977180 0
M  V30 END ATOM
M  V30 BEGIN BOND
M  V30 1 1 1 2
M  V30 2 1 2 3
M  V30 3 1 3 4
M  V30 4 2 4 5
M  V30 5 1 4 6
M  V30 6 2 6 7
M  V30 7 1 7 8
M  V30 8 2 8 9
M  V30 9 1 9 10
M  V30 10 1 10 11
M  V30 11 2 11 12
M  V30 12 1 12 13
M  V30 13 2 13 14
M  V30 14 1 14 15
M  V30 15 3 15 16
M  V30 16 1 14 17
M  V30 17 1 17 18
M  V30 18 1 18 19
M  V30 19 2 17 20
M  V30 20 1 9 21
M  V30 21 1 21 22
M  V30 22 1 22 23
M  V30 23 2 21 24
M  V30 24 1 3 25
M  V30 25 1 25 26
M  V30 26 1 25 27
M  V30 27 1 24 6
M  V30 28 1 20 11
M  V30 29 1 1 28
M  V30 30 1 1 29
M  V30 31 1 1 30
M  V30 32 1 2 31
M  V30 33 1 2 32
M  V30 34 1 7 33
M  V30 35 1 8 34
M  V30 36 1 10 35
M  V30 37 1 13 36
M  V30 38 1 18 37
M  V30 39 1 19 38
M  V30 40 1 19 39
M  V30 41 1 19 40
M  V30 42 1 23 41
M  V30 43 1 23 42
M  V30 44 1 23 43
M  V30 45 1 24 44
M  V30 46 1 25 45
M  V30 47 1 26 46
M  V30 48 1 26 47
M  V30 49 1 26 48
M  V30 50 1 27 49
M  V30 51 1 27 50
M  V30 52 1 27 51
M  V30 END BOND
M  V30 END CTAB
M  END
>  <Dataset>  (610) 
ChEMBL_Kinases

>  <Ligand_Instance>  (610) 
nan

>  <PDB_ID>  (610) 
nan

>  <Standardized_SMILES>  (610) 
CCN(C(=O)c1ccc(Nc2ncc(C#N)c(NC)n2)c(OC)c1)C(C)C

>  <Name>  (610) 
nan

>  <Pocket>  (610) 
nan

>  <ATP_Site>  (610) 
nan

>  <Peripheral>  (610) 
nan

>  <Num_H_Atoms_ProtBoundConf>  (610) 
nan

>  <Num_Resolved_Atoms>  (610) 
nan

>  <Num_Not_Resolved_Atoms>  (610) 
nan

$$$$
CHEMBL3641873
     RDKit          3D

  0  0  0  0  0  0  0  0  0  0999 V3000
M  V30 BEGIN CTAB
M  V30 COUNTS 48 49 0 0 0
M  V30 BEGIN ATOM
M  V30 1 C 2.048134 -5.174598 -1.410265 0
M  V30 2 N 0.809363 -5.889143 -1.628284 0
M  V30 3 C -0.534456 -5.465845 -1.361095 0
M  V30 4 N -0.798508 -4.263481 -0.838210 0
M  V30 5 C -2.008096 -3.787047 -0.557624 0
M  V30 6 N -2.319507 -2.531356 -0.008981 0
M  V30 7 C -1.430213 -1.492663 0.369596 0
M  V30 8 C -0.058782 -1.548282 0.256707 0
M  V30 9 C 0.826907 -0.554834 0.616652 0
M  V30 10 C 0.316918 0.613909 1.141399 0
M  V30 11 C 1.243599 1.672346 1.525928 0
M  V30 12 O 2.461687 1.501349 1.373882 0
M  V30 13 N 0.822267 2.912697 2.075647 0
M  V30 14 C 1.860805 3.864303 2.407851 0
M  V30 15 C 2.830386 3.309237 3.436669 0
M  V30 16 C 2.632340 4.354012 1.217464 0
M  V30 17 C 1.184397 5.055924 3.090945 0
M  V30 18 C -1.048739 0.726954 1.278055 0
M  V30 19 C -1.896550 -0.292255 0.904801 0
M  V30 20 O -3.265895 -0.128983 1.062807 0
M  V30 21 C -3.786572 1.051487 1.593206 0
M  V30 22 N -3.012193 -4.630582 -0.845466 0
M  V30 23 C -2.857645 -5.843661 -1.365591 0
M  V30 24 C -1.593919 -6.289146 -1.636765 0
M  V30 25 C -1.314512 -7.573748 -2.195296 0
M  V30 26 N -1.076669 -8.614673 -2.663679 0
M  V30 27 H 2.599848 -5.155753 -2.369782 0
M  V30 28 H 2.692272 -5.691832 -0.679739 0
M  V30 29 H 1.819767 -4.178960 -1.026219 0
M  V30 30 H 0.972884 -6.820002 -2.030408 0
M  V30 31 H -3.326399 -2.303556 0.152882 0
M  V30 32 H 0.421436 -2.421821 -0.141923 0
M  V30 33 H 1.895603 -0.648845 0.507402 0
M  V30 34 H -0.193507 3.103530 2.222734 0
M  V30 35 H 3.074393 4.043404 4.217279 0
M  V30 36 H 3.739468 2.982546 2.888036 0
M  V30 37 H 2.421198 2.356652 3.880341 0
M  V30 38 H 2.140078 4.096518 0.252563 0
M  V30 39 H 3.682008 3.939681 1.191387 0
M  V30 40 H 2.771617 5.459225 1.303874 0
M  V30 41 H 0.340598 5.413684 2.466079 0
M  V30 42 H 0.696019 4.693114 4.039426 0
M  V30 43 H 1.904127 5.828604 3.367036 0
M  V30 44 H -1.485298 1.626010 1.684612 0
M  V30 45 H -4.890287 1.017529 1.625799 0
M  V30 46 H -3.473670 1.079100 2.672562 0
M  V30 47 H -3.401015 1.903531 1.004499 0
M  V30 48 H -3.691662 -6.471494 -1.574067 0
M  V30 END ATOM
M  V30 BEGIN BOND
M  V30 1 1 1 2
M  V30 2 1 2 3
M  V30 3 2 3 4
M  V30 4 1 4 5
M  V30 5 1 5 6
M  V30 6 1 6 7
M  V30 7 2 7 8
M  V30 8 1 8 9
M  V30 9 2 9 10
M  V30 10 1 10 11
M  V30 11 2 11 12
M  V30 12 1 11 13
M  V30 13 1 13 14
M  V30 14 1 14 15
M  V30 15 1 14 16
M  V30 16 1 14 17
M  V30 17 1 10 18
M  V30 18 2 18 19
M  V30 19 1 19 20
M  V30 20 1 20 21
M  V30 21 2 5 22
M  V30 22 1 22 23
M  V30 23 2 23 24
M  V30 24 1 24 25
M  V30 25 3 25 26
M  V30 26 1 24 3
M  V30 27 1 19 7
M  V30 28 1 1 27
M  V30 29 1 1 28
M  V30 30 1 1 29
M  V30 31 1 2 30
M  V30 32 1 6 31
M  V30 33 1 8 32
M  V30 34 1 9 33
M  V30 35 1 13 34
M  V30 36 1 15 35
M  V30 37 1 15 36
M  V30 38 1 15 37
M  V30 39 1 16 38
M  V30 40 1 16 39
M  V30 41 1 16 40
M  V30 42 1 17 41
M  V30 43 1 17 42
M  V30 44 1 17 43
M  V30 45 1 18 44
M  V30 46 1 21 45
M  V30 47 1 21 46
M  V30 48 1 21 47
M  V30 49 1 23 48
M  V30 END BOND
M  V30 END CTAB
M  END
>  <Dataset>  (611) 
ChEMBL_Kinases

>  <Ligand_Instance>  (611) 
nan

>  <PDB_ID>  (611) 
nan

>  <Standardized_SMILES>  (611) 
CNc1nc(Nc2ccc(C(=O)NC(C)(C)C)cc2OC)ncc1C#N

>  <Name>  (611) 
nan

>  <Pocket>  (611) 
nan

>  <ATP_Site>  (611) 
nan

>  <Peripheral>  (611) 
nan

>  <Num_H_Atoms_ProtBoundConf>  (611) 
nan

>  <Num_Resolved_Atoms>  (611) 
nan

>  <Num_Not_Resolved_Atoms>  (611) 
nan

$$$$
CHEMBL3641872
     RDKit          3D

  0  0  0  0  0  0  0  0  0  0999 V3000
M  V30 BEGIN CTAB
M  V30 COUNTS 42 43 0 0 0
M  V30 BEGIN ATOM
M  V30 1 C 0.259235 -4.519906 3.017261 0
M  V30 2 N -0.129074 -5.573429 2.075511 0
M  V30 3 C -0.329807 -5.203555 0.745239 0
M  V30 4 N -0.176586 -3.934205 0.440315 0
M  V30 5 C -0.304639 -3.302951 -0.730680 0
M  V30 6 N -0.160837 -1.923863 -0.730073 0
M  V30 7 C -0.020285 -0.555890 -0.735734 0
M  V30 8 C 0.190192 0.171747 -1.877645 0
M  V30 9 C 0.389561 1.520609 -1.846083 0
M  V30 10 C 0.380611 2.165847 -0.664808 0
M  V30 11 C 0.594369 3.503544 0.002663 0
M  V30 12 O -0.235740 4.305129 0.541116 0
M  V30 13 N 1.927553 4.048797 0.115066 0
M  V30 14 C 2.522378 5.222439 0.731972 0
M  V30 15 C 2.245686 5.169344 2.255252 0
M  V30 16 F 2.785474 6.193059 2.904089 0
M  V30 17 F 2.711296 3.921810 2.687967 0
M  V30 18 C 0.178174 1.553138 0.582323 0
M  V30 19 C -0.025829 0.148309 0.515657 0
M  V30 20 O -0.245438 -0.710588 1.607464 0
M  V30 21 C -0.314937 -0.388890 2.928890 0
M  V30 22 N -0.631917 -4.063427 -1.772603 0
M  V30 23 C -0.820305 -5.372304 -1.613367 0
M  V30 24 C -0.673919 -5.924812 -0.366304 0
M  V30 25 C -0.885163 -7.293244 -0.072666 0
M  V30 26 N -1.070295 -8.428970 0.190382 0
M  V30 27 H 0.865217 -3.745492 2.466995 0
M  V30 28 H 0.860696 -4.896511 3.850030 0
M  V30 29 H -0.678106 -4.066667 3.409477 0
M  V30 30 H -0.216685 -6.531310 2.487058 0
M  V30 31 H 0.637001 -1.947985 -0.025195 0
M  V30 32 H 0.213361 -0.232562 -2.874175 0
M  V30 33 H 0.557907 2.303676 -2.535441 0
M  V30 34 H 2.624691 3.423887 -0.396983 0
M  V30 35 H 2.186625 6.179650 0.353489 0
M  V30 36 H 3.616766 5.155921 0.638096 0
M  V30 37 H 1.128165 5.107389 2.341581 0
M  V30 38 H 0.124664 1.747848 1.642439 0
M  V30 39 H -1.363911 -0.622035 3.328172 0
M  V30 40 H 0.374360 -0.990506 3.579832 0
M  V30 41 H -0.140689 0.679198 3.208944 0
M  V30 42 H -1.084925 -6.084786 -2.373810 0
M  V30 END ATOM
M  V30 BEGIN BOND
M  V30 1 1 1 2
M  V30 2 1 2 3
M  V30 3 2 3 4
M  V30 4 1 4 5
M  V30 5 1 5 6
M  V30 6 1 6 7
M  V30 7 2 7 8
M  V30 8 1 8 9
M  V30 9 2 9 10
M  V30 10 1 10 11
M  V30 11 2 11 12
M  V30 12 1 11 13
M  V30 13 1 13 14
M  V30 14 1 14 15
M  V30 15 1 15 16
M  V30 16 1 15 17
M  V30 17 1 10 18
M  V30 18 2 18 19
M  V30 19 1 19 20
M  V30 20 1 20 21
M  V30 21 2 5 22
M  V30 22 1 22 23
M  V30 23 2 23 24
M  V30 24 1 24 25
M  V30 25 3 25 26
M  V30 26 1 24 3
M  V30 27 1 19 7
M  V30 28 1 1 27
M  V30 29 1 1 28
M  V30 30 1 1 29
M  V30 31 1 2 30
M  V30 32 1 6 31
M  V30 33 1 8 32
M  V30 34 1 9 33
M  V30 35 1 13 34
M  V30 36 1 14 35
M  V30 37 1 14 36
M  V30 38 1 15 37
M  V30 39 1 18 38
M  V30 40 1 21 39
M  V30 41 1 21 40
M  V30 42 1 21 41
M  V30 43 1 23 42
M  V30 END BOND
M  V30 END CTAB
M  END
>  <Dataset>  (612) 
ChEMBL_Kinases

>  <Ligand_Instance>  (612) 
nan

>  <PDB_ID>  (612) 
nan

>  <Standardized_SMILES>  (612) 
CNc1nc(Nc2ccc(C(=O)NCC(F)F)cc2OC)ncc1C#N

>  <Name>  (612) 
nan

>  <Pocket>  (612) 
nan

>  <ATP_Site>  (612) 
nan

>  <Peripheral>  (612) 
nan

>  <Num_H_Atoms_ProtBoundConf>  (612) 
nan

>  <Num_Resolved_Atoms>  (612) 
nan

>  <Num_Not_Resolved_Atoms>  (612) 
nan

$$$$
CHEMBL3641871
     RDKit          3D

  0  0  0  0  0  0  0  0  0  0999 V3000
M  V30 BEGIN CTAB
M  V30 COUNTS 49 51 0 0 0
M  V30 BEGIN ATOM
M  V30 1 C -0.068439 -5.638328 3.346458 0
M  V30 2 N 0.096125 -6.290273 2.064231 0
M  V30 3 C -0.308239 -5.704344 0.833026 0
M  V30 4 N -0.883661 -4.474122 0.806574 0
M  V30 5 C -1.272382 -3.908206 -0.358162 0
M  V30 6 N -1.875297 -2.620736 -0.347166 0
M  V30 7 C -1.329595 -1.287577 -0.427122 0
M  V30 8 C 0.047186 -1.311808 -0.531237 0
M  V30 9 C 0.661916 -0.059058 -0.615873 0
M  V30 10 C -0.051150 1.119026 -0.596617 0
M  V30 11 C 0.651084 2.390195 -0.679904 0
M  V30 12 O 0.830838 3.196739 -1.654197 0
M  V30 13 N 1.279647 2.881274 0.525395 0
M  V30 14 C 1.981223 4.158100 0.394452 0
M  V30 15 C 2.041200 4.917587 1.692239 0
M  V30 16 C 2.556934 4.102852 2.840608 0
M  V30 17 C 2.616189 2.625989 2.499948 0
M  V30 18 C 1.296557 2.259077 1.844485 0
M  V30 19 C -1.421475 1.045871 -0.489947 0
M  V30 20 C -2.116593 -0.139411 -0.401383 0
M  V30 21 O -3.418059 -0.413509 -0.291706 0
M  V30 22 C -4.563846 0.344307 -0.233433 0
M  V30 23 N -1.098031 -4.556419 -1.538611 0
M  V30 24 C -0.539263 -5.769129 -1.586968 0
M  V30 25 C -0.152105 -6.325055 -0.396665 0
M  V30 26 C 0.451529 -7.630746 -0.415681 0
M  V30 27 N 0.937796 -8.676049 -0.450472 0
M  V30 28 H 0.801895 -5.815578 4.013595 0
M  V30 29 H -1.003392 -5.887779 3.867775 0
M  V30 30 H -0.086095 -4.543942 3.161959 0
M  V30 31 H 0.533770 -7.249222 1.996029 0
M  V30 32 H -2.891273 -2.925284 -0.259970 0
M  V30 33 H 0.661927 -2.185167 -0.551303 0
M  V30 34 H 1.749276 0.025590 -0.700989 0
M  V30 35 H 1.384621 4.771481 -0.312218 0
M  V30 36 H 3.002442 3.996583 -0.019094 0
M  V30 37 H 2.720742 5.780644 1.524085 0
M  V30 38 H 1.033323 5.307838 1.950385 0
M  V30 39 H 3.577571 4.410069 3.188298 0
M  V30 40 H 1.923930 4.189538 3.756111 0
M  V30 41 H 2.740341 2.072466 3.438139 0
M  V30 42 H 3.461617 2.490089 1.796167 0
M  V30 43 H 0.497490 2.639845 2.510946 0
M  V30 44 H 1.299192 1.149354 1.783929 0
M  V30 45 H -2.052419 1.928987 -0.467470 0
M  V30 46 H -5.503457 -0.251364 -0.383220 0
M  V30 47 H -4.659465 0.973766 0.701897 0
M  V30 48 H -4.560132 1.090837 -1.054646 0
M  V30 49 H -0.389089 -6.312447 -2.527079 0
M  V30 END ATOM
M  V30 BEGIN BOND
M  V30 1 1 1 2
M  V30 2 1 2 3
M  V30 3 2 3 4
M  V30 4 1 4 5
M  V30 5 1 5 6
M  V30 6 1 6 7
M  V30 7 2 7 8
M  V30 8 1 8 9
M  V30 9 2 9 10
M  V30 10 1 10 11
M  V30 11 2 11 12
M  V30 12 1 11 13
M  V30 13 1 13 14
M  V30 14 1 14 15
M  V30 15 1 15 16
M  V30 16 1 16 17
M  V30 17 1 17 18
M  V30 18 1 10 19
M  V30 19 2 19 20
M  V30 20 1 20 21
M  V30 21 1 21 22
M  V30 22 2 5 23
M  V30 23 1 23 24
M  V30 24 2 24 25
M  V30 25 1 25 26
M  V30 26 3 26 27
M  V30 27 1 25 3
M  V30 28 1 20 7
M  V30 29 1 18 13
M  V30 30 1 1 28
M  V30 31 1 1 29
M  V30 32 1 1 30
M  V30 33 1 2 31
M  V30 34 1 6 32
M  V30 35 1 8 33
M  V30 36 1 9 34
M  V30 37 1 14 35
M  V30 38 1 14 36
M  V30 39 1 15 37
M  V30 40 1 15 38
M  V30 41 1 16 39
M  V30 42 1 16 40
M  V30 43 1 17 41
M  V30 44 1 17 42
M  V30 45 1 18 43
M  V30 46 1 18 44
M  V30 47 1 19 45
M  V30 48 1 22 46
M  V30 49 1 22 47
M  V30 50 1 22 48
M  V30 51 1 24 49
M  V30 END BOND
M  V30 END CTAB
M  END
>  <Dataset>  (613) 
ChEMBL_Kinases

>  <Ligand_Instance>  (613) 
nan

>  <PDB_ID>  (613) 
nan

>  <Standardized_SMILES>  (613) 
CNc1nc(Nc2ccc(C(=O)N3CCCCC3)cc2OC)ncc1C#N

>  <Name>  (613) 
nan

>  <Pocket>  (613) 
nan

>  <ATP_Site>  (613) 
nan

>  <Peripheral>  (613) 
nan

>  <Num_H_Atoms_ProtBoundConf>  (613) 
nan

>  <Num_Resolved_Atoms>  (613) 
nan

>  <Num_Not_Resolved_Atoms>  (613) 
nan

$$$$
CHEMBL3641870
     RDKit          3D

  0  0  0  0  0  0  0  0  0  0999 V3000
M  V30 BEGIN CTAB
M  V30 COUNTS 42 43 0 0 0
M  V30 BEGIN ATOM
M  V30 1 C -0.329392 -6.721840 2.324665 0
M  V30 2 C 0.952516 -6.092307 1.882524 0
M  V30 3 N 0.711689 -4.677320 1.608678 0
M  V30 4 C 1.788673 -3.858327 1.169700 0
M  V30 5 O 2.885353 -4.499397 1.066063 0
M  V30 6 C 1.645676 -2.437536 0.871927 0
M  V30 7 C 0.460682 -1.740987 0.982927 0
M  V30 8 C 0.484237 -0.399828 0.665276 0
M  V30 9 C 1.574701 0.329169 0.244202 0
M  V30 10 N 1.556983 1.690210 -0.068598 0
M  V30 11 C 0.484250 2.620146 -0.037764 0
M  V30 12 N 0.700402 3.900390 -0.385818 0
M  V30 13 C -0.264206 4.829471 -0.379705 0
M  V30 14 C -1.542468 4.480900 -0.003653 0
M  V30 15 C -2.648226 5.394983 0.038519 0
M  V30 16 N -3.534823 6.141494 0.075532 0
M  V30 17 C -1.791298 3.175808 0.357726 0
M  V30 18 N -3.097184 2.773830 0.752552 0
M  V30 19 C -3.514261 1.440286 1.159373 0
M  V30 20 N -0.768956 2.313017 0.322856 0
M  V30 21 C 2.750197 -0.424486 0.148689 0
M  V30 22 O 3.906958 0.214035 -0.266610 0
M  V30 23 C 5.107711 -0.526824 -0.370890 0
M  V30 24 C 2.774128 -1.765687 0.455403 0
M  V30 25 H -0.146159 -7.384258 3.177705 0
M  V30 26 H -1.130113 -5.979713 2.526152 0
M  V30 27 H -0.732320 -7.360237 1.502061 0
M  V30 28 H 1.303601 -6.564622 0.950806 0
M  V30 29 H 1.719226 -6.224239 2.670831 0
M  V30 30 H -0.239775 -4.256765 1.730178 0
M  V30 31 H -0.420719 -2.268970 1.309025 0
M  V30 32 H -0.476084 0.065011 0.778435 0
M  V30 33 H 2.493707 2.090707 -0.377828 0
M  V30 34 H -0.076935 5.851530 -0.660957 0
M  V30 35 H -3.866160 3.468415 0.768101 0
M  V30 36 H -4.256519 1.489777 1.993746 0
M  V30 37 H -4.005432 0.913555 0.322399 0
M  V30 38 H -2.652111 0.809599 1.465782 0
M  V30 39 H 5.321355 -1.061063 0.598581 0
M  V30 40 H 5.038102 -1.343599 -1.131277 0
M  V30 41 H 5.981707 0.100154 -0.567538 0
M  V30 42 H 3.716176 -2.297027 0.361941 0
M  V30 END ATOM
M  V30 BEGIN BOND
M  V30 1 1 1 2
M  V30 2 1 2 3
M  V30 3 1 3 4
M  V30 4 2 4 5
M  V30 5 1 4 6
M  V30 6 2 6 7
M  V30 7 1 7 8
M  V30 8 2 8 9
M  V30 9 1 9 10
M  V30 10 1 10 11
M  V30 11 2 11 12
M  V30 12 1 12 13
M  V30 13 2 13 14
M  V30 14 1 14 15
M  V30 15 3 15 16
M  V30 16 1 14 17
M  V30 17 1 17 18
M  V30 18 1 18 19
M  V30 19 2 17 20
M  V30 20 1 9 21
M  V30 21 1 21 22
M  V30 22 1 22 23
M  V30 23 2 21 24
M  V30 24 1 24 6
M  V30 25 1 20 11
M  V30 26 1 1 25
M  V30 27 1 1 26
M  V30 28 1 1 27
M  V30 29 1 2 28
M  V30 30 1 2 29
M  V30 31 1 3 30
M  V30 32 1 7 31
M  V30 33 1 8 32
M  V30 34 1 10 33
M  V30 35 1 13 34
M  V30 36 1 18 35
M  V30 37 1 19 36
M  V30 38 1 19 37
M  V30 39 1 19 38
M  V30 40 1 23 39
M  V30 41 1 23 40
M  V30 42 1 23 41
M  V30 43 1 24 42
M  V30 END BOND
M  V30 END CTAB
M  END
>  <Dataset>  (614) 
ChEMBL_Kinases

>  <Ligand_Instance>  (614) 
nan

>  <PDB_ID>  (614) 
nan

>  <Standardized_SMILES>  (614) 
CCNC(=O)c1ccc(Nc2ncc(C#N)c(NC)n2)c(OC)c1

>  <Name>  (614) 
nan

>  <Pocket>  (614) 
nan

>  <ATP_Site>  (614) 
nan

>  <Peripheral>  (614) 
nan

>  <Num_H_Atoms_ProtBoundConf>  (614) 
nan

>  <Num_Resolved_Atoms>  (614) 
nan

>  <Num_Not_Resolved_Atoms>  (614) 
nan

$$$$
CHEMBL3641869
     RDKit          3D

  0  0  0  0  0  0  0  0  0  0999 V3000
M  V30 BEGIN CTAB
M  V30 COUNTS 45 46 0 0 0
M  V30 BEGIN ATOM
M  V30 1 C -0.389554 -5.191795 3.844546 0
M  V30 2 N -1.848068 -5.057524 3.788684 0
M  V30 3 C -2.422145 -4.309618 2.698735 0
M  V30 4 N -1.621714 -3.752342 1.762046 0
M  V30 5 C -2.158697 -3.061144 0.758783 0
M  V30 6 N -1.145602 -2.552102 -0.132675 0
M  V30 7 C -0.479820 -1.289880 0.046797 0
M  V30 8 C -0.876176 -0.579831 1.159939 0
M  V30 9 C -0.250145 0.654260 1.380434 0
M  V30 10 C 0.718433 1.114364 0.504147 0
M  V30 11 C 1.331223 2.396396 0.786932 0
M  V30 12 O 0.926275 3.012042 1.815340 0
M  V30 13 N 2.334527 2.940641 -0.040815 0
M  V30 14 C 2.929074 4.244387 0.284063 0
M  V30 15 C 4.385719 3.970156 0.660119 0
M  V30 16 C 2.803121 5.220573 -0.839085 0
M  V30 17 C 1.066554 0.351596 -0.590684 0
M  V30 18 C 0.479813 -0.868617 -0.850785 0
M  V30 19 O 0.753080 -1.703127 -1.908695 0
M  V30 20 C 1.722844 -1.390576 -2.911081 0
M  V30 21 N -3.488347 -2.878333 0.616760 0
M  V30 22 C -4.335125 -3.413145 1.523696 0
M  V30 23 C -3.784756 -4.134836 2.572208 0
M  V30 24 C -4.664021 -4.720459 3.561380 0
M  V30 25 N -5.366617 -5.196815 4.357145 0
M  V30 26 H -0.016437 -5.265787 2.794931 0
M  V30 27 H -0.012421 -4.220753 4.272466 0
M  V30 28 H -0.074134 -6.059598 4.439907 0
M  V30 29 H -2.513489 -5.465878 4.484845 0
M  V30 30 H -1.015712 -3.255971 -0.881800 0
M  V30 31 H -1.635126 -0.936647 1.849514 0
M  V30 32 H -0.598624 1.184971 2.280148 0
M  V30 33 H 2.691486 2.462186 -0.893595 0
M  V30 34 H 2.451970 4.637445 1.181555 0
M  V30 35 H 4.661555 2.907726 0.497409 0
M  V30 36 H 4.604187 4.251780 1.716396 0
M  V30 37 H 5.019174 4.601828 0.007696 0
M  V30 38 H 2.993763 4.762052 -1.834669 0
M  V30 39 H 3.564563 5.995702 -0.688280 0
M  V30 40 H 1.770685 5.604893 -0.852241 0
M  V30 41 H 1.812286 0.678588 -1.289362 0
M  V30 42 H 2.747166 -1.573761 -2.545142 0
M  V30 43 H 1.648654 -0.303230 -3.196908 0
M  V30 44 H 1.487526 -1.925949 -3.862873 0
M  V30 45 H -5.378119 -3.256872 1.392214 0
M  V30 END ATOM
M  V30 BEGIN BOND
M  V30 1 1 1 2
M  V30 2 1 2 3
M  V30 3 2 3 4
M  V30 4 1 4 5
M  V30 5 1 5 6
M  V30 6 1 6 7
M  V30 7 2 7 8
M  V30 8 1 8 9
M  V30 9 2 9 10
M  V30 10 1 10 11
M  V30 11 2 11 12
M  V30 12 1 11 13
M  V30 13 1 13 14
M  V30 14 1 14 15
M  V30 15 1 14 16
M  V30 16 1 10 17
M  V30 17 2 17 18
M  V30 18 1 18 19
M  V30 19 1 19 20
M  V30 20 2 5 21
M  V30 21 1 21 22
M  V30 22 2 22 23
M  V30 23 1 23 24
M  V30 24 3 24 25
M  V30 25 1 23 3
M  V30 26 1 18 7
M  V30 27 1 1 26
M  V30 28 1 1 27
M  V30 29 1 1 28
M  V30 30 1 2 29
M  V30 31 1 6 30
M  V30 32 1 8 31
M  V30 33 1 9 32
M  V30 34 1 13 33
M  V30 35 1 14 34
M  V30 36 1 15 35
M  V30 37 1 15 36
M  V30 38 1 15 37
M  V30 39 1 16 38
M  V30 40 1 16 39
M  V30 41 1 16 40
M  V30 42 1 17 41
M  V30 43 1 20 42
M  V30 44 1 20 43
M  V30 45 1 20 44
M  V30 46 1 22 45
M  V30 END BOND
M  V30 END CTAB
M  END
>  <Dataset>  (615) 
ChEMBL_Kinases

>  <Ligand_Instance>  (615) 
nan

>  <PDB_ID>  (615) 
nan

>  <Standardized_SMILES>  (615) 
CNc1nc(Nc2ccc(C(=O)NC(C)C)cc2OC)ncc1C#N

>  <Name>  (615) 
nan

>  <Pocket>  (615) 
nan

>  <ATP_Site>  (615) 
nan

>  <Peripheral>  (615) 
nan

>  <Num_H_Atoms_ProtBoundConf>  (615) 
nan

>  <Num_Resolved_Atoms>  (615) 
nan

>  <Num_Not_Resolved_Atoms>  (615) 
nan

$$$$
CHEMBL3641868
     RDKit          3D

  0  0  0  0  0  0  0  0  0  0999 V3000
M  V30 BEGIN CTAB
M  V30 COUNTS 48 49 0 0 0
M  V30 BEGIN ATOM
M  V30 1 C 2.121254 -3.018704 4.495658 0
M  V30 2 C 1.217878 -3.950921 3.757504 0
M  V30 3 N 1.547171 -4.105950 2.350418 0
M  V30 4 C 2.471093 -5.173823 2.015843 0
M  V30 5 C 3.892304 -4.705674 2.003544 0
M  V30 6 C 1.123622 -3.397142 1.185091 0
M  V30 7 O 1.507409 -3.650962 -0.000809 0
M  V30 8 C 0.267312 -2.303185 0.764817 0
M  V30 9 C 0.728667 -0.989852 0.842686 0
M  V30 10 C -0.038483 0.087034 0.464042 0
M  V30 11 C -1.296257 -0.206184 0.000787 0
M  V30 12 N -2.139148 0.899345 -0.379700 0
M  V30 13 C -1.677295 2.240749 -0.302045 0
M  V30 14 N -1.550549 2.570175 1.017755 0
M  V30 15 C -1.129559 3.814831 1.395055 0
M  V30 16 C -0.858445 4.665171 0.345485 0
M  V30 17 C -0.417608 5.974854 0.713829 0
M  V30 18 N -0.044456 7.059816 1.000305 0
M  V30 19 C -0.972397 4.377788 -0.996271 0
M  V30 20 N -0.685074 5.299045 -2.035887 0
M  V30 21 C -0.822207 4.961473 -3.440915 0
M  V30 22 N -1.394832 3.122788 -1.275754 0
M  V30 23 C -1.863318 -1.449281 -0.124592 0
M  V30 24 O -3.151365 -1.725058 -0.604249 0
M  V30 25 C -3.562435 -3.066616 -0.648748 0
M  V30 26 C -1.015589 -2.472458 0.280998 0
M  V30 27 H 2.251688 -3.411824 5.534004 0
M  V30 28 H 3.115763 -2.877351 4.066467 0
M  V30 29 H 1.665628 -2.013526 4.638582 0
M  V30 30 H 1.254558 -4.953468 4.248460 0
M  V30 31 H 0.164033 -3.591425 3.893465 0
M  V30 32 H 2.238484 -5.649270 1.043848 0
M  V30 33 H 2.380619 -5.977749 2.785662 0
M  V30 34 H 3.939459 -3.582910 1.926431 0
M  V30 35 H 4.381452 -5.072662 1.083678 0
M  V30 36 H 4.505318 -5.084486 2.859624 0
M  V30 37 H 1.733379 -0.786573 1.215665 0
M  V30 38 H 0.315974 1.107175 0.525050 0
M  V30 39 H -3.114367 0.805490 -0.726914 0
M  V30 40 H -1.016047 4.117802 2.417063 0
M  V30 41 H -0.367096 6.238593 -1.713985 0
M  V30 42 H -1.821265 5.309456 -3.832218 0
M  V30 43 H -0.013189 5.429890 -4.053586 0
M  V30 44 H -0.720504 3.859617 -3.521540 0
M  V30 45 H -3.115750 -3.618191 -1.499094 0
M  V30 46 H -3.320334 -3.604964 0.293235 0
M  V30 47 H -4.666531 -3.163393 -0.759311 0
M  V30 48 H -1.304941 -3.504705 0.245289 0
M  V30 END ATOM
M  V30 BEGIN BOND
M  V30 1 1 1 2
M  V30 2 1 2 3
M  V30 3 1 3 4
M  V30 4 1 4 5
M  V30 5 1 3 6
M  V30 6 2 6 7
M  V30 7 1 6 8
M  V30 8 2 8 9
M  V30 9 1 9 10
M  V30 10 2 10 11
M  V30 11 1 11 12
M  V30 12 1 12 13
M  V30 13 2 13 14
M  V30 14 1 14 15
M  V30 15 2 15 16
M  V30 16 1 16 17
M  V30 17 3 17 18
M  V30 18 1 16 19
M  V30 19 1 19 20
M  V30 20 1 20 21
M  V30 21 2 19 22
M  V30 22 1 11 23
M  V30 23 1 23 24
M  V30 24 1 24 25
M  V30 25 2 23 26
M  V30 26 1 26 8
M  V30 27 1 22 13
M  V30 28 1 1 27
M  V30 29 1 1 28
M  V30 30 1 1 29
M  V30 31 1 2 30
M  V30 32 1 2 31
M  V30 33 1 4 32
M  V30 34 1 4 33
M  V30 35 1 5 34
M  V30 36 1 5 35
M  V30 37 1 5 36
M  V30 38 1 9 37
M  V30 39 1 10 38
M  V30 40 1 12 39
M  V30 41 1 15 40
M  V30 42 1 20 41
M  V30 43 1 21 42
M  V30 44 1 21 43
M  V30 45 1 21 44
M  V30 46 1 25 45
M  V30 47 1 25 46
M  V30 48 1 25 47
M  V30 49 1 26 48
M  V30 END BOND
M  V30 END CTAB
M  END
>  <Dataset>  (616) 
ChEMBL_Kinases

>  <Ligand_Instance>  (616) 
nan

>  <PDB_ID>  (616) 
nan

>  <Standardized_SMILES>  (616) 
CCN(CC)C(=O)c1ccc(Nc2ncc(C#N)c(NC)n2)c(OC)c1

>  <Name>  (616) 
nan

>  <Pocket>  (616) 
nan

>  <ATP_Site>  (616) 
nan

>  <Peripheral>  (616) 
nan

>  <Num_H_Atoms_ProtBoundConf>  (616) 
nan

>  <Num_Resolved_Atoms>  (616) 
nan

>  <Num_Not_Resolved_Atoms>  (616) 
nan

$$$$
CHEMBL3641867
     RDKit          3D

  0  0  0  0  0  0  0  0  0  0999 V3000
M  V30 BEGIN CTAB
M  V30 COUNTS 39 40 0 0 0
M  V30 BEGIN ATOM
M  V30 1 C -0.456564 -6.410322 1.911297 0
M  V30 2 N -0.031693 -5.062781 1.631709 0
M  V30 3 C 1.366097 -4.660469 1.544561 0
M  V30 4 O 2.315498 -5.484191 1.769460 0
M  V30 5 C 1.311299 -3.284715 1.155604 0
M  V30 6 C 2.037919 -3.204562 -0.076324 0
M  V30 7 C 1.899277 -2.037955 -0.677844 0
M  V30 8 C 1.107341 -1.051450 -0.183917 0
M  V30 9 N 0.513649 0.000506 -0.665389 0
M  V30 10 C -0.149014 1.206447 -1.220771 0
M  V30 11 N -1.230993 1.597693 -2.006551 0
M  V30 12 C -1.635397 2.844997 -1.756389 0
M  V30 13 C -0.966170 3.598186 -0.812044 0
M  V30 14 C -1.349217 4.929898 -0.522623 0
M  V30 15 N -1.667375 6.081020 -0.257283 0
M  V30 16 C 0.101897 3.209316 -0.043046 0
M  V30 17 N 0.848241 4.019468 0.944107 0
M  V30 18 C 1.942407 3.276748 1.612052 0
M  V30 19 N 0.526188 1.916319 -0.265750 0
M  V30 20 C 0.442969 -1.299599 1.112167 0
M  V30 21 O -0.333985 -0.247404 1.600700 0
M  V30 22 C -1.085513 -0.083419 2.737721 0
M  V30 23 C 0.479309 -2.411624 1.872774 0
M  V30 24 H -1.418705 -6.368163 2.382694 0
M  V30 25 H 0.303269 -6.890861 2.513532 0
M  V30 26 H -0.622681 -6.970515 0.926572 0
M  V30 27 H -0.825616 -4.339954 1.648380 0
M  V30 28 H 2.677056 -3.950370 -0.563314 0
M  V30 29 H 2.297458 -1.609231 -1.611644 0
M  V30 30 H -0.523408 -0.405911 -0.969099 0
M  V30 31 H -2.460246 3.105643 -2.346779 0
M  V30 32 H 0.532501 5.039455 0.980784 0
M  V30 33 H 1.940825 3.441190 2.711172 0
M  V30 34 H 1.691134 2.156416 1.491457 0
M  V30 35 H 2.955898 3.408755 1.186651 0
M  V30 36 H -2.046772 0.460752 2.437771 0
M  V30 37 H -1.378250 -1.021489 3.250060 0
M  V30 38 H -0.557608 0.535412 3.512209 0
M  V30 39 H 0.035942 -2.674041 2.791449 0
M  V30 END ATOM
M  V30 BEGIN BOND
M  V30 1 1 1 2
M  V30 2 1 2 3
M  V30 3 2 3 4
M  V30 4 1 3 5
M  V30 5 2 5 6
M  V30 6 1 6 7
M  V30 7 2 7 8
M  V30 8 1 8 9
M  V30 9 1 9 10
M  V30 10 2 10 11
M  V30 11 1 11 12
M  V30 12 2 12 13
M  V30 13 1 13 14
M  V30 14 3 14 15
M  V30 15 1 13 16
M  V30 16 1 16 17
M  V30 17 1 17 18
M  V30 18 2 16 19
M  V30 19 1 8 20
M  V30 20 1 20 21
M  V30 21 1 21 22
M  V30 22 2 20 23
M  V30 23 1 23 5
M  V30 24 1 19 10
M  V30 25 1 1 24
M  V30 26 1 1 25
M  V30 27 1 1 26
M  V30 28 1 2 27
M  V30 29 1 6 28
M  V30 30 1 7 29
M  V30 31 1 9 30
M  V30 32 1 12 31
M  V30 33 1 17 32
M  V30 34 1 18 33
M  V30 35 1 18 34
M  V30 36 1 18 35
M  V30 37 1 22 36
M  V30 38 1 22 37
M  V30 39 1 22 38
M  V30 40 1 23 39
M  V30 END BOND
M  V30 END CTAB
M  END
>  <Dataset>  (617) 
ChEMBL_Kinases

>  <Ligand_Instance>  (617) 
nan

>  <PDB_ID>  (617) 
nan

>  <Standardized_SMILES>  (617) 
CNC(=O)c1ccc(Nc2ncc(C#N)c(NC)n2)c(OC)c1

>  <Name>  (617) 
nan

>  <Pocket>  (617) 
nan

>  <ATP_Site>  (617) 
nan

>  <Peripheral>  (617) 
nan

>  <Num_H_Atoms_ProtBoundConf>  (617) 
nan

>  <Num_Resolved_Atoms>  (617) 
nan

>  <Num_Not_Resolved_Atoms>  (617) 
nan

$$$$
CHEMBL3641866
     RDKit          3D

  0  0  0  0  0  0  0  0  0  0999 V3000
M  V30 BEGIN CTAB
M  V30 COUNTS 46 48 0 0 0
M  V30 BEGIN ATOM
M  V30 1 C -1.145186 -3.656301 5.170510 0
M  V30 2 N -1.107177 -4.603166 4.069571 0
M  V30 3 C -1.330687 -4.446612 2.689260 0
M  V30 4 N -1.630915 -3.178588 2.338088 0
M  V30 5 C -1.868047 -2.896716 1.026966 0
M  V30 6 N -2.219837 -1.731489 0.260869 0
M  V30 7 C -1.299732 -0.727898 -0.215992 0
M  V30 8 C 0.017422 -0.963137 0.205589 0
M  V30 9 C 0.971849 -0.053817 -0.178773 0
M  V30 10 C 0.719340 1.055704 -0.939973 0
M  V30 11 C 1.817827 1.923861 -1.274670 0
M  V30 12 O 2.025454 1.909760 -2.522285 0
M  V30 13 N 2.433773 2.600849 -0.189035 0
M  V30 14 C 2.492802 2.880387 1.225286 0
M  V30 15 C 3.837624 2.322394 1.605348 0
M  V30 16 C 4.693322 2.811696 0.427324 0 CFG=2
M  V30 17 F 5.550078 3.759269 0.883999 0
M  V30 18 C 3.604681 3.459572 -0.442934 0
M  V30 19 C -0.579729 1.237618 -1.324012 0
M  V30 20 C -1.605211 0.400099 -0.999583 0
M  V30 21 O -2.936829 0.434481 -1.297343 0
M  V30 22 C -3.515293 1.475844 -2.083851 0
M  V30 23 N -1.795697 -3.893394 0.113569 0
M  V30 24 C -1.496936 -5.170868 0.438225 0
M  V30 25 C -1.257495 -5.457940 1.756437 0
M  V30 26 C -0.931317 -6.764506 2.230538 0
M  V30 27 N -0.666980 -7.849296 2.603112 0
M  V30 28 H -0.823726 -4.155123 6.103978 0
M  V30 29 H -0.429274 -2.822960 5.019641 0
M  V30 30 H -2.187343 -3.290460 5.310414 0
M  V30 31 H -0.872679 -5.614470 4.317347 0
M  V30 32 H -3.212609 -1.529160 -0.020938 0
M  V30 33 H 0.275913 -1.818062 0.805174 0
M  V30 34 H 1.997822 -0.248274 0.158619 0
M  V30 35 H 1.654093 2.430448 1.802703 0
M  V30 36 H 2.539202 3.989502 1.401696 0
M  V30 37 H 3.797242 1.221471 1.562420 0
M  V30 38 H 4.225803 2.730215 2.560441 0
M  V30 39 H 5.154442 1.949929 -0.095930 0
M  V30 40 H 3.402441 4.483504 -0.092467 0
M  V30 41 H 3.934073 3.406343 -1.490332 0
M  V30 42 H -0.864321 2.072829 -1.915297 0
M  V30 43 H -4.512560 1.137863 -2.494766 0
M  V30 44 H -2.847224 1.780206 -2.931843 0
M  V30 45 H -3.703258 2.386558 -1.492612 0
M  V30 46 H -1.416844 -6.034636 -0.196585 0
M  V30 END ATOM
M  V30 BEGIN BOND
M  V30 1 1 1 2
M  V30 2 1 2 3
M  V30 3 2 3 4
M  V30 4 1 4 5
M  V30 5 1 5 6
M  V30 6 1 6 7
M  V30 7 2 7 8
M  V30 8 1 8 9
M  V30 9 2 9 10
M  V30 10 1 10 11
M  V30 11 2 11 12
M  V30 12 1 11 13
M  V30 13 1 13 14
M  V30 14 1 14 15
M  V30 15 1 15 16
M  V30 16 1 16 17
M  V30 17 1 16 18
M  V30 18 1 10 19
M  V30 19 2 19 20
M  V30 20 1 20 21
M  V30 21 1 21 22
M  V30 22 2 5 23
M  V30 23 1 23 24
M  V30 24 2 24 25
M  V30 25 1 25 26
M  V30 26 3 26 27
M  V30 27 1 25 3
M  V30 28 1 20 7
M  V30 29 1 18 13
M  V30 30 1 1 28
M  V30 31 1 1 29
M  V30 32 1 1 30
M  V30 33 1 2 31
M  V30 34 1 6 32
M  V30 35 1 8 33
M  V30 36 1 9 34
M  V30 37 1 14 35
M  V30 38 1 14 36
M  V30 39 1 15 37
M  V30 40 1 15 38
M  V30 41 1 16 39 CFG=3
M  V30 42 1 18 40
M  V30 43 1 18 41
M  V30 44 1 19 42
M  V30 45 1 22 43
M  V30 46 1 22 44
M  V30 47 1 22 45
M  V30 48 1 24 46
M  V30 END BOND
M  V30 END CTAB
M  END
>  <Dataset>  (618) 
ChEMBL_Kinases

>  <Ligand_Instance>  (618) 
nan

>  <PDB_ID>  (618) 
nan

>  <Standardized_SMILES>  (618) 
CNc1nc(Nc2ccc(C(=O)N3CC[C@H](F)C3)cc2OC)ncc1C#N

>  <Name>  (618) 
nan

>  <Pocket>  (618) 
nan

>  <ATP_Site>  (618) 
nan

>  <Peripheral>  (618) 
nan

>  <Num_H_Atoms_ProtBoundConf>  (618) 
nan

>  <Num_Resolved_Atoms>  (618) 
nan

>  <Num_Not_Resolved_Atoms>  (618) 
nan

$$$$
CHEMBL3641865
     RDKit          3D

  0  0  0  0  0  0  0  0  0  0999 V3000
M  V30 BEGIN CTAB
M  V30 COUNTS 46 48 0 0 0
M  V30 BEGIN ATOM
M  V30 1 C -1.427800 -2.557122 4.404869 0
M  V30 2 N -2.732611 -3.136049 4.104270 0
M  V30 3 C -3.341243 -3.077060 2.834970 0
M  V30 4 N -2.737341 -2.469492 1.809511 0
M  V30 5 C -3.214569 -2.350628 0.565777 0
M  V30 6 N -2.582714 -1.708567 -0.529220 0
M  V30 7 C -1.325697 -1.057801 -0.560454 0
M  V30 8 C -0.473346 -0.937289 0.515495 0
M  V30 9 C 0.754681 -0.309255 0.511184 0
M  V30 10 C 1.186585 0.256744 -0.670975 0
M  V30 11 C 2.461982 0.950061 -0.815207 0
M  V30 12 O 2.869462 1.478052 -1.905613 0
M  V30 13 N 3.380729 1.109256 0.240339 0
M  V30 14 C 4.649002 1.820446 0.023280 0
M  V30 15 C 5.461087 1.861457 1.295394 0
M  V30 16 C 4.936133 2.503633 2.512193 0
M  V30 17 C 6.082658 3.162299 1.751336 0
M  V30 18 C 0.370680 0.164565 -1.780274 0
M  V30 19 C -0.848206 -0.474574 -1.721983 0
M  V30 20 O -1.621412 -0.535122 -2.864863 0
M  V30 21 C -1.183805 0.045044 -4.084812 0
M  V30 22 N -4.418726 -2.910614 0.376387 0
M  V30 23 C -5.110358 -3.543297 1.334312 0
M  V30 24 C -4.566430 -3.633442 2.596410 0
M  V30 25 C -5.295608 -4.301806 3.610755 0
M  V30 26 N -5.878469 -4.855559 4.446862 0
M  V30 27 H -0.765444 -2.636471 3.519129 0
M  V30 28 H -0.957103 -3.061534 5.268085 0
M  V30 29 H -1.551600 -1.474304 4.667910 0
M  V30 30 H -3.225870 -3.614500 4.881736 0
M  V30 31 H -3.106314 -1.707169 -1.450139 0
M  V30 32 H -0.736713 -1.349397 1.465460 0
M  V30 33 H 1.386330 -0.239947 1.376969 0
M  V30 34 H 3.171616 0.724754 1.186484 0
M  V30 35 H 4.406327 2.867564 -0.260715 0
M  V30 36 H 5.236257 1.369567 -0.790248 0
M  V30 37 H 6.126973 0.984170 1.453004 0
M  V30 38 H 3.974973 3.071415 2.481728 0
M  V30 39 H 5.149929 2.066317 3.512102 0
M  V30 40 H 5.857521 4.080193 1.181089 0
M  V30 41 H 7.063118 3.143292 2.278814 0
M  V30 42 H 0.702727 0.604932 -2.707732 0
M  V30 43 H -1.996635 0.066116 -4.841016 0
M  V30 44 H -0.823915 1.088206 -3.967151 0
M  V30 45 H -0.331966 -0.548977 -4.470616 0
M  V30 46 H -6.086580 -3.974577 1.103065 0
M  V30 END ATOM
M  V30 BEGIN BOND
M  V30 1 1 1 2
M  V30 2 1 2 3
M  V30 3 2 3 4
M  V30 4 1 4 5
M  V30 5 1 5 6
M  V30 6 1 6 7
M  V30 7 2 7 8
M  V30 8 1 8 9
M  V30 9 2 9 10
M  V30 10 1 10 11
M  V30 11 2 11 12
M  V30 12 1 11 13
M  V30 13 1 13 14
M  V30 14 1 14 15
M  V30 15 1 15 16
M  V30 16 1 16 17
M  V30 17 1 10 18
M  V30 18 2 18 19
M  V30 19 1 19 20
M  V30 20 1 20 21
M  V30 21 2 5 22
M  V30 22 1 22 23
M  V30 23 2 23 24
M  V30 24 1 24 25
M  V30 25 3 25 26
M  V30 26 1 24 3
M  V30 27 1 19 7
M  V30 28 1 17 15
M  V30 29 1 1 27
M  V30 30 1 1 28
M  V30 31 1 1 29
M  V30 32 1 2 30
M  V30 33 1 6 31
M  V30 34 1 8 32
M  V30 35 1 9 33
M  V30 36 1 13 34
M  V30 37 1 14 35
M  V30 38 1 14 36
M  V30 39 1 15 37
M  V30 40 1 16 38
M  V30 41 1 16 39
M  V30 42 1 17 40
M  V30 43 1 17 41
M  V30 44 1 18 42
M  V30 45 1 21 43
M  V30 46 1 21 44
M  V30 47 1 21 45
M  V30 48 1 23 46
M  V30 END BOND
M  V30 END CTAB
M  END
>  <Dataset>  (619) 
ChEMBL_Kinases

>  <Ligand_Instance>  (619) 
nan

>  <PDB_ID>  (619) 
nan

>  <Standardized_SMILES>  (619) 
CNc1nc(Nc2ccc(C(=O)NCC3CC3)cc2OC)ncc1C#N

>  <Name>  (619) 
nan

>  <Pocket>  (619) 
nan

>  <ATP_Site>  (619) 
nan

>  <Peripheral>  (619) 
nan

>  <Num_H_Atoms_ProtBoundConf>  (619) 
nan

>  <Num_Resolved_Atoms>  (619) 
nan

>  <Num_Not_Resolved_Atoms>  (619) 
nan

$$$$
CHEMBL3641864
     RDKit          3D

  0  0  0  0  0  0  0  0  0  0999 V3000
M  V30 BEGIN CTAB
M  V30 COUNTS 46 48 0 0 0
M  V30 BEGIN ATOM
M  V30 1 C -4.403282 -4.668129 1.742939 0
M  V30 2 N -3.228753 -5.396821 1.329441 0
M  V30 3 C -2.176012 -4.961113 0.494400 0
M  V30 4 N -2.286739 -3.689731 0.020117 0
M  V30 5 C -1.297375 -3.232365 -0.785736 0
M  V30 6 N -1.158619 -1.963752 -1.410405 0
M  V30 7 C -0.477627 -0.828616 -0.882683 0
M  V30 8 C 0.130823 -0.911969 0.342516 0
M  V30 9 C 0.826474 0.109970 0.966078 0
M  V30 10 C 0.916046 1.331042 0.288506 0
M  V30 11 C 1.611093 2.512873 0.795433 0
M  V30 12 O 1.669843 3.584494 0.139313 0
M  V30 13 N 2.247313 2.482502 2.059363 0
M  V30 14 C 2.937039 3.641353 2.569531 0
M  V30 15 C 2.681534 3.965425 4.018249 0
M  V30 16 C 3.846905 3.066388 4.400447 0
M  V30 17 F 4.696500 3.563642 5.345284 0
M  V30 18 F 3.444643 1.764496 4.690433 0
M  V30 19 C 4.343406 3.254591 2.975973 0
M  V30 20 C 0.304971 1.423670 -0.947872 0
M  V30 21 C -0.380206 0.380673 -1.536555 0
M  V30 22 O -1.000038 0.456729 -2.777583 0
M  V30 23 C -0.946397 1.654437 -3.506663 0
M  V30 24 N -0.267924 -4.035771 -1.078680 0
M  V30 25 C -0.103318 -5.287302 -0.646007 0
M  V30 26 C -1.104860 -5.781094 0.183111 0
M  V30 27 C -1.071374 -7.118516 0.734177 0
M  V30 28 N -1.054522 -8.191279 1.167775 0
M  V30 29 H -4.350304 -3.579525 1.559307 0
M  V30 30 H -4.593006 -4.797436 2.838681 0
M  V30 31 H -5.330141 -5.058175 1.259232 0
M  V30 32 H -3.192218 -6.362636 1.718282 0
M  V30 33 H -1.626689 -1.938993 -2.342271 0
M  V30 34 H 0.075808 -1.849481 0.890888 0
M  V30 35 H 1.302614 0.033492 1.930687 0
M  V30 36 H 2.262020 1.650297 2.687355 0
M  V30 37 H 2.963725 4.536708 1.924597 0
M  V30 38 H 1.762317 3.585219 4.471214 0
M  V30 39 H 2.887543 4.998831 4.301654 0
M  V30 40 H 4.707075 2.272071 2.597782 0
M  V30 41 H 5.117601 4.011966 2.857959 0
M  V30 42 H 0.366623 2.371042 -1.490244 0
M  V30 43 H -1.135457 2.549434 -2.854824 0
M  V30 44 H -1.789515 1.613501 -4.248511 0
M  V30 45 H 0.024833 1.714961 -4.011799 0
M  V30 46 H 0.735926 -5.923570 -0.892992 0
M  V30 END ATOM
M  V30 BEGIN BOND
M  V30 1 1 1 2
M  V30 2 1 2 3
M  V30 3 2 3 4
M  V30 4 1 4 5
M  V30 5 1 5 6
M  V30 6 1 6 7
M  V30 7 2 7 8
M  V30 8 1 8 9
M  V30 9 2 9 10
M  V30 10 1 10 11
M  V30 11 2 11 12
M  V30 12 1 11 13
M  V30 13 1 13 14
M  V30 14 1 14 15
M  V30 15 1 15 16
M  V30 16 1 16 17
M  V30 17 1 16 18
M  V30 18 1 16 19
M  V30 19 1 10 20
M  V30 20 2 20 21
M  V30 21 1 21 22
M  V30 22 1 22 23
M  V30 23 2 5 24
M  V30 24 1 24 25
M  V30 25 2 25 26
M  V30 26 1 26 27
M  V30 27 3 27 28
M  V30 28 1 26 3
M  V30 29 1 21 7
M  V30 30 1 19 14
M  V30 31 1 1 29
M  V30 32 1 1 30
M  V30 33 1 1 31
M  V30 34 1 2 32
M  V30 35 1 6 33
M  V30 36 1 8 34
M  V30 37 1 9 35
M  V30 38 1 13 36
M  V30 39 1 14 37
M  V30 40 1 15 38
M  V30 41 1 15 39
M  V30 42 1 19 40
M  V30 43 1 19 41
M  V30 44 1 20 42
M  V30 45 1 23 43
M  V30 46 1 23 44
M  V30 47 1 23 45
M  V30 48 1 25 46
M  V30 END BOND
M  V30 END CTAB
M  END
>  <Dataset>  (620) 
ChEMBL_Kinases

>  <Ligand_Instance>  (620) 
nan

>  <PDB_ID>  (620) 
nan

>  <Standardized_SMILES>  (620) 
CNc1nc(Nc2ccc(C(=O)NC3CC(F)(F)C3)cc2OC)ncc1C#N

>  <Name>  (620) 
nan

>  <Pocket>  (620) 
nan

>  <ATP_Site>  (620) 
nan

>  <Peripheral>  (620) 
nan

>  <Num_H_Atoms_ProtBoundConf>  (620) 
nan

>  <Num_Resolved_Atoms>  (620) 
nan

>  <Num_Not_Resolved_Atoms>  (620) 
nan

$$$$
CHEMBL3641846
     RDKit          3D

  0  0  0  0  0  0  0  0  0  0999 V3000
M  V30 BEGIN CTAB
M  V30 COUNTS 53 55 0 0 0
M  V30 BEGIN ATOM
M  V30 1 C -0.306185 -6.158846 4.435558 0
M  V30 2 N 0.669720 -5.724195 3.529754 0
M  V30 3 C 1.592172 -5.261091 2.581899 0
M  V30 4 N 1.624241 -4.615221 1.443561 0
M  V30 5 C 2.675557 -4.289283 0.721470 0
M  V30 6 N 2.289390 -3.597430 -0.457788 0
M  V30 7 C 1.882867 -2.244029 -0.578491 0
M  V30 8 C 1.822190 -1.587013 0.633901 0
M  V30 9 C 1.428677 -0.277688 0.720659 0
M  V30 10 O 1.272669 0.625702 1.751070 0
M  V30 11 C 1.532685 0.266910 3.079430 0
M  V30 12 C 1.083665 0.393742 -0.457777 0
M  V30 13 C 0.607684 1.786738 -0.616838 0
M  V30 14 O 1.600539 2.579594 -0.742418 0
M  V30 15 N -0.779836 2.105262 -0.617251 0
M  V30 16 C -1.792469 1.048683 -0.472309 0
M  V30 17 C -2.922991 1.557435 -1.360941 0 CFG=1
M  V30 18 C -3.910875 0.529926 -1.747875 0
M  V30 19 N -3.466078 2.672100 -0.625223 0
M  V30 20 C -2.572910 3.787895 -0.855035 0 CFG=1
M  V30 21 C -2.942148 4.982332 0.005451 0
M  V30 22 C -1.125130 3.488021 -0.765000 0
M  V30 23 C 1.139228 -0.252366 -1.694359 0
M  V30 24 C 1.541099 -1.569162 -1.728441 0
M  V30 25 Cl 1.653727 -2.493950 -3.208343 0
M  V30 26 N 3.853689 -4.672665 1.223930 0
M  V30 27 C 3.978320 -5.331261 2.360258 0
M  V30 28 C 2.842357 -5.650121 3.083193 0
M  V30 29 Cl 3.248844 -6.528183 4.558915 0
M  V30 30 H 0.185927 -6.642926 5.352509 0
M  V30 31 H -0.997059 -5.380002 4.837856 0
M  V30 32 H -0.929774 -7.017474 4.055096 0
M  V30 33 H -0.138804 -5.331388 2.941155 0
M  V30 34 H 2.286888 -4.103110 -1.377864 0
M  V30 35 H 2.053477 -1.951997 1.643646 0
M  V30 36 H 2.641550 0.159995 3.184153 0
M  V30 37 H 0.992040 -0.646597 3.311078 0
M  V30 38 H 1.157674 1.084693 3.760072 0
M  V30 39 H -2.074303 0.967128 0.583731 0
M  V30 40 H -1.395285 0.073462 -0.816917 0
M  V30 41 H -2.455092 1.967569 -2.285780 0
M  V30 42 H -3.949789 -0.346147 -1.058773 0
M  V30 43 H -3.666428 0.151021 -2.758679 0
M  V30 44 H -4.914338 1.031025 -1.793440 0
M  V30 45 H -4.413639 2.947121 -0.898266 0
M  V30 46 H -2.788683 4.101630 -1.919542 0
M  V30 47 H -2.230593 5.164169 0.826030 0
M  V30 48 H -3.933475 4.770515 0.457895 0
M  V30 49 H -3.038999 5.912243 -0.628346 0
M  V30 50 H -0.558531 3.878274 -1.635209 0
M  V30 51 H -0.684382 4.016805 0.122734 0
M  V30 52 H 0.895606 0.174044 -2.656863 0
M  V30 53 H 5.021381 -5.565869 2.620366 0
M  V30 END ATOM
M  V30 BEGIN BOND
M  V30 1 1 1 2
M  V30 2 1 2 3
M  V30 3 2 3 4
M  V30 4 1 4 5
M  V30 5 1 5 6
M  V30 6 1 6 7
M  V30 7 2 7 8
M  V30 8 1 8 9
M  V30 9 1 9 10
M  V30 10 1 10 11
M  V30 11 2 9 12
M  V30 12 1 12 13
M  V30 13 2 13 14
M  V30 14 1 13 15
M  V30 15 1 15 16
M  V30 16 1 16 17
M  V30 17 1 17 18
M  V30 18 1 17 19
M  V30 19 1 19 20
M  V30 20 1 20 21
M  V30 21 1 20 22
M  V30 22 1 12 23
M  V30 23 2 23 24
M  V30 24 1 24 25
M  V30 25 2 5 26
M  V30 26 1 26 27
M  V30 27 2 27 28
M  V30 28 1 28 29
M  V30 29 1 28 3
M  V30 30 1 24 7
M  V30 31 1 22 15
M  V30 32 1 1 30
M  V30 33 1 1 31
M  V30 34 1 1 32
M  V30 35 1 2 33
M  V30 36 1 6 34
M  V30 37 1 8 35
M  V30 38 1 11 36
M  V30 39 1 11 37
M  V30 40 1 11 38
M  V30 41 1 16 39
M  V30 42 1 16 40
M  V30 43 1 17 41 CFG=3
M  V30 44 1 18 42
M  V30 45 1 18 43
M  V30 46 1 18 44
M  V30 47 1 19 45
M  V30 48 1 20 46 CFG=3
M  V30 49 1 21 47
M  V30 50 1 21 48
M  V30 51 1 21 49
M  V30 52 1 22 50
M  V30 53 1 22 51
M  V30 54 1 23 52
M  V30 55 1 27 53
M  V30 END BOND
M  V30 END CTAB
M  END
>  <Dataset>  (621) 
ChEMBL_Kinases

>  <Ligand_Instance>  (621) 
nan

>  <PDB_ID>  (621) 
nan

>  <Standardized_SMILES>  (621) 
CNc1nc(Nc2cc(OC)c(C(=O)N3C[C@@H](C)N[C@@H](C)C3)cc2Cl)ncc1Cl

>  <Name>  (621) 
nan

>  <Pocket>  (621) 
nan

>  <ATP_Site>  (621) 
nan

>  <Peripheral>  (621) 
nan

>  <Num_H_Atoms_ProtBoundConf>  (621) 
nan

>  <Num_Resolved_Atoms>  (621) 
nan

>  <Num_Not_Resolved_Atoms>  (621) 
nan

$$$$
CHEMBL3641847
     RDKit          3D

  0  0  0  0  0  0  0  0  0  0999 V3000
M  V30 BEGIN CTAB
M  V30 COUNTS 56 58 0 0 0
M  V30 BEGIN ATOM
M  V30 1 C 3.324935 -4.485916 -0.088712 0
M  V30 2 N 3.794951 -5.072694 1.152074 0
M  V30 3 C 3.137003 -4.987314 2.418118 0
M  V30 4 N 1.975017 -4.259293 2.375736 0
M  V30 5 C 1.239546 -4.088956 3.478582 0
M  V30 6 N 0.058412 -3.316361 3.576937 0
M  V30 7 C -0.445784 -2.282149 2.759405 0
M  V30 8 C 0.558477 -1.904626 1.898880 0
M  V30 9 C 0.380972 -0.901225 1.043445 0
M  V30 10 O 1.088860 -0.185268 0.028945 0
M  V30 11 C 2.404865 -0.598314 -0.220134 0
M  V30 12 C -0.645460 -0.007507 0.702054 0
M  V30 13 C -1.662030 0.865646 0.380365 0
M  V30 14 O -0.866947 0.916569 -0.641657 0
M  V30 15 N -2.719876 1.707646 0.154271 0
M  V30 16 C -2.861950 2.440738 -1.082078 0
M  V30 17 C -4.269840 2.750043 -1.411267 0
M  V30 18 C -4.311268 4.004030 -2.223247 0
M  V30 19 N -3.259477 4.184951 -3.178469 0
M  V30 20 C -3.416796 3.394394 -4.374684 0
M  V30 21 C -1.947959 4.115093 -2.585580 0
M  V30 22 C -2.028446 3.684676 -1.137670 0
M  V30 23 C -1.712327 -0.476531 1.686115 0
M  V30 24 C -1.619610 -1.556904 2.663659 0
M  V30 25 Cl -2.672156 -2.285173 3.892161 0
M  V30 26 N 1.669259 -4.645616 4.600978 0
M  V30 27 C 2.762292 -5.364096 4.770866 0
M  V30 28 C 3.501762 -5.524514 3.630710 0
M  V30 29 C 4.782644 -6.254930 3.458963 0
M  V30 30 F 4.671388 -7.280516 2.527865 0
M  V30 31 F 5.827682 -5.437023 3.075699 0
M  V30 32 F 5.104236 -6.837183 4.667398 0
M  V30 33 H 2.448439 -3.830092 0.064270 0
M  V30 34 H 4.147150 -3.869931 -0.501608 0
M  V30 35 H 3.097734 -5.291298 -0.833515 0
M  V30 36 H 4.700222 -5.581792 0.999194 0
M  V30 37 H -0.627253 -3.443831 4.328580 0
M  V30 38 H 1.588432 -2.147054 1.599165 0
M  V30 39 H 2.981919 -0.709785 0.746100 0
M  V30 40 H 2.410192 -1.598358 -0.674483 0
M  V30 41 H 2.959252 0.130257 -0.860496 0
M  V30 42 H -3.090809 1.462507 1.129590 0
M  V30 43 H -2.460649 1.792656 -1.911479 0
M  V30 44 H -4.847787 1.942535 -1.907294 0
M  V30 45 H -4.798951 3.027635 -0.431322 0
M  V30 46 H -4.214522 4.906809 -1.527164 0
M  V30 47 H -5.283584 4.099219 -2.711425 0
M  V30 48 H -3.164775 4.049863 -5.249136 0
M  V30 49 H -2.794632 2.497706 -4.296773 0
M  V30 50 H -4.480646 3.086933 -4.429015 0
M  V30 51 H -1.484809 5.105180 -2.623960 0
M  V30 52 H -1.320246 3.396507 -3.135591 0
M  V30 53 H -2.399001 4.496899 -0.516625 0
M  V30 54 H -0.955313 3.486742 -0.843188 0
M  V30 55 H -2.781628 -0.297746 2.056239 0
M  V30 56 H 3.152390 -5.829105 5.653053 0
M  V30 END ATOM
M  V30 BEGIN BOND
M  V30 1 1 1 2
M  V30 2 1 2 3
M  V30 3 2 3 4
M  V30 4 1 4 5
M  V30 5 1 5 6
M  V30 6 1 6 7
M  V30 7 2 7 8
M  V30 8 1 8 9
M  V30 9 1 9 10
M  V30 10 1 10 11
M  V30 11 2 9 12
M  V30 12 1 12 13
M  V30 13 2 13 14
M  V30 14 1 13 15
M  V30 15 1 15 16
M  V30 16 1 16 17
M  V30 17 1 17 18
M  V30 18 1 18 19
M  V30 19 1 19 20
M  V30 20 1 19 21
M  V30 21 1 21 22
M  V30 22 1 12 23
M  V30 23 2 23 24
M  V30 24 1 24 25
M  V30 25 2 5 26
M  V30 26 1 26 27
M  V30 27 2 27 28
M  V30 28 1 28 29
M  V30 29 1 29 30
M  V30 30 1 29 31
M  V30 31 1 29 32
M  V30 32 1 28 3
M  V30 33 1 24 7
M  V30 34 1 22 16
M  V30 35 1 1 33
M  V30 36 1 1 34
M  V30 37 1 1 35
M  V30 38 1 2 36
M  V30 39 1 6 37
M  V30 40 1 8 38
M  V30 41 1 11 39
M  V30 42 1 11 40
M  V30 43 1 11 41
M  V30 44 1 15 42
M  V30 45 1 16 43
M  V30 46 1 17 44
M  V30 47 1 17 45
M  V30 48 1 18 46
M  V30 49 1 18 47
M  V30 50 1 20 48
M  V30 51 1 20 49
M  V30 52 1 20 50
M  V30 53 1 21 51
M  V30 54 1 21 52
M  V30 55 1 22 53
M  V30 56 1 22 54
M  V30 57 1 23 55
M  V30 58 1 27 56
M  V30 END BOND
M  V30 END CTAB
M  END
>  <Dataset>  (622) 
ChEMBL_Kinases

>  <Ligand_Instance>  (622) 
nan

>  <PDB_ID>  (622) 
nan

>  <Standardized_SMILES>  (622) 
CNc1nc(Nc2cc(OC)c(C(=O)NC3CCN(C)CC3)cc2Cl)ncc1C(F)(F)F

>  <Name>  (622) 
nan

>  <Pocket>  (622) 
nan

>  <ATP_Site>  (622) 
nan

>  <Peripheral>  (622) 
nan

>  <Num_H_Atoms_ProtBoundConf>  (622) 
nan

>  <Num_Resolved_Atoms>  (622) 
nan

>  <Num_Not_Resolved_Atoms>  (622) 
nan

$$$$
CHEMBL3641848
     RDKit          3D

  0  0  0  0  0  0  0  0  0  0999 V3000
M  V30 BEGIN CTAB
M  V30 COUNTS 46 48 0 0 0
M  V30 BEGIN ATOM
M  V30 1 C -2.539053 -4.322648 2.050187 0
M  V30 2 N -1.258494 -4.763360 2.514963 0
M  V30 3 C -0.209892 -3.999479 3.083655 0
M  V30 4 N -0.428653 -2.654604 3.211835 0
M  V30 5 C 0.518253 -1.857790 3.737470 0
M  V30 6 N 0.467322 -0.453681 3.961657 0
M  V30 7 C 0.462143 0.489921 2.896832 0
M  V30 8 C 0.413121 0.011140 1.611025 0
M  V30 9 C 0.376477 0.795324 0.478999 0
M  V30 10 O 0.327400 0.249896 -0.766765 0
M  V30 11 C 0.304516 -1.090042 -1.135264 0
M  V30 12 C 0.389639 2.161201 0.608535 0
M  V30 13 C 0.341024 3.154126 -0.449337 0
M  V30 14 O 0.371547 4.386893 -0.191656 0
M  V30 15 N 0.259031 2.960312 -1.840827 0
M  V30 16 C 0.209704 3.875940 -2.917685 0
M  V30 17 C 1.171895 3.462486 -4.014402 0
M  V30 18 O 0.160560 2.546517 -4.415994 0
M  V30 19 C -0.733834 3.553163 -4.051114 0
M  V30 20 C 0.440515 2.679691 1.910835 0
M  V30 21 C 0.475356 1.863327 3.017193 0
M  V30 22 Cl 0.541498 2.518249 4.628992 0
M  V30 23 N 1.687721 -2.355095 4.144328 0
M  V30 24 C 1.961538 -3.676815 4.042824 0
M  V30 25 C 1.014731 -4.532265 3.507855 0
M  V30 26 C 1.206465 -5.992468 3.341855 0
M  V30 27 F 1.115946 -6.374587 2.011896 0
M  V30 28 F 0.250273 -6.726554 4.032896 0
M  V30 29 F 2.440367 -6.381847 3.806898 0
M  V30 30 H -3.263723 -5.135821 2.069776 0
M  V30 31 H -2.445441 -4.022018 0.980261 0
M  V30 32 H -2.816735 -3.414715 2.604379 0
M  V30 33 H -1.058368 -5.787752 2.422819 0
M  V30 34 H 0.435877 -0.140362 4.956446 0
M  V30 35 H 0.401030 -1.073145 1.450032 0
M  V30 36 H -0.663405 -1.595389 -0.987896 0
M  V30 37 H 1.171108 -1.583227 -0.672797 0
M  V30 38 H 0.508139 -1.137420 -2.247343 0
M  V30 39 H 0.220842 1.973467 -2.179454 0
M  V30 40 H 0.315373 4.957244 -2.712159 0
M  V30 41 H 1.384478 4.224893 -4.790053 0
M  V30 42 H 2.055910 2.879683 -3.686652 0
M  V30 43 H -1.755347 3.278095 -3.819815 0
M  V30 44 H -0.691261 4.358482 -4.805510 0
M  V30 45 H 0.455499 3.756880 2.124785 0
M  V30 46 H 2.897206 -4.112314 4.363398 0
M  V30 END ATOM
M  V30 BEGIN BOND
M  V30 1 1 1 2
M  V30 2 1 2 3
M  V30 3 2 3 4
M  V30 4 1 4 5
M  V30 5 1 5 6
M  V30 6 1 6 7
M  V30 7 2 7 8
M  V30 8 1 8 9
M  V30 9 1 9 10
M  V30 10 1 10 11
M  V30 11 2 9 12
M  V30 12 1 12 13
M  V30 13 2 13 14
M  V30 14 1 13 15
M  V30 15 1 15 16
M  V30 16 1 16 17
M  V30 17 1 17 18
M  V30 18 1 18 19
M  V30 19 1 12 20
M  V30 20 2 20 21
M  V30 21 1 21 22
M  V30 22 2 5 23
M  V30 23 1 23 24
M  V30 24 2 24 25
M  V30 25 1 25 26
M  V30 26 1 26 27
M  V30 27 1 26 28
M  V30 28 1 26 29
M  V30 29 1 25 3
M  V30 30 1 21 7
M  V30 31 1 19 16
M  V30 32 1 1 30
M  V30 33 1 1 31
M  V30 34 1 1 32
M  V30 35 1 2 33
M  V30 36 1 6 34
M  V30 37 1 8 35
M  V30 38 1 11 36
M  V30 39 1 11 37
M  V30 40 1 11 38
M  V30 41 1 15 39
M  V30 42 1 16 40
M  V30 43 1 17 41
M  V30 44 1 17 42
M  V30 45 1 19 43
M  V30 46 1 19 44
M  V30 47 1 20 45
M  V30 48 1 24 46
M  V30 END BOND
M  V30 END CTAB
M  END
>  <Dataset>  (623) 
ChEMBL_Kinases

>  <Ligand_Instance>  (623) 
nan

>  <PDB_ID>  (623) 
nan

>  <Standardized_SMILES>  (623) 
CNc1nc(Nc2cc(OC)c(C(=O)NC3COC3)cc2Cl)ncc1C(F)(F)F

>  <Name>  (623) 
nan

>  <Pocket>  (623) 
nan

>  <ATP_Site>  (623) 
nan

>  <Peripheral>  (623) 
nan

>  <Num_H_Atoms_ProtBoundConf>  (623) 
nan

>  <Num_Resolved_Atoms>  (623) 
nan

>  <Num_Not_Resolved_Atoms>  (623) 
nan

$$$$
CHEMBL3641849
     RDKit          3D

  0  0  0  0  0  0  0  0  0  0999 V3000
M  V30 BEGIN CTAB
M  V30 COUNTS 51 52 0 0 0
M  V30 BEGIN ATOM
M  V30 1 C -0.828191 -3.638144 3.621902 0
M  V30 2 N 0.304348 -4.140352 4.370676 0
M  V30 3 C 1.626888 -3.673031 4.135274 0
M  V30 4 N 1.901374 -2.743079 3.209441 0
M  V30 5 C 3.120621 -2.258874 2.936834 0
M  V30 6 N 3.439787 -1.282908 1.969898 0
M  V30 7 C 2.604951 -0.599293 1.079418 0
M  V30 8 C 1.251270 -0.784898 0.998523 0
M  V30 9 C 0.436525 -0.108264 0.118428 0
M  V30 10 O -0.927459 -0.332997 0.076610 0
M  V30 11 C -1.524494 -1.272135 0.944884 0
M  V30 12 C 0.937983 0.819162 -0.757158 0
M  V30 13 C 0.214090 1.608831 -1.737924 0
M  V30 14 O 0.808677 2.434815 -2.487329 0
M  V30 15 N -1.166327 1.635341 -2.048067 0
M  V30 16 C -1.559936 2.548562 -3.091399 0
M  V30 17 C -3.079521 2.395961 -3.241310 0
M  V30 18 C -3.677502 2.718352 -1.900208 0
M  V30 19 C -3.623935 3.289106 -4.303328 0
M  V30 20 O -3.288384 1.045009 -3.587241 0
M  V30 21 C 2.296290 1.024446 -0.696056 0
M  V30 22 C 3.093260 0.343578 0.184851 0
M  V30 23 Cl 4.816907 0.672760 0.189849 0
M  V30 24 N 4.109604 -2.780224 3.678266 0
M  V30 25 C 3.958241 -3.707058 4.624717 0
M  V30 26 C 2.685824 -4.166723 4.861109 0
M  V30 27 C 2.453057 -5.189517 5.891958 0
M  V30 28 F 1.884420 -6.350680 5.350509 0
M  V30 29 F 1.585787 -4.777080 6.895526 0
M  V30 30 F 3.643623 -5.579792 6.489441 0
M  V30 31 H -1.721763 -4.242464 3.853560 0
M  V30 32 H -0.589781 -3.727241 2.535948 0
M  V30 33 H -1.016457 -2.571940 3.829768 0
M  V30 34 H 0.154191 -4.865231 5.105079 0
M  V30 35 H 4.466740 -1.012354 1.890970 0
M  V30 36 H 0.738469 -1.482217 1.629095 0
M  V30 37 H -1.200407 -2.308837 0.708010 0
M  V30 38 H -2.629598 -1.261753 0.785751 0
M  V30 39 H -1.328037 -1.059225 1.999781 0
M  V30 40 H -1.787112 0.999574 -1.504695 0
M  V30 41 H -1.276078 3.598868 -2.874060 0
M  V30 42 H -1.134230 2.308991 -4.077227 0
M  V30 43 H -2.915614 2.944240 -1.122685 0
M  V30 44 H -4.245717 1.839104 -1.517140 0
M  V30 45 H -4.400331 3.548754 -2.029454 0
M  V30 46 H -3.765809 2.703022 -5.248916 0
M  V30 47 H -2.973854 4.156187 -4.544592 0
M  V30 48 H -4.649717 3.652504 -4.029663 0
M  V30 49 H -2.572764 0.818633 -4.250602 0
M  V30 50 H 2.777559 1.740417 -1.352836 0
M  V30 51 H 4.820235 -4.056614 5.160474 0
M  V30 END ATOM
M  V30 BEGIN BOND
M  V30 1 1 1 2
M  V30 2 1 2 3
M  V30 3 2 3 4
M  V30 4 1 4 5
M  V30 5 1 5 6
M  V30 6 1 6 7
M  V30 7 2 7 8
M  V30 8 1 8 9
M  V30 9 1 9 10
M  V30 10 1 10 11
M  V30 11 2 9 12
M  V30 12 1 12 13
M  V30 13 2 13 14
M  V30 14 1 13 15
M  V30 15 1 15 16
M  V30 16 1 16 17
M  V30 17 1 17 18
M  V30 18 1 17 19
M  V30 19 1 17 20
M  V30 20 1 12 21
M  V30 21 2 21 22
M  V30 22 1 22 23
M  V30 23 2 5 24
M  V30 24 1 24 25
M  V30 25 2 25 26
M  V30 26 1 26 27
M  V30 27 1 27 28
M  V30 28 1 27 29
M  V30 29 1 27 30
M  V30 30 1 26 3
M  V30 31 1 22 7
M  V30 32 1 1 31
M  V30 33 1 1 32
M  V30 34 1 1 33
M  V30 35 1 2 34
M  V30 36 1 6 35
M  V30 37 1 8 36
M  V30 38 1 11 37
M  V30 39 1 11 38
M  V30 40 1 11 39
M  V30 41 1 15 40
M  V30 42 1 16 41
M  V30 43 1 16 42
M  V30 44 1 18 43
M  V30 45 1 18 44
M  V30 46 1 18 45
M  V30 47 1 19 46
M  V30 48 1 19 47
M  V30 49 1 19 48
M  V30 50 1 20 49
M  V30 51 1 21 50
M  V30 52 1 25 51
M  V30 END BOND
M  V30 END CTAB
M  END
>  <Dataset>  (624) 
ChEMBL_Kinases

>  <Ligand_Instance>  (624) 
nan

>  <PDB_ID>  (624) 
nan

>  <Standardized_SMILES>  (624) 
CNc1nc(Nc2cc(OC)c(C(=O)NCC(C)(C)O)cc2Cl)ncc1C(F)(F)F

>  <Name>  (624) 
nan

>  <Pocket>  (624) 
nan

>  <ATP_Site>  (624) 
nan

>  <Peripheral>  (624) 
nan

>  <Num_H_Atoms_ProtBoundConf>  (624) 
nan

>  <Num_Resolved_Atoms>  (624) 
nan

>  <Num_Not_Resolved_Atoms>  (624) 
nan

$$$$
CHEMBL3641850
     RDKit          3D

  0  0  0  0  0  0  0  0  0  0999 V3000
M  V30 BEGIN CTAB
M  V30 COUNTS 50 52 0 0 0
M  V30 BEGIN ATOM
M  V30 1 C -1.016307 -4.832345 1.056328 0
M  V30 2 N 0.166356 -5.385772 1.681090 0
M  V30 3 C 1.441010 -4.769858 1.444893 0
M  V30 4 N 1.508207 -3.677657 0.630022 0
M  V30 5 C 2.668243 -3.034397 0.350310 0
M  V30 6 N 2.328373 -1.961852 -0.543482 0
M  V30 7 C 1.774192 -0.672901 -0.318807 0
M  V30 8 C 1.468283 -0.253391 0.950153 0
M  V30 9 C 0.917970 0.981345 1.138979 0
M  V30 10 O 0.563433 1.529357 2.347405 0
M  V30 11 C 0.701172 0.912077 3.607119 0
M  V30 12 C 0.667381 1.814591 0.049799 0
M  V30 13 C 0.071232 3.146708 0.024357 0
M  V30 14 O 0.676818 4.237580 0.146325 0
M  V30 15 N -1.351463 2.996803 -0.170052 0
M  V30 16 C -2.193399 1.824356 -0.325999 0
M  V30 17 C -2.926065 1.984342 -1.642366 0
M  V30 18 N -3.875884 3.052743 -1.521033 0
M  V30 19 C -3.573739 4.007593 -0.484699 0
M  V30 20 C -2.119842 4.224664 -0.228876 0
M  V30 21 C 0.995144 1.353000 -1.235346 0
M  V30 22 C 1.555840 0.097790 -1.444589 0
M  V30 23 Cl 1.951712 -0.439672 -3.059981 0
M  V30 24 N 3.848008 -3.455319 0.881006 0
M  V30 25 C 3.830355 -4.527424 1.689776 0
M  V30 26 C 2.632636 -5.181374 1.969720 0
M  V30 27 C 2.547810 -6.386399 2.859069 0
M  V30 28 F 3.791703 -6.749892 3.335137 0
M  V30 29 F 2.026461 -7.424733 2.116626 0
M  V30 30 F 1.763657 -6.081050 3.967554 0
M  V30 31 H -1.507228 -5.565150 0.380862 0
M  V30 32 H -0.702393 -3.975425 0.391800 0
M  V30 33 H -1.720283 -4.367971 1.781102 0
M  V30 34 H 0.096883 -6.218061 2.296278 0
M  V30 35 H 2.595568 -2.366303 -1.449956 0
M  V30 36 H 1.642860 -0.864317 1.824190 0
M  V30 37 H 1.316993 0.020551 3.633055 0
M  V30 38 H -0.283494 0.751246 4.071001 0
M  V30 39 H 1.231184 1.669149 4.255307 0
M  V30 40 H -1.612388 0.883216 -0.289342 0
M  V30 41 H -3.001473 1.819048 0.463991 0
M  V30 42 H -3.511765 1.076788 -1.923820 0
M  V30 43 H -2.248871 2.202679 -2.492384 0
M  V30 44 H -3.998895 3.499548 -2.459150 0
M  V30 45 H -4.127447 3.759534 0.446901 0
M  V30 46 H -4.002855 4.997251 -0.827168 0
M  V30 47 H -2.033886 4.707563 0.767056 0
M  V30 48 H -1.644354 4.939246 -0.953767 0
M  V30 49 H 0.835699 1.937434 -2.133906 0
M  V30 50 H 4.738371 -4.876379 2.116775 0
M  V30 END ATOM
M  V30 BEGIN BOND
M  V30 1 1 1 2
M  V30 2 1 2 3
M  V30 3 2 3 4
M  V30 4 1 4 5
M  V30 5 1 5 6
M  V30 6 1 6 7
M  V30 7 2 7 8
M  V30 8 1 8 9
M  V30 9 1 9 10
M  V30 10 1 10 11
M  V30 11 2 9 12
M  V30 12 1 12 13
M  V30 13 2 13 14
M  V30 14 1 13 15
M  V30 15 1 15 16
M  V30 16 1 16 17
M  V30 17 1 17 18
M  V30 18 1 18 19
M  V30 19 1 19 20
M  V30 20 1 12 21
M  V30 21 2 21 22
M  V30 22 1 22 23
M  V30 23 2 5 24
M  V30 24 1 24 25
M  V30 25 2 25 26
M  V30 26 1 26 27
M  V30 27 1 27 28
M  V30 28 1 27 29
M  V30 29 1 27 30
M  V30 30 1 26 3
M  V30 31 1 22 7
M  V30 32 1 20 15
M  V30 33 1 1 31
M  V30 34 1 1 32
M  V30 35 1 1 33
M  V30 36 1 2 34
M  V30 37 1 6 35
M  V30 38 1 8 36
M  V30 39 1 11 37
M  V30 40 1 11 38
M  V30 41 1 11 39
M  V30 42 1 16 40
M  V30 43 1 16 41
M  V30 44 1 17 42
M  V30 45 1 17 43
M  V30 46 1 18 44
M  V30 47 1 19 45
M  V30 48 1 19 46
M  V30 49 1 20 47
M  V30 50 1 20 48
M  V30 51 1 21 49
M  V30 52 1 25 50
M  V30 END BOND
M  V30 END CTAB
M  END
>  <Dataset>  (625) 
ChEMBL_Kinases

>  <Ligand_Instance>  (625) 
nan

>  <PDB_ID>  (625) 
nan

>  <Standardized_SMILES>  (625) 
CNc1nc(Nc2cc(OC)c(C(=O)N3CCNCC3)cc2Cl)ncc1C(F)(F)F

>  <Name>  (625) 
nan

>  <Pocket>  (625) 
nan

>  <ATP_Site>  (625) 
nan

>  <Peripheral>  (625) 
nan

>  <Num_H_Atoms_ProtBoundConf>  (625) 
nan

>  <Num_Resolved_Atoms>  (625) 
nan

>  <Num_Not_Resolved_Atoms>  (625) 
nan

$$$$
CHEMBL3641851
     RDKit          3D

  0  0  0  0  0  0  0  0  0  0999 V3000
M  V30 BEGIN CTAB
M  V30 COUNTS 49 51 0 0 0
M  V30 BEGIN ATOM
M  V30 1 C 1.412107 -1.733446 4.607490 0
M  V30 2 N 1.601888 -3.167954 4.644565 0
M  V30 3 C 1.516603 -3.922508 3.428029 0
M  V30 4 N 1.264123 -3.311562 2.265059 0
M  V30 5 C 1.168291 -3.939454 1.087334 0
M  V30 6 N 0.904060 -3.335466 -0.166556 0
M  V30 7 C 0.687148 -1.967820 -0.454105 0
M  V30 8 C 0.693583 -0.946242 0.469470 0
M  V30 9 C 0.484074 0.390535 0.203604 0
M  V30 10 O 0.501420 1.367867 1.162400 0
M  V30 11 C 0.721833 1.228778 2.534600 0
M  V30 12 C 0.244164 0.760528 -1.100364 0
M  V30 13 C 0.007567 2.131363 -1.519033 0
M  V30 14 O 1.085360 2.739473 -1.829793 0
M  V30 15 N -1.320960 2.643805 -1.544538 0
M  V30 16 C -2.548379 1.918621 -1.179351 0
M  V30 17 C -3.474269 2.519424 -2.246425 0
M  V30 18 C -3.048133 3.969121 -2.288509 0
M  V30 19 C -3.173079 4.502818 -3.667512 0
M  V30 20 N -3.262208 4.930729 -4.752662 0
M  V30 21 C -1.574593 4.007947 -1.961970 0
M  V30 22 C 0.225835 -0.207273 -2.057800 0
M  V30 23 C 0.440667 -1.528337 -1.742545 0
M  V30 24 Cl 0.398487 -2.706639 -3.042387 0
M  V30 25 N 1.344994 -5.266949 1.130835 0
M  V30 26 C 1.600833 -5.958302 2.247354 0
M  V30 27 C 1.692444 -5.287841 3.432957 0
M  V30 28 C 1.972109 -5.983936 4.698253 0
M  V30 29 F 3.145464 -5.520210 5.289071 0
M  V30 30 F 0.975839 -5.838538 5.623021 0
M  V30 31 F 2.110672 -7.343695 4.455850 0
M  V30 32 H 1.985081 -1.325698 3.758610 0
M  V30 33 H 0.326120 -1.539934 4.432497 0
M  V30 34 H 1.691023 -1.272374 5.560153 0
M  V30 35 H 1.797474 -3.665136 5.525237 0
M  V30 36 H 0.858526 -3.968984 -1.009316 0
M  V30 37 H 0.873673 -1.155270 1.506639 0
M  V30 38 H 0.770853 2.261083 2.965155 0
M  V30 39 H 1.758424 0.813227 2.686492 0
M  V30 40 H 0.033333 0.578825 3.071993 0
M  V30 41 H -2.877743 2.178170 -0.173398 0
M  V30 42 H -2.454163 0.850704 -1.356541 0
M  V30 43 H -4.526407 2.390581 -1.968331 0
M  V30 44 H -3.182587 2.005367 -3.183680 0
M  V30 45 H -3.665510 4.576965 -1.594975 0
M  V30 46 H -1.429214 4.657966 -1.065324 0
M  V30 47 H -0.942334 4.318315 -2.812110 0
M  V30 48 H 0.037410 0.060406 -3.101381 0
M  V30 49 H 1.740998 -7.016506 2.277536 0
M  V30 END ATOM
M  V30 BEGIN BOND
M  V30 1 1 1 2
M  V30 2 1 2 3
M  V30 3 2 3 4
M  V30 4 1 4 5
M  V30 5 1 5 6
M  V30 6 1 6 7
M  V30 7 2 7 8
M  V30 8 1 8 9
M  V30 9 1 9 10
M  V30 10 1 10 11
M  V30 11 2 9 12
M  V30 12 1 12 13
M  V30 13 2 13 14
M  V30 14 1 13 15
M  V30 15 1 15 16
M  V30 16 1 16 17
M  V30 17 1 17 18
M  V30 18 1 18 19
M  V30 19 3 19 20
M  V30 20 1 18 21
M  V30 21 1 12 22
M  V30 22 2 22 23
M  V30 23 1 23 24
M  V30 24 2 5 25
M  V30 25 1 25 26
M  V30 26 2 26 27
M  V30 27 1 27 28
M  V30 28 1 28 29
M  V30 29 1 28 30
M  V30 30 1 28 31
M  V30 31 1 27 3
M  V30 32 1 23 7
M  V30 33 1 21 15
M  V30 34 1 1 32
M  V30 35 1 1 33
M  V30 36 1 1 34
M  V30 37 1 2 35
M  V30 38 1 6 36
M  V30 39 1 8 37
M  V30 40 1 11 38
M  V30 41 1 11 39
M  V30 42 1 11 40
M  V30 43 1 16 41
M  V30 44 1 16 42
M  V30 45 1 17 43
M  V30 46 1 17 44
M  V30 47 1 18 45
M  V30 48 1 21 46
M  V30 49 1 21 47
M  V30 50 1 22 48
M  V30 51 1 26 49
M  V30 END BOND
M  V30 END CTAB
M  END
>  <Dataset>  (626) 
ChEMBL_Kinases

>  <Ligand_Instance>  (626) 
nan

>  <PDB_ID>  (626) 
nan

>  <Standardized_SMILES>  (626) 
CNc1nc(Nc2cc(OC)c(C(=O)N3CCC(C#N)C3)cc2Cl)ncc1C(F)(F)F

>  <Name>  (626) 
nan

>  <Pocket>  (626) 
nan

>  <ATP_Site>  (626) 
nan

>  <Peripheral>  (626) 
nan

>  <Num_H_Atoms_ProtBoundConf>  (626) 
nan

>  <Num_Resolved_Atoms>  (626) 
nan

>  <Num_Not_Resolved_Atoms>  (626) 
nan

$$$$
CHEMBL3641852
     RDKit          3D

  0  0  0  0  0  0  0  0  0  0999 V3000
M  V30 BEGIN CTAB
M  V30 COUNTS 49 51 0 0 0
M  V30 BEGIN ATOM
M  V30 1 C -0.511062 -2.374591 3.772345 0
M  V30 2 N -0.357030 -3.782914 3.460062 0
M  V30 3 C -0.471295 -4.281519 2.113508 0
M  V30 4 N -0.729038 -3.408096 1.123287 0
M  V30 5 C -0.849439 -3.818040 -0.151044 0
M  V30 6 N -1.113364 -2.732378 -1.046991 0
M  V30 7 C -0.450550 -1.473741 -1.014852 0
M  V30 8 C 0.639912 -1.295109 -0.180012 0
M  V30 9 C 1.361905 -0.106606 -0.108328 0
M  V30 10 F 2.435221 0.076300 0.700643 0
M  V30 11 C 0.951809 0.948912 -0.925895 0
M  V30 12 C 1.656118 2.220481 -0.888175 0
M  V30 13 O 2.626685 2.722412 -1.493831 0
M  V30 14 N 1.082097 3.113979 0.095876 0
M  V30 15 C 1.437450 4.486429 0.497908 0
M  V30 16 C 1.732556 4.238008 1.970978 0
M  V30 17 C 0.614017 3.252647 2.341820 0
M  V30 18 C 1.134884 2.066615 2.975734 0
M  V30 19 N 1.540655 1.105251 3.471203 0
M  V30 20 C -0.050072 2.933803 1.021691 0
M  V30 21 C -0.135012 0.766428 -1.756005 0
M  V30 22 C -0.849571 -0.413105 -1.825882 0
M  V30 23 O -1.919306 -0.522270 -2.671640 0
M  V30 24 C -2.419650 0.461667 -3.529728 0
M  V30 25 N -0.709478 -5.120914 -0.436494 0
M  V30 26 C -0.454809 -6.044831 0.481236 0
M  V30 27 C -0.333632 -5.621894 1.774822 0
M  V30 28 C -0.052020 -6.537025 2.909228 0
M  V30 29 F -1.068127 -6.506215 3.851974 0
M  V30 30 F 1.130838 -6.129639 3.500248 0
M  V30 31 F 0.085842 -7.808205 2.410490 0
M  V30 32 H -0.555175 -1.791761 2.826415 0
M  V30 33 H -1.418202 -2.193126 4.383881 0
M  V30 34 H 0.347142 -2.028969 4.396517 0
M  V30 35 H -0.159752 -4.405159 4.268240 0
M  V30 36 H -1.838909 -2.861591 -1.779419 0
M  V30 37 H 1.047769 -2.039123 0.486272 0
M  V30 38 H 2.302520 4.883133 -0.028896 0
M  V30 39 H 0.531834 5.133373 0.428511 0
M  V30 40 H 2.684608 3.683608 2.020006 0
M  V30 41 H 1.722239 5.142095 2.581342 0
M  V30 42 H -0.144508 3.743608 2.976649 0
M  V30 43 H -0.798981 3.703385 0.752075 0
M  V30 44 H -0.454072 1.908851 0.953673 0
M  V30 45 H -0.461450 1.578487 -2.394246 0
M  V30 46 H -3.510734 0.227772 -3.703340 0
M  V30 47 H -2.407416 1.462391 -3.078611 0
M  V30 48 H -1.904416 0.410864 -4.512721 0
M  V30 49 H -0.346129 -7.081127 0.225078 0
M  V30 END ATOM
M  V30 BEGIN BOND
M  V30 1 1 1 2
M  V30 2 1 2 3
M  V30 3 2 3 4
M  V30 4 1 4 5
M  V30 5 1 5 6
M  V30 6 1 6 7
M  V30 7 2 7 8
M  V30 8 1 8 9
M  V30 9 1 9 10
M  V30 10 2 9 11
M  V30 11 1 11 12
M  V30 12 2 12 13
M  V30 13 1 12 14
M  V30 14 1 14 15
M  V30 15 1 15 16
M  V30 16 1 16 17
M  V30 17 1 17 18
M  V30 18 3 18 19
M  V30 19 1 17 20
M  V30 20 1 11 21
M  V30 21 2 21 22
M  V30 22 1 22 23
M  V30 23 1 23 24
M  V30 24 2 5 25
M  V30 25 1 25 26
M  V30 26 2 26 27
M  V30 27 1 27 28
M  V30 28 1 28 29
M  V30 29 1 28 30
M  V30 30 1 28 31
M  V30 31 1 27 3
M  V30 32 1 22 7
M  V30 33 1 20 14
M  V30 34 1 1 32
M  V30 35 1 1 33
M  V30 36 1 1 34
M  V30 37 1 2 35
M  V30 38 1 6 36
M  V30 39 1 8 37
M  V30 40 1 15 38
M  V30 41 1 15 39
M  V30 42 1 16 40
M  V30 43 1 16 41
M  V30 44 1 17 42
M  V30 45 1 20 43
M  V30 46 1 20 44
M  V30 47 1 21 45
M  V30 48 1 24 46
M  V30 49 1 24 47
M  V30 50 1 24 48
M  V30 51 1 26 49
M  V30 END BOND
M  V30 END CTAB
M  END
>  <Dataset>  (627) 
ChEMBL_Kinases

>  <Ligand_Instance>  (627) 
nan

>  <PDB_ID>  (627) 
nan

>  <Standardized_SMILES>  (627) 
CNc1nc(Nc2cc(F)c(C(=O)N3CCC(C#N)C3)cc2OC)ncc1C(F)(F)F

>  <Name>  (627) 
nan

>  <Pocket>  (627) 
nan

>  <ATP_Site>  (627) 
nan

>  <Peripheral>  (627) 
nan

>  <Num_H_Atoms_ProtBoundConf>  (627) 
nan

>  <Num_Resolved_Atoms>  (627) 
nan

>  <Num_Not_Resolved_Atoms>  (627) 
nan

$$$$
CHEMBL3641853
     RDKit          3D

  0  0  0  0  0  0  0  0  0  0999 V3000
M  V30 BEGIN CTAB
M  V30 COUNTS 41 42 0 0 0
M  V30 BEGIN ATOM
M  V30 1 C 0.353305 -7.086172 1.598902 0
M  V30 2 N 0.343948 -5.726080 1.229132 0
M  V30 3 C 0.589370 -4.895833 0.118038 0
M  V30 4 O 0.943986 -5.643689 -0.861197 0
M  V30 5 C 0.512788 -3.474664 -0.071616 0
M  V30 6 C 0.673343 -2.940627 -1.319288 0
M  V30 7 C 0.574547 -1.576780 -1.505116 0
M  V30 8 O 0.734938 -1.022923 -2.756622 0
M  V30 9 C 0.995476 -1.658236 -3.960599 0
M  V30 10 C 0.318448 -0.696208 -0.483091 0
M  V30 11 N 0.227591 0.712821 -0.627205 0
M  V30 12 C -0.063866 1.651686 0.398648 0
M  V30 13 N -1.266684 2.234296 0.322497 0
M  V30 14 C -1.741107 3.139542 1.177087 0
M  V30 15 C -0.907975 3.497897 2.228078 0
M  V30 16 C -1.444439 4.505195 3.184836 0
M  V30 17 F -1.504815 3.926436 4.440892 0
M  V30 18 F -2.716024 4.923986 2.854785 0
M  V30 19 F -0.610724 5.617017 3.240207 0
M  V30 20 C 0.337648 2.924015 2.345405 0
M  V30 21 N 1.194771 3.293480 3.405657 0
M  V30 22 C 2.533754 2.734233 3.627932 0
M  V30 23 N 0.733579 2.013264 1.429215 0
M  V30 24 C 0.152921 -1.212399 0.782865 0
M  V30 25 C 0.251928 -2.582455 0.964438 0
M  V30 26 F 0.085552 -2.995979 2.241550 0
M  V30 27 H 0.627502 -7.801238 0.796043 0
M  V30 28 H 1.121923 -7.254038 2.411180 0
M  V30 29 H -0.609887 -7.368979 2.099536 0
M  V30 30 H 0.056419 -5.182049 2.102088 0
M  V30 31 H 0.871550 -3.620934 -2.115283 0
M  V30 32 H 1.934833 -1.251365 -4.409070 0
M  V30 33 H 1.000814 -2.750890 -3.928982 0
M  V30 34 H 0.184097 -1.322907 -4.684048 0
M  V30 35 H 0.392274 1.044222 -1.589213 0
M  V30 36 H -2.734401 3.589431 1.070200 0
M  V30 37 H 0.890419 4.001715 4.085615 0
M  V30 38 H 3.021802 2.563651 2.658429 0
M  V30 39 H 2.439054 1.739620 4.143995 0
M  V30 40 H 3.110411 3.392757 4.282171 0
M  V30 41 H -0.056233 -0.536866 1.626991 0
M  V30 END ATOM
M  V30 BEGIN BOND
M  V30 1 1 1 2
M  V30 2 1 2 3
M  V30 3 2 3 4
M  V30 4 1 3 5
M  V30 5 2 5 6
M  V30 6 1 6 7
M  V30 7 1 7 8
M  V30 8 1 8 9
M  V30 9 2 7 10
M  V30 10 1 10 11
M  V30 11 1 11 12
M  V30 12 2 12 13
M  V30 13 1 13 14
M  V30 14 2 14 15
M  V30 15 1 15 16
M  V30 16 1 16 17
M  V30 17 1 16 18
M  V30 18 1 16 19
M  V30 19 1 15 20
M  V30 20 1 20 21
M  V30 21 1 21 22
M  V30 22 2 20 23
M  V30 23 1 10 24
M  V30 24 2 24 25
M  V30 25 1 25 26
M  V30 26 1 25 5
M  V30 27 1 23 12
M  V30 28 1 1 27
M  V30 29 1 1 28
M  V30 30 1 1 29
M  V30 31 1 2 30
M  V30 32 1 6 31
M  V30 33 1 9 32
M  V30 34 1 9 33
M  V30 35 1 9 34
M  V30 36 1 11 35
M  V30 37 1 14 36
M  V30 38 1 21 37
M  V30 39 1 22 38
M  V30 40 1 22 39
M  V30 41 1 22 40
M  V30 42 1 24 41
M  V30 END BOND
M  V30 END CTAB
M  END
>  <Dataset>  (628) 
ChEMBL_Kinases

>  <Ligand_Instance>  (628) 
nan

>  <PDB_ID>  (628) 
nan

>  <Standardized_SMILES>  (628) 
CNC(=O)c1cc(OC)c(Nc2ncc(C(F)(F)F)c(NC)n2)cc1F

>  <Name>  (628) 
nan

>  <Pocket>  (628) 
nan

>  <ATP_Site>  (628) 
nan

>  <Peripheral>  (628) 
nan

>  <Num_H_Atoms_ProtBoundConf>  (628) 
nan

>  <Num_Resolved_Atoms>  (628) 
nan

>  <Num_Not_Resolved_Atoms>  (628) 
nan

$$$$
CHEMBL3641863
     RDKit          3D

  0  0  0  0  0  0  0  0  0  0999 V3000
M  V30 BEGIN CTAB
M  V30 COUNTS 49 52 0 0 0
M  V30 BEGIN ATOM
M  V30 1 C 0.585914 -5.355080 4.279528 0
M  V30 2 N 0.390625 -6.176093 3.092611 0
M  V30 3 C -0.116751 -5.716703 1.861419 0
M  V30 4 N -0.448760 -4.434289 1.753906 0
M  V30 5 C -0.943561 -3.895227 0.611862 0
M  V30 6 N -1.326832 -2.544296 0.400471 0
M  V30 7 C -0.717972 -1.345887 -0.011626 0
M  V30 8 C 0.635405 -1.384420 -0.309046 0
M  V30 9 C 1.279365 -0.226368 -0.716734 0
M  V30 10 C 0.541914 0.935180 -0.812679 0
M  V30 11 C 1.152878 2.201635 -1.238346 0
M  V30 12 O 1.256795 2.927111 -2.238404 0
M  V30 13 N 1.862163 2.790341 -0.126644 0
M  V30 14 C 2.535389 4.064143 -0.380600 0
M  V30 15 C 2.578744 4.922734 0.857215 0
M  V30 16 O 1.489826 4.689527 1.680771 0
M  V30 17 C 1.537909 3.405512 2.229088 0
M  V30 18 C 2.084900 2.409070 1.259254 0
M  V30 19 C -0.803723 0.922286 -0.505237 0
M  V30 20 C -1.495243 -0.197722 -0.095184 0
M  V30 21 C -2.918500 -0.282911 0.246265 0
M  V30 22 C -3.986395 -0.627885 -0.703522 0
M  V30 23 C -3.748514 0.804025 -0.470530 0
M  V30 24 N -1.121243 -4.661058 -0.484397 0
M  V30 25 C -0.792859 -5.978391 -0.412293 0
M  V30 26 C -0.290738 -6.517047 0.752925 0
M  V30 27 Cl 0.133106 -8.211027 0.849152 0
M  V30 28 H 1.598096 -5.556712 4.728388 0
M  V30 29 H 0.517538 -4.289447 4.069747 0
M  V30 30 H -0.133471 -5.615990 5.060771 0
M  V30 31 H 0.659380 -7.179000 3.208263 0
M  V30 32 H -2.358231 -2.585568 0.654258 0
M  V30 33 H 1.221529 -2.288222 -0.237170 0
M  V30 34 H 2.318096 -0.142601 -0.970803 0
M  V30 35 H 1.975731 4.639365 -1.147554 0
M  V30 36 H 3.591681 3.889114 -0.717302 0
M  V30 37 H 3.490512 4.731836 1.480227 0
M  V30 38 H 2.622981 6.004980 0.618212 0
M  V30 39 H 2.183483 3.434275 3.150520 0
M  V30 40 H 0.507082 3.180480 2.573240 0
M  V30 41 H 3.183337 2.276097 1.439321 0
M  V30 42 H 1.621110 1.424091 1.509696 0
M  V30 43 H -1.397584 1.846110 -0.581039 0
M  V30 44 H -3.093835 -0.422043 1.341475 0
M  V30 45 H -4.895549 -1.078452 -0.245399 0
M  V30 46 H -3.781578 -1.051045 -1.702732 0
M  V30 47 H -3.299941 1.365173 -1.292772 0
M  V30 48 H -4.361741 1.402593 0.224263 0
M  V30 49 H -0.929567 -6.609646 -1.287238 0
M  V30 END ATOM
M  V30 BEGIN BOND
M  V30 1 1 1 2
M  V30 2 1 2 3
M  V30 3 2 3 4
M  V30 4 1 4 5
M  V30 5 1 5 6
M  V30 6 1 6 7
M  V30 7 2 7 8
M  V30 8 1 8 9
M  V30 9 2 9 10
M  V30 10 1 10 11
M  V30 11 2 11 12
M  V30 12 1 11 13
M  V30 13 1 13 14
M  V30 14 1 14 15
M  V30 15 1 15 16
M  V30 16 1 16 17
M  V30 17 1 17 18
M  V30 18 1 10 19
M  V30 19 2 19 20
M  V30 20 1 20 21
M  V30 21 1 21 22
M  V30 22 1 22 23
M  V30 23 2 5 24
M  V30 24 1 24 25
M  V30 25 2 25 26
M  V30 26 1 26 27
M  V30 27 1 26 3
M  V30 28 1 20 7
M  V30 29 1 23 21
M  V30 30 1 18 13
M  V30 31 1 1 28
M  V30 32 1 1 29
M  V30 33 1 1 30
M  V30 34 1 2 31
M  V30 35 1 6 32
M  V30 36 1 8 33
M  V30 37 1 9 34
M  V30 38 1 14 35
M  V30 39 1 14 36
M  V30 40 1 15 37
M  V30 41 1 15 38
M  V30 42 1 17 39
M  V30 43 1 17 40
M  V30 44 1 18 41
M  V30 45 1 18 42
M  V30 46 1 19 43
M  V30 47 1 21 44
M  V30 48 1 22 45
M  V30 49 1 22 46
M  V30 50 1 23 47
M  V30 51 1 23 48
M  V30 52 1 25 49
M  V30 END BOND
M  V30 END CTAB
M  END
>  <Dataset>  (629) 
ChEMBL_Kinases

>  <Ligand_Instance>  (629) 
nan

>  <PDB_ID>  (629) 
nan

>  <Standardized_SMILES>  (629) 
CNc1nc(Nc2ccc(C(=O)N3CCOCC3)cc2C2CC2)ncc1Cl

>  <Name>  (629) 
nan

>  <Pocket>  (629) 
nan

>  <ATP_Site>  (629) 
nan

>  <Peripheral>  (629) 
nan

>  <Num_H_Atoms_ProtBoundConf>  (629) 
nan

>  <Num_Resolved_Atoms>  (629) 
nan

>  <Num_Not_Resolved_Atoms>  (629) 
nan

$$$$
CHEMBL3641855
     RDKit          3D

  0  0  0  0  0  0  0  0  0  0999 V3000
M  V30 BEGIN CTAB
M  V30 COUNTS 52 55 0 0 0
M  V30 BEGIN ATOM
M  V30 1 C 3.409219 -3.942593 2.886260 0
M  V30 2 O 2.216126 -3.257498 2.719307 0
M  V30 3 C 1.964468 -2.191561 1.876862 0
M  V30 4 C 2.948339 -1.650996 1.048578 0
M  V30 5 C 2.538629 -0.571810 0.251410 0
M  V30 6 C 3.605839 -0.045368 -0.594348 0
M  V30 7 O 4.819032 -0.170827 -0.255759 0
M  V30 8 N 3.655810 0.646648 -1.833528 0
M  V30 9 C 5.006560 0.953889 -2.259479 0
M  V30 10 C 4.959428 2.318244 -2.948977 0
M  V30 11 O 4.248142 2.231725 -4.145379 0
M  V30 12 C 3.244866 1.295026 -4.104286 0
M  V30 13 C 2.609650 1.104344 -2.754228 0
M  V30 14 C 1.270186 -0.032283 0.236746 0
M  V30 15 C 0.377812 -0.641980 1.092768 0
M  V30 16 C 0.674344 -1.704370 1.916129 0
M  V30 17 N -0.328547 -2.260899 2.756896 0
M  V30 18 C -1.664185 -1.779091 2.834887 0
M  V30 19 N -1.935444 -0.882581 3.792315 0
M  V30 20 C -3.205663 -0.417176 3.874772 0
M  V30 21 C -4.238281 -0.807218 3.035318 0
M  V30 22 C -5.562412 -0.208745 3.245042 0
M  V30 23 C -5.990093 1.080326 2.704137 0
M  V30 24 C -6.621146 -0.223314 2.206892 0
M  V30 25 C -3.912850 -1.729771 2.067156 0
M  V30 26 O -4.899776 -2.159474 1.198291 0
M  V30 27 C -4.653949 -3.105245 0.172598 0
M  V30 28 N -2.644712 -2.177685 2.005049 0
M  V30 29 H 3.762423 -3.904257 3.962365 0
M  V30 30 H 4.238821 -3.652446 2.217270 0
M  V30 31 H 3.265357 -5.042888 2.678463 0
M  V30 32 H 3.943091 -2.040958 1.032020 0
M  V30 33 H 5.737292 1.024003 -1.456626 0
M  V30 34 H 5.275509 0.239625 -3.065410 0
M  V30 35 H 5.999333 2.677339 -3.141077 0
M  V30 36 H 4.468062 3.082436 -2.313266 0
M  V30 37 H 3.516135 0.303784 -4.551910 0
M  V30 38 H 2.432750 1.673794 -4.778724 0
M  V30 39 H 2.120080 2.024407 -2.427522 0
M  V30 40 H 1.891500 0.258001 -2.874040 0
M  V30 41 H 1.032765 0.797602 -0.404211 0
M  V30 42 H -0.637151 -0.243615 1.110442 0
M  V30 43 H -0.140298 -3.073712 3.381760 0
M  V30 44 H -3.415611 0.313767 4.658933 0
M  V30 45 H -5.967566 -0.425569 4.280883 0
M  V30 46 H -6.703365 1.728772 3.270175 0
M  V30 47 H -5.421757 1.672675 1.963880 0
M  V30 48 H -6.445220 -0.443586 1.146622 0
M  V30 49 H -7.683400 -0.432932 2.492179 0
M  V30 50 H -4.618174 -4.104372 0.672026 0
M  V30 51 H -3.692021 -2.912489 -0.341207 0
M  V30 52 H -5.485606 -3.085642 -0.554767 0
M  V30 END ATOM
M  V30 BEGIN BOND
M  V30 1 1 1 2
M  V30 2 1 2 3
M  V30 3 2 3 4
M  V30 4 1 4 5
M  V30 5 1 5 6
M  V30 6 2 6 7
M  V30 7 1 6 8
M  V30 8 1 8 9
M  V30 9 1 9 10
M  V30 10 1 10 11
M  V30 11 1 11 12
M  V30 12 1 12 13
M  V30 13 2 5 14
M  V30 14 1 14 15
M  V30 15 2 15 16
M  V30 16 1 16 17
M  V30 17 1 17 18
M  V30 18 2 18 19
M  V30 19 1 19 20
M  V30 20 2 20 21
M  V30 21 1 21 22
M  V30 22 1 22 23
M  V30 23 1 23 24
M  V30 24 1 21 25
M  V30 25 1 25 26
M  V30 26 1 26 27
M  V30 27 2 25 28
M  V30 28 1 16 3
M  V30 29 1 28 18
M  V30 30 1 13 8
M  V30 31 1 24 22
M  V30 32 1 1 29
M  V30 33 1 1 30
M  V30 34 1 1 31
M  V30 35 1 4 32
M  V30 36 1 9 33
M  V30 37 1 9 34
M  V30 38 1 10 35
M  V30 39 1 10 36
M  V30 40 1 12 37
M  V30 41 1 12 38
M  V30 42 1 13 39
M  V30 43 1 13 40
M  V30 44 1 14 41
M  V30 45 1 15 42
M  V30 46 1 17 43
M  V30 47 1 20 44
M  V30 48 1 22 45
M  V30 49 1 23 46
M  V30 50 1 23 47
M  V30 51 1 24 48
M  V30 52 1 24 49
M  V30 53 1 27 50
M  V30 54 1 27 51
M  V30 55 1 27 52
M  V30 END BOND
M  V30 END CTAB
M  END
>  <Dataset>  (630) 
ChEMBL_Kinases

>  <Ligand_Instance>  (630) 
nan

>  <PDB_ID>  (630) 
nan

>  <Standardized_SMILES>  (630) 
COc1cc(C(=O)N2CCOCC2)ccc1Nc1ncc(C2CC2)c(OC)n1

>  <Name>  (630) 
nan

>  <Pocket>  (630) 
nan

>  <ATP_Site>  (630) 
nan

>  <Peripheral>  (630) 
nan

>  <Num_H_Atoms_ProtBoundConf>  (630) 
nan

>  <Num_Resolved_Atoms>  (630) 
nan

>  <Num_Not_Resolved_Atoms>  (630) 
nan

$$$$
CHEMBL3641856
     RDKit          3D

  0  0  0  0  0  0  0  0  0  0999 V3000
M  V30 BEGIN CTAB
M  V30 COUNTS 51 53 0 0 0
M  V30 BEGIN ATOM
M  V30 1 C -1.606180 -4.258004 2.032952 0
M  V30 2 N -1.581485 -5.045408 0.795562 0
M  V30 3 C -1.456178 -4.317061 -0.425779 0
M  V30 4 N -1.381166 -2.985981 -0.398695 0
M  V30 5 C -1.261207 -2.210933 -1.483528 0
M  V30 6 N -1.226628 -0.855599 -1.115948 0
M  V30 7 C -0.383670 0.127129 -0.566099 0
M  V30 8 C 0.884346 -0.312771 -0.196246 0
M  V30 9 C 1.739322 0.609897 0.367121 0
M  V30 10 C 1.332830 1.915721 0.548650 0
M  V30 11 C 2.158855 2.955519 1.148296 0
M  V30 12 O 2.619741 4.059881 0.808714 0
M  V30 13 N 2.527287 2.585293 2.489070 0
M  V30 14 C 3.349339 3.474012 3.291505 0
M  V30 15 C 2.408615 3.969473 4.385942 0
M  V30 16 O 1.806899 2.936652 5.071239 0
M  V30 17 C 2.214202 1.684015 4.700945 0
M  V30 18 C 2.202416 1.388692 3.238157 0
M  V30 19 C 0.064173 2.286862 0.160428 0
M  V30 20 C -0.839074 1.420556 -0.407306 0
M  V30 21 O -2.132690 1.655703 -0.839041 0
M  V30 22 C -2.785791 2.897766 -0.778277 0
M  V30 23 N -1.213639 -2.822550 -2.675243 0
M  V30 24 C -1.282728 -4.140261 -2.781864 0
M  V30 25 C -1.404998 -4.907658 -1.662935 0
M  V30 26 C -1.484458 -6.345861 -1.824089 0
M  V30 27 C -1.411784 -7.122503 -3.072709 0
M  V30 28 O -1.632256 -7.077818 -0.800488 0
M  V30 29 H -1.223882 -3.218702 1.830426 0
M  V30 30 H -0.966786 -4.682931 2.826800 0
M  V30 31 H -2.619399 -4.145116 2.439173 0
M  V30 32 H -1.671759 -6.004233 1.141509 0
M  V30 33 H -2.227425 -0.632780 -1.404914 0
M  V30 34 H 1.196929 -1.335033 -0.338008 0
M  V30 35 H 2.756655 0.377528 0.692608 0
M  V30 36 H 4.216106 2.933864 3.740482 0
M  V30 37 H 3.648080 4.350344 2.693110 0
M  V30 38 H 1.583700 4.496783 3.848567 0
M  V30 39 H 2.962255 4.666540 5.034263 0
M  V30 40 H 3.188859 1.408181 5.163331 0
M  V30 41 H 1.480443 0.951208 5.158054 0
M  V30 42 H 1.270246 0.897027 2.902305 0
M  V30 43 H 3.021722 0.640032 3.058511 0
M  V30 44 H -0.312460 3.298605 0.279649 0
M  V30 45 H -3.446437 3.013369 -1.669943 0
M  V30 46 H -3.408342 2.989640 0.119310 0
M  V30 47 H -2.065356 3.743234 -0.844564 0
M  V30 48 H -1.235178 -4.486616 -3.802459 0
M  V30 49 H -0.921876 -6.497389 -3.853765 0
M  V30 50 H -2.406769 -7.424906 -3.415814 0
M  V30 51 H -0.795714 -8.030119 -2.884304 0
M  V30 END ATOM
M  V30 BEGIN BOND
M  V30 1 1 1 2
M  V30 2 1 2 3
M  V30 3 2 3 4
M  V30 4 1 4 5
M  V30 5 1 5 6
M  V30 6 1 6 7
M  V30 7 2 7 8
M  V30 8 1 8 9
M  V30 9 2 9 10
M  V30 10 1 10 11
M  V30 11 2 11 12
M  V30 12 1 11 13
M  V30 13 1 13 14
M  V30 14 1 14 15
M  V30 15 1 15 16
M  V30 16 1 16 17
M  V30 17 1 17 18
M  V30 18 1 10 19
M  V30 19 2 19 20
M  V30 20 1 20 21
M  V30 21 1 21 22
M  V30 22 2 5 23
M  V30 23 1 23 24
M  V30 24 2 24 25
M  V30 25 1 25 26
M  V30 26 1 26 27
M  V30 27 2 26 28
M  V30 28 1 25 3
M  V30 29 1 20 7
M  V30 30 1 18 13
M  V30 31 1 1 29
M  V30 32 1 1 30
M  V30 33 1 1 31
M  V30 34 1 2 32
M  V30 35 1 6 33
M  V30 36 1 8 34
M  V30 37 1 9 35
M  V30 38 1 14 36
M  V30 39 1 14 37
M  V30 40 1 15 38
M  V30 41 1 15 39
M  V30 42 1 17 40
M  V30 43 1 17 41
M  V30 44 1 18 42
M  V30 45 1 18 43
M  V30 46 1 19 44
M  V30 47 1 22 45
M  V30 48 1 22 46
M  V30 49 1 22 47
M  V30 50 1 24 48
M  V30 51 1 27 49
M  V30 52 1 27 50
M  V30 53 1 27 51
M  V30 END BOND
M  V30 END CTAB
M  END
>  <Dataset>  (631) 
ChEMBL_Kinases

>  <Ligand_Instance>  (631) 
nan

>  <PDB_ID>  (631) 
nan

>  <Standardized_SMILES>  (631) 
CNc1nc(Nc2ccc(C(=O)N3CCOCC3)cc2OC)ncc1C(C)=O

>  <Name>  (631) 
nan

>  <Pocket>  (631) 
nan

>  <ATP_Site>  (631) 
nan

>  <Peripheral>  (631) 
nan

>  <Num_H_Atoms_ProtBoundConf>  (631) 
nan

>  <Num_Resolved_Atoms>  (631) 
nan

>  <Num_Not_Resolved_Atoms>  (631) 
nan

$$$$
CHEMBL3641857
     RDKit          3D

  0  0  0  0  0  0  0  0  0  0999 V3000
M  V30 BEGIN CTAB
M  V30 COUNTS 53 55 0 0 0
M  V30 BEGIN ATOM
M  V30 1 C 2.395275 2.185560 2.171432 0
M  V30 2 O 2.634744 1.842273 3.526560 0
M  V30 3 C 3.399789 0.674803 3.515730 0
M  V30 4 C 4.788323 0.870015 2.912986 0
M  V30 5 N 5.423154 -0.493280 2.959528 0
M  V30 6 C 4.716994 -1.410668 2.195931 0
M  V30 7 N 3.855446 -0.921793 1.212068 0
M  V30 8 C 3.179710 -1.573959 0.267352 0
M  V30 9 N 2.356777 -0.827426 -0.679726 0
M  V30 10 C 0.912921 -0.682237 -0.728555 0
M  V30 11 C 0.410917 -1.392843 0.395296 0
M  V30 12 C -0.994109 -1.495593 0.676603 0
M  V30 13 F -1.571999 -2.108572 1.710059 0
M  V30 14 C -1.705225 -0.786184 -0.362532 0
M  V30 15 C -3.149683 -0.864192 -0.056765 0
M  V30 16 O -3.249538 -2.129597 -0.232516 0
M  V30 17 N -4.421966 -1.428685 0.142508 0
M  V30 18 C -4.865999 -2.828226 0.027729 0
M  V30 19 C -6.373523 -2.687947 -0.102206 0
M  V30 20 O -6.826144 -2.039990 1.019820 0
M  V30 21 C -6.567186 -0.677449 1.013252 0
M  V30 22 C -5.236103 -0.271186 0.474796 0
M  V30 23 C -1.265361 -0.098438 -1.450592 0
M  V30 24 C 0.089658 -0.082415 -1.575317 0
M  V30 25 O 0.766588 0.545264 -2.559314 0
M  V30 26 C 0.161410 1.292233 -3.605641 0
M  V30 27 N 3.416615 -2.886833 0.350864 0
M  V30 28 C 4.131307 -3.644887 1.120288 0
M  V30 29 C 4.525605 -2.611236 1.770167 0
M  V30 30 Br 5.748202 -3.591459 3.035305 0
M  V30 31 H 1.830530 1.337221 1.731673 0
M  V30 32 H 3.307836 2.270063 1.575070 0
M  V30 33 H 1.794067 3.110833 2.183660 0
M  V30 34 H 3.532029 0.435601 4.625121 0
M  V30 35 H 2.855297 -0.177568 3.122304 0
M  V30 36 H 5.320330 1.523354 3.625407 0
M  V30 37 H 4.798871 1.149469 1.884828 0
M  V30 38 H 6.304447 -0.560345 3.512666 0
M  V30 39 H 2.766782 -0.293803 -1.460104 0
M  V30 40 H 1.031076 -1.908698 1.104282 0
M  V30 41 H -4.438671 -3.356065 -0.841321 0
M  V30 42 H -4.650912 -3.429643 0.918922 0
M  V30 43 H -6.877456 -3.623638 -0.348012 0
M  V30 44 H -6.525756 -1.995063 -0.979139 0
M  V30 45 H -7.367751 -0.226116 0.354151 0
M  V30 46 H -6.802205 -0.220719 2.021491 0
M  V30 47 H -5.395459 0.349589 -0.449472 0
M  V30 48 H -4.754049 0.332879 1.271538 0
M  V30 49 H -1.870520 0.401049 -2.158785 0
M  V30 50 H 0.972054 1.635957 -4.252851 0
M  V30 51 H -0.590230 0.759963 -4.178739 0
M  V30 52 H -0.301543 2.187853 -3.091428 0
M  V30 53 H 3.960700 -4.591208 0.751230 0
M  V30 END ATOM
M  V30 BEGIN BOND
M  V30 1 1 1 2
M  V30 2 1 2 3
M  V30 3 1 3 4
M  V30 4 1 4 5
M  V30 5 1 5 6
M  V30 6 2 6 7
M  V30 7 1 7 8
M  V30 8 1 8 9
M  V30 9 1 9 10
M  V30 10 2 10 11
M  V30 11 1 11 12
M  V30 12 1 12 13
M  V30 13 2 12 14
M  V30 14 1 14 15
M  V30 15 2 15 16
M  V30 16 1 15 17
M  V30 17 1 17 18
M  V30 18 1 18 19
M  V30 19 1 19 20
M  V30 20 1 20 21
M  V30 21 1 21 22
M  V30 22 1 14 23
M  V30 23 2 23 24
M  V30 24 1 24 25
M  V30 25 1 25 26
M  V30 26 2 8 27
M  V30 27 1 27 28
M  V30 28 2 28 29
M  V30 29 1 29 30
M  V30 30 1 29 6
M  V30 31 1 24 10
M  V30 32 1 22 17
M  V30 33 1 1 31
M  V30 34 1 1 32
M  V30 35 1 1 33
M  V30 36 1 3 34
M  V30 37 1 3 35
M  V30 38 1 4 36
M  V30 39 1 4 37
M  V30 40 1 5 38
M  V30 41 1 9 39
M  V30 42 1 11 40
M  V30 43 1 18 41
M  V30 44 1 18 42
M  V30 45 1 19 43
M  V30 46 1 19 44
M  V30 47 1 21 45
M  V30 48 1 21 46
M  V30 49 1 22 47
M  V30 50 1 22 48
M  V30 51 1 23 49
M  V30 52 1 26 50
M  V30 53 1 26 51
M  V30 54 1 26 52
M  V30 55 1 28 53
M  V30 END BOND
M  V30 END CTAB
M  END
>  <Dataset>  (632) 
ChEMBL_Kinases

>  <Ligand_Instance>  (632) 
nan

>  <PDB_ID>  (632) 
nan

>  <Standardized_SMILES>  (632) 
COCCNc1nc(Nc2cc(F)c(C(=O)N3CCOCC3)cc2OC)ncc1Br

>  <Name>  (632) 
nan

>  <Pocket>  (632) 
nan

>  <ATP_Site>  (632) 
nan

>  <Peripheral>  (632) 
nan

>  <Num_H_Atoms_ProtBoundConf>  (632) 
nan

>  <Num_Resolved_Atoms>  (632) 
nan

>  <Num_Not_Resolved_Atoms>  (632) 
nan

$$$$
CHEMBL3641858
     RDKit          3D

  0  0  0  0  0  0  0  0  0  0999 V3000
M  V30 BEGIN CTAB
M  V30 COUNTS 59 61 0 0 0
M  V30 BEGIN ATOM
M  V30 1 C -0.225869 -2.940194 5.980023 0
M  V30 2 O 0.935382 -2.177656 6.041171 0
M  V30 3 C 0.955889 -1.177088 5.068568 0
M  V30 4 C 2.270470 -0.441324 5.245288 0
M  V30 5 N 3.394837 -1.347114 5.070644 0
M  V30 6 C 3.606781 -2.021063 3.840064 0
M  V30 7 N 2.812664 -1.860278 2.775228 0
M  V30 8 C 2.950845 -2.455064 1.587843 0
M  V30 9 N 2.115290 -2.260174 0.456714 0
M  V30 10 C 1.044971 -1.353299 0.226032 0
M  V30 11 C 0.750899 -0.404103 1.181335 0
M  V30 12 C -0.252374 0.541051 1.057743 0
M  V30 13 C -1.023571 0.545980 -0.103725 0
M  V30 14 C -2.083557 1.522733 -0.263045 0
M  V30 15 O -2.812985 1.786294 0.708928 0
M  V30 16 N -2.529490 2.317511 -1.349060 0
M  V30 17 C -3.652315 3.191000 -1.101962 0
M  V30 18 C -4.874647 2.698891 -1.890675 0
M  V30 19 O -4.405674 1.837515 -2.908702 0
M  V30 20 C -3.412938 2.532866 -3.566151 0
M  V30 21 C -2.153571 2.510352 -2.748491 0
M  V30 22 C -0.719325 -0.404172 -1.044860 0
M  V30 23 C 0.269864 -1.352905 -0.946638 0
M  V30 24 O 0.585233 -2.310727 -1.882680 0
M  V30 25 C -0.002703 -2.538998 -3.117422 0
M  V30 26 C 1.006013 -2.636035 -4.239026 0
M  V30 27 C -0.728111 -3.885986 -3.061157 0
M  V30 28 N 3.987595 -3.296875 1.449376 0
M  V30 29 C 4.870103 -3.564207 2.418322 0
M  V30 30 C 4.622872 -2.891455 3.594186 0
M  V30 31 Br 5.874925 -3.252658 5.012674 0
M  V30 32 H -0.273857 -3.412394 4.960931 0
M  V30 33 H -0.078285 -3.783656 6.712082 0
M  V30 34 H -1.128395 -2.395929 6.257420 0
M  V30 35 H 0.831090 -1.590000 4.064490 0
M  V30 36 H 0.092189 -0.521983 5.286010 0
M  V30 37 H 2.334703 0.327679 4.452981 0
M  V30 38 H 2.324208 0.069303 6.222467 0
M  V30 39 H 4.082196 -1.532718 5.837063 0
M  V30 40 H 2.283703 -2.882053 -0.387471 0
M  V30 41 H 1.259254 -0.276819 2.127121 0
M  V30 42 H -0.503606 1.297628 1.793268 0
M  V30 43 H -3.860764 3.230192 -0.017248 0
M  V30 44 H -3.444082 4.231096 -1.428628 0
M  V30 45 H -5.515849 3.498157 -2.247925 0
M  V30 46 H -5.450947 2.059803 -1.191999 0
M  V30 47 H -3.733130 3.601575 -3.623055 0
M  V30 48 H -3.260628 2.147105 -4.605240 0
M  V30 49 H -1.498883 1.679410 -3.085122 0
M  V30 50 H -1.565907 3.449501 -2.859140 0
M  V30 51 H -1.313805 -0.408268 -1.946855 0
M  V30 52 H -0.769895 -1.782026 -3.326576 0
M  V30 53 H 0.452558 -2.495595 -5.210088 0
M  V30 54 H 1.519527 -3.615811 -4.262324 0
M  V30 55 H 1.767606 -1.856490 -4.203810 0
M  V30 56 H -0.234760 -4.646435 -3.689014 0
M  V30 57 H -1.784789 -3.793256 -3.358171 0
M  V30 58 H -0.728750 -4.278846 -2.022993 0
M  V30 59 H 5.690665 -4.246922 2.270829 0
M  V30 END ATOM
M  V30 BEGIN BOND
M  V30 1 1 1 2
M  V30 2 1 2 3
M  V30 3 1 3 4
M  V30 4 1 4 5
M  V30 5 1 5 6
M  V30 6 2 6 7
M  V30 7 1 7 8
M  V30 8 1 8 9
M  V30 9 1 9 10
M  V30 10 2 10 11
M  V30 11 1 11 12
M  V30 12 2 12 13
M  V30 13 1 13 14
M  V30 14 2 14 15
M  V30 15 1 14 16
M  V30 16 1 16 17
M  V30 17 1 17 18
M  V30 18 1 18 19
M  V30 19 1 19 20
M  V30 20 1 20 21
M  V30 21 1 13 22
M  V30 22 2 22 23
M  V30 23 1 23 24
M  V30 24 1 24 25
M  V30 25 1 25 26
M  V30 26 1 25 27
M  V30 27 2 8 28
M  V30 28 1 28 29
M  V30 29 2 29 30
M  V30 30 1 30 31
M  V30 31 1 30 6
M  V30 32 1 23 10
M  V30 33 1 21 16
M  V30 34 1 1 32
M  V30 35 1 1 33
M  V30 36 1 1 34
M  V30 37 1 3 35
M  V30 38 1 3 36
M  V30 39 1 4 37
M  V30 40 1 4 38
M  V30 41 1 5 39
M  V30 42 1 9 40
M  V30 43 1 11 41
M  V30 44 1 12 42
M  V30 45 1 17 43
M  V30 46 1 17 44
M  V30 47 1 18 45
M  V30 48 1 18 46
M  V30 49 1 20 47
M  V30 50 1 20 48
M  V30 51 1 21 49
M  V30 52 1 21 50
M  V30 53 1 22 51
M  V30 54 1 25 52
M  V30 55 1 26 53
M  V30 56 1 26 54
M  V30 57 1 26 55
M  V30 58 1 27 56
M  V30 59 1 27 57
M  V30 60 1 27 58
M  V30 61 1 29 59
M  V30 END BOND
M  V30 END CTAB
M  END
>  <Dataset>  (633) 
ChEMBL_Kinases

>  <Ligand_Instance>  (633) 
nan

>  <PDB_ID>  (633) 
nan

>  <Standardized_SMILES>  (633) 
COCCNc1nc(Nc2ccc(C(=O)N3CCOCC3)cc2OC(C)C)ncc1Br

>  <Name>  (633) 
nan

>  <Pocket>  (633) 
nan

>  <ATP_Site>  (633) 
nan

>  <Peripheral>  (633) 
nan

>  <Num_H_Atoms_ProtBoundConf>  (633) 
nan

>  <Num_Resolved_Atoms>  (633) 
nan

>  <Num_Not_Resolved_Atoms>  (633) 
nan

$$$$
CHEMBL3641859
     RDKit          3D

  0  0  0  0  0  0  0  0  0  0999 V3000
M  V30 BEGIN CTAB
M  V30 COUNTS 59 62 0 0 0
M  V30 BEGIN ATOM
M  V30 1 C 1.393679 0.025287 6.600561 0
M  V30 2 O 2.583363 0.723920 6.481498 0
M  V30 3 C 3.607508 -0.021645 5.935893 0
M  V30 4 C 3.307678 -0.527260 4.549521 0
M  V30 5 O 4.410860 -1.279908 4.067076 0
M  V30 6 C 4.434146 -1.876713 2.819124 0
M  V30 7 N 3.388301 -1.765401 1.992316 0
M  V30 8 C 3.289143 -2.291613 0.770028 0
M  V30 9 N 2.185686 -2.178116 -0.113834 0
M  V30 10 C 0.961656 -1.487153 0.085259 0
M  V30 11 C 0.654319 -0.785884 1.225104 0
M  V30 12 C -0.521786 -0.104738 1.451743 0
M  V30 13 C -1.486896 -0.108763 0.475331 0
M  V30 14 C -2.746338 0.590468 0.652827 0
M  V30 15 O -3.429947 0.488690 1.724453 0
M  V30 16 N -3.445912 1.457931 -0.216844 0
M  V30 17 C -4.687633 2.018692 0.217100 0
M  V30 18 C -5.857033 1.498980 -0.620529 0
M  V30 19 O -5.402174 1.033720 -1.857526 0
M  V30 20 C -4.454191 1.885968 -2.413192 0
M  V30 21 C -3.195928 1.965809 -1.567015 0
M  V30 22 C -1.215856 -0.802107 -0.684779 0
M  V30 23 C -0.035822 -1.479311 -0.899571 0
M  V30 24 O 0.220217 -2.165018 -2.058400 0
M  V30 25 C -0.590810 -2.315586 -3.174026 0
M  V30 26 C 0.094292 -2.199522 -4.524540 0
M  V30 27 C 0.373808 -3.686208 -4.448518 0
M  V30 28 C -0.788025 -3.805589 -3.484869 0
M  V30 29 N 4.355833 -2.993088 0.361841 0
M  V30 30 C 5.453153 -3.167100 1.108131 0
M  V30 31 C 5.507868 -2.604451 2.362059 0
M  V30 32 Cl 6.864035 -2.735516 3.462866 0
M  V30 33 H 0.974382 -0.352343 5.668547 0
M  V30 34 H 0.648882 0.726132 7.043002 0
M  V30 35 H 1.508564 -0.777228 7.382741 0
M  V30 36 H 4.502444 0.630051 5.873872 0
M  V30 37 H 3.813682 -0.887191 6.584038 0
M  V30 38 H 3.159316 0.309942 3.834798 0
M  V30 39 H 2.439038 -1.199997 4.511086 0
M  V30 40 H 2.262972 -2.663903 -1.045808 0
M  V30 41 H 1.334889 -0.719153 2.049936 0
M  V30 42 H -0.740356 0.441873 2.362096 0
M  V30 43 H -4.827541 1.832439 1.281340 0
M  V30 44 H -4.722051 3.131002 0.096100 0
M  V30 45 H -6.648456 2.231796 -0.755962 0
M  V30 46 H -6.248168 0.609439 -0.082427 0
M  V30 47 H -4.905835 2.876587 -2.551648 0
M  V30 48 H -4.156075 1.432586 -3.387618 0
M  V30 49 H -2.958307 3.047771 -1.431102 0
M  V30 50 H -2.313291 1.510543 -2.030821 0
M  V30 51 H -1.994667 -0.786897 -1.431595 0
M  V30 52 H -1.573046 -1.827533 -3.114219 0
M  V30 53 H 0.967628 -1.539148 -4.555938 0
M  V30 54 H -0.697902 -2.005541 -5.295808 0
M  V30 55 H 1.374821 -3.874277 -3.989671 0
M  V30 56 H 0.226738 -4.239975 -5.409459 0
M  V30 57 H -0.560919 -4.477027 -2.626578 0
M  V30 58 H -1.733694 -4.026117 -4.032468 0
M  V30 59 H 6.308629 -3.727542 0.784029 0
M  V30 END ATOM
M  V30 BEGIN BOND
M  V30 1 1 1 2
M  V30 2 1 2 3
M  V30 3 1 3 4
M  V30 4 1 4 5
M  V30 5 1 5 6
M  V30 6 2 6 7
M  V30 7 1 7 8
M  V30 8 1 8 9
M  V30 9 1 9 10
M  V30 10 2 10 11
M  V30 11 1 11 12
M  V30 12 2 12 13
M  V30 13 1 13 14
M  V30 14 2 14 15
M  V30 15 1 14 16
M  V30 16 1 16 17
M  V30 17 1 17 18
M  V30 18 1 18 19
M  V30 19 1 19 20
M  V30 20 1 20 21
M  V30 21 1 13 22
M  V30 22 2 22 23
M  V30 23 1 23 24
M  V30 24 1 24 25
M  V30 25 1 25 26
M  V30 26 1 26 27
M  V30 27 1 27 28
M  V30 28 2 8 29
M  V30 29 1 29 30
M  V30 30 2 30 31
M  V30 31 1 31 32
M  V30 32 1 31 6
M  V30 33 1 23 10
M  V30 34 1 28 25
M  V30 35 1 21 16
M  V30 36 1 1 33
M  V30 37 1 1 34
M  V30 38 1 1 35
M  V30 39 1 3 36
M  V30 40 1 3 37
M  V30 41 1 4 38
M  V30 42 1 4 39
M  V30 43 1 9 40
M  V30 44 1 11 41
M  V30 45 1 12 42
M  V30 46 1 17 43
M  V30 47 1 17 44
M  V30 48 1 18 45
M  V30 49 1 18 46
M  V30 50 1 20 47
M  V30 51 1 20 48
M  V30 52 1 21 49
M  V30 53 1 21 50
M  V30 54 1 22 51
M  V30 55 1 25 52
M  V30 56 1 26 53
M  V30 57 1 26 54
M  V30 58 1 27 55
M  V30 59 1 27 56
M  V30 60 1 28 57
M  V30 61 1 28 58
M  V30 62 1 30 59
M  V30 END BOND
M  V30 END CTAB
M  END
>  <Dataset>  (634) 
ChEMBL_Kinases

>  <Ligand_Instance>  (634) 
nan

>  <PDB_ID>  (634) 
nan

>  <Standardized_SMILES>  (634) 
COCCOc1nc(Nc2ccc(C(=O)N3CCOCC3)cc2OC2CCC2)ncc1Cl

>  <Name>  (634) 
nan

>  <Pocket>  (634) 
nan

>  <ATP_Site>  (634) 
nan

>  <Peripheral>  (634) 
nan

>  <Num_H_Atoms_ProtBoundConf>  (634) 
nan

>  <Num_Resolved_Atoms>  (634) 
nan

>  <Num_Not_Resolved_Atoms>  (634) 
nan

$$$$
CHEMBL3641860
     RDKit          3D

  0  0  0  0  0  0  0  0  0  0999 V3000
M  V30 BEGIN CTAB
M  V30 COUNTS 57 61 0 0 0
M  V30 BEGIN ATOM
M  V30 1 C 1.004009 -1.804690 6.516076 0
M  V30 2 N 1.134939 -3.187928 6.167877 0
M  V30 3 C 0.906581 -3.904888 4.963705 0
M  V30 4 N 0.481601 -3.323814 3.839520 0
M  V30 5 C 0.246100 -3.930569 2.680948 0
M  V30 6 N -0.201046 -3.312045 1.490633 0
M  V30 7 C -0.494330 -1.954970 1.203671 0
M  V30 8 C -0.339204 -0.993388 2.181572 0
M  V30 9 C -0.595695 0.364824 1.997906 0
M  V30 10 C -1.036586 0.791885 0.755678 0
M  V30 11 C -1.336925 2.194153 0.433039 0
M  V30 12 O -2.283610 2.930731 0.749895 0
M  V30 13 N -0.308196 2.760403 -0.405854 0
M  V30 14 C -0.189097 4.100623 -0.966899 0
M  V30 15 C 1.249571 3.868735 -1.124236 0
M  V30 16 C 2.014108 4.452183 -2.245147 0
M  V30 17 O 2.976635 4.862490 -1.322104 0
M  V30 18 C 2.216989 4.497118 -0.211598 0
M  V30 19 C 0.957321 2.442951 -1.067021 0
M  V30 20 C -1.187746 -0.176540 -0.211290 0
M  V30 21 C -0.941262 -1.520034 -0.053835 0
M  V30 22 O -1.080792 -2.512284 -0.991907 0
M  V30 23 C -1.521048 -2.280241 -2.275714 0
M  V30 24 C -2.746476 -3.137035 -2.634118 0
M  V30 25 C -2.827001 -2.945896 -4.122154 0
M  V30 26 C -1.423534 -2.543088 -4.581958 0
M  V30 27 C -0.558360 -2.829356 -3.345818 0
M  V30 28 N 0.468172 -5.240370 2.687743 0
M  V30 29 C 0.892333 -5.939317 3.741995 0
M  V30 30 C 1.117777 -5.257959 4.907819 0
M  V30 31 Cl 1.674383 -6.057651 6.352491 0
M  V30 32 H 0.203427 -1.670800 7.286723 0
M  V30 33 H 0.738919 -1.128582 5.694413 0
M  V30 34 H 1.991330 -1.428863 6.908687 0
M  V30 35 H 1.466023 -3.707760 7.012590 0
M  V30 36 H -0.349089 -3.948000 0.660184 0
M  V30 37 H -0.007974 -1.166920 3.190528 0
M  V30 38 H -0.480267 1.130288 2.749523 0
M  V30 39 H -0.519488 4.907596 -0.292736 0
M  V30 40 H -0.766077 4.162003 -1.935653 0
M  V30 41 H 1.555099 5.233980 -2.845291 0
M  V30 42 H 2.485738 3.619830 -2.847643 0
M  V30 43 H 2.758707 3.729636 0.406650 0
M  V30 44 H 1.824373 5.349510 0.379412 0
M  V30 45 H 0.825990 1.945401 -2.042391 0
M  V30 46 H 1.651004 1.850270 -0.441198 0
M  V30 47 H -1.531445 0.175012 -1.171242 0
M  V30 48 H -1.780779 -1.237621 -2.519189 0
M  V30 49 H -3.632901 -2.851965 -2.071578 0
M  V30 50 H -2.399592 -4.187476 -2.440955 0
M  V30 51 H -3.523936 -2.101530 -4.336570 0
M  V30 52 H -3.164822 -3.853387 -4.678826 0
M  V30 53 H -1.398263 -1.431831 -4.718887 0
M  V30 54 H -1.081631 -3.091943 -5.462835 0
M  V30 55 H -0.523531 -3.910293 -3.222511 0
M  V30 56 H 0.396330 -2.308600 -3.367793 0
M  V30 57 H 1.055261 -7.005741 3.686760 0
M  V30 END ATOM
M  V30 BEGIN BOND
M  V30 1 1 1 2
M  V30 2 1 2 3
M  V30 3 2 3 4
M  V30 4 1 4 5
M  V30 5 1 5 6
M  V30 6 1 6 7
M  V30 7 2 7 8
M  V30 8 1 8 9
M  V30 9 2 9 10
M  V30 10 1 10 11
M  V30 11 2 11 12
M  V30 12 1 11 13
M  V30 13 1 13 14
M  V30 14 1 14 15
M  V30 15 1 15 16
M  V30 16 1 16 17
M  V30 17 1 17 18
M  V30 18 1 15 19
M  V30 19 1 10 20
M  V30 20 2 20 21
M  V30 21 1 21 22
M  V30 22 1 22 23
M  V30 23 1 23 24
M  V30 24 1 24 25
M  V30 25 1 25 26
M  V30 26 1 26 27
M  V30 27 2 5 28
M  V30 28 1 28 29
M  V30 29 2 29 30
M  V30 30 1 30 31
M  V30 31 1 30 3
M  V30 32 1 21 7
M  V30 33 1 27 23
M  V30 34 1 19 13
M  V30 35 1 18 15
M  V30 36 1 1 32
M  V30 37 1 1 33
M  V30 38 1 1 34
M  V30 39 1 2 35
M  V30 40 1 6 36
M  V30 41 1 8 37
M  V30 42 1 9 38
M  V30 43 1 14 39
M  V30 44 1 14 40
M  V30 45 1 16 41
M  V30 46 1 16 42
M  V30 47 1 18 43
M  V30 48 1 18 44
M  V30 49 1 19 45
M  V30 50 1 19 46
M  V30 51 1 20 47
M  V30 52 1 23 48
M  V30 53 1 24 49
M  V30 54 1 24 50
M  V30 55 1 25 51
M  V30 56 1 25 52
M  V30 57 1 26 53
M  V30 58 1 26 54
M  V30 59 1 27 55
M  V30 60 1 27 56
M  V30 61 1 29 57
M  V30 END BOND
M  V30 END CTAB
M  END
>  <Dataset>  (635) 
ChEMBL_Kinases

>  <Ligand_Instance>  (635) 
nan

>  <PDB_ID>  (635) 
nan

>  <Standardized_SMILES>  (635) 
CNc1nc(Nc2ccc(C(=O)N3CC4(COC4)C3)cc2OC2CCCC2)ncc1Cl

>  <Name>  (635) 
nan

>  <Pocket>  (635) 
nan

>  <ATP_Site>  (635) 
nan

>  <Peripheral>  (635) 
nan

>  <Num_H_Atoms_ProtBoundConf>  (635) 
nan

>  <Num_Resolved_Atoms>  (635) 
nan

>  <Num_Not_Resolved_Atoms>  (635) 
nan

$$$$
CHEMBL3641861
     RDKit          3D

  0  0  0  0  0  0  0  0  0  0999 V3000
M  V30 BEGIN CTAB
M  V30 COUNTS 47 50 0 0 0
M  V30 BEGIN ATOM
M  V30 1 C -0.357210 -3.003281 4.395793 0
M  V30 2 N -1.404410 -4.019438 4.276462 0
M  V30 3 C -2.285392 -3.984525 3.168842 0
M  V30 4 N -2.190412 -3.045641 2.233479 0
M  V30 5 C -2.970757 -2.939794 1.178100 0
M  V30 6 N -2.842323 -1.917593 0.173072 0
M  V30 7 C -1.898053 -0.888108 0.041257 0
M  V30 8 C -0.828382 -0.681914 0.918038 0
M  V30 9 C 0.106765 0.312601 0.791192 0
M  V30 10 C 0.029776 1.196431 -0.258755 0
M  V30 11 C 1.048970 2.233520 -0.335691 0
M  V30 12 O 0.903091 3.475540 -0.490063 0
M  V30 13 N 2.454400 1.929253 -0.233973 0
M  V30 14 C 3.558556 2.913619 -0.291311 0
M  V30 15 C 4.317514 1.928324 0.532031 0
M  V30 16 C 4.377720 2.050794 1.994186 0
M  V30 17 O 5.756707 1.861096 1.912915 0
M  V30 18 C 5.774138 1.867627 0.499918 0
M  V30 19 C 3.468875 0.866759 -0.070369 0
M  V30 20 C -1.012818 1.016384 -1.137008 0
M  V30 21 C -1.959768 0.028029 -1.028305 0
M  V30 22 O -2.931768 -0.097773 -1.887394 0
M  V30 23 C -3.666036 0.160855 -2.939766 0
M  V30 24 N -3.953910 -3.837502 0.998989 0
M  V30 25 C -4.111066 -4.820297 1.908371 0
M  V30 26 C -3.280294 -4.909873 3.007404 0
M  V30 27 Cl -3.434358 -6.169461 4.234337 0
M  V30 28 H 0.416152 -3.328135 5.134510 0
M  V30 29 H 0.166557 -2.990913 3.400654 0
M  V30 30 H -0.792572 -2.023197 4.648549 0
M  V30 31 H -1.520827 -4.779078 4.999154 0
M  V30 32 H -3.571540 -1.930644 -0.604708 0
M  V30 33 H -0.697747 -1.334478 1.767323 0
M  V30 34 H 0.914493 0.412706 1.514966 0
M  V30 35 H 3.347479 3.876889 0.173445 0
M  V30 36 H 3.920952 2.950212 -1.339511 0
M  V30 37 H 3.849596 1.207430 2.536463 0
M  V30 38 H 4.136047 3.025715 2.443545 0
M  V30 39 H 6.296693 1.043893 0.016873 0
M  V30 40 H 6.241164 2.857750 0.211766 0
M  V30 41 H 3.786787 0.416640 -1.029101 0
M  V30 42 H 3.207491 0.085326 0.659214 0
M  V30 43 H -1.091629 1.701481 -1.964433 0
M  V30 44 H -4.779215 0.123949 -2.699781 0
M  V30 45 H -3.556084 1.229602 -3.313964 0
M  V30 46 H -3.488501 -0.436290 -3.877491 0
M  V30 47 H -4.864767 -5.578758 1.852375 0
M  V30 END ATOM
M  V30 BEGIN BOND
M  V30 1 1 1 2
M  V30 2 1 2 3
M  V30 3 2 3 4
M  V30 4 1 4 5
M  V30 5 1 5 6
M  V30 6 1 6 7
M  V30 7 2 7 8
M  V30 8 1 8 9
M  V30 9 2 9 10
M  V30 10 1 10 11
M  V30 11 2 11 12
M  V30 12 1 11 13
M  V30 13 1 13 14
M  V30 14 1 14 15
M  V30 15 1 15 16
M  V30 16 1 16 17
M  V30 17 1 17 18
M  V30 18 1 15 19
M  V30 19 1 10 20
M  V30 20 2 20 21
M  V30 21 1 21 22
M  V30 22 1 22 23
M  V30 23 2 5 24
M  V30 24 1 24 25
M  V30 25 2 25 26
M  V30 26 1 26 27
M  V30 27 1 26 3
M  V30 28 1 21 7
M  V30 29 1 19 13
M  V30 30 1 18 15
M  V30 31 1 1 28
M  V30 32 1 1 29
M  V30 33 1 1 30
M  V30 34 1 2 31
M  V30 35 1 6 32
M  V30 36 1 8 33
M  V30 37 1 9 34
M  V30 38 1 14 35
M  V30 39 1 14 36
M  V30 40 1 16 37
M  V30 41 1 16 38
M  V30 42 1 18 39
M  V30 43 1 18 40
M  V30 44 1 19 41
M  V30 45 1 19 42
M  V30 46 1 20 43
M  V30 47 1 23 44
M  V30 48 1 23 45
M  V30 49 1 23 46
M  V30 50 1 25 47
M  V30 END BOND
M  V30 END CTAB
M  END
>  <Dataset>  (636) 
ChEMBL_Kinases

>  <Ligand_Instance>  (636) 
nan

>  <PDB_ID>  (636) 
nan

>  <Standardized_SMILES>  (636) 
CNc1nc(Nc2ccc(C(=O)N3CC4(COC4)C3)cc2OC)ncc1Cl

>  <Name>  (636) 
nan

>  <Pocket>  (636) 
nan

>  <ATP_Site>  (636) 
nan

>  <Peripheral>  (636) 
nan

>  <Num_H_Atoms_ProtBoundConf>  (636) 
nan

>  <Num_Resolved_Atoms>  (636) 
nan

>  <Num_Not_Resolved_Atoms>  (636) 
nan

$$$$
CHEMBL3641862
     RDKit          3D

  0  0  0  0  0  0  0  0  0  0999 V3000
M  V30 BEGIN CTAB
M  V30 COUNTS 47 49 0 0 0
M  V30 BEGIN ATOM
M  V30 1 C -0.340824 -3.261694 5.963444 0
M  V30 2 N -0.381477 -3.647701 4.592522 0
M  V30 3 C -0.420759 -4.020708 3.267735 0
M  V30 4 N -0.241948 -3.436740 2.092582 0
M  V30 5 C -0.327600 -3.960108 0.899965 0
M  V30 6 N -0.088416 -3.163737 -0.227782 0
M  V30 7 C 0.329400 -1.838199 -0.339536 0
M  V30 8 C 0.670790 -1.009388 0.704427 0
M  V30 9 C 1.101576 0.306140 0.580535 0
M  V30 10 C 1.188397 0.806624 -0.701368 0
M  V30 11 C 1.657652 2.207213 -0.802626 0
M  V30 12 O 2.632042 2.719217 -1.396739 0
M  V30 13 N 0.830009 3.109989 -0.084246 0
M  V30 14 C 1.244590 4.503771 -0.145449 0
M  V30 15 C 0.538844 5.277179 0.922153 0
M  V30 16 F 0.924018 6.616903 0.801513 0
M  V30 17 F 1.006744 4.879919 2.173646 0
M  V30 18 O -0.834090 5.203865 0.891447 0
M  V30 19 C -1.303661 4.032631 0.307207 0
M  V30 20 F -2.584964 3.825329 0.723258 0
M  V30 21 F -1.188523 4.127031 -1.077409 0
M  V30 22 C -0.362419 2.888301 0.704511 0
M  V30 23 C 0.862388 0.034003 -1.797518 0
M  V30 24 C 0.444422 -1.257352 -1.594113 0
M  V30 25 O 0.119288 -2.023516 -2.687431 0
M  V30 26 C 0.157099 -1.652527 -4.030132 0
M  V30 27 N -0.636918 -5.252280 0.899256 0
M  V30 28 C -0.852714 -6.005940 1.979105 0
M  V30 29 C -0.744727 -5.383972 3.228166 0
M  V30 30 C -0.990469 -6.257173 4.356704 0
M  V30 31 N -1.164791 -6.943583 5.245849 0
M  V30 32 H -0.539414 -4.164600 6.635565 0
M  V30 33 H -1.086030 -2.479818 6.223697 0
M  V30 34 H 0.652909 -2.926821 6.309485 0
M  V30 35 H -0.128737 -2.625246 4.357032 0
M  V30 36 H -0.269772 -3.706536 -1.099953 0
M  V30 37 H 0.621340 -1.350722 1.715369 0
M  V30 38 H 1.359868 0.916314 1.440761 0
M  V30 39 H 1.139863 4.942461 -1.139076 0
M  V30 40 H 2.329793 4.488350 0.134482 0
M  V30 41 H -0.138159 2.927915 1.800927 0
M  V30 42 H -0.849247 1.934490 0.465671 0
M  V30 43 H 0.965951 0.524325 -2.740859 0
M  V30 44 H 1.078238 -2.057059 -4.519466 0
M  V30 45 H -0.721340 -2.175420 -4.516001 0
M  V30 46 H 0.023399 -0.577367 -4.163933 0
M  V30 47 H -1.091539 -7.038033 1.768219 0
M  V30 END ATOM
M  V30 BEGIN BOND
M  V30 1 1 1 2
M  V30 2 1 2 3
M  V30 3 2 3 4
M  V30 4 1 4 5
M  V30 5 1 5 6
M  V30 6 1 6 7
M  V30 7 2 7 8
M  V30 8 1 8 9
M  V30 9 2 9 10
M  V30 10 1 10 11
M  V30 11 2 11 12
M  V30 12 1 11 13
M  V30 13 1 13 14
M  V30 14 1 14 15
M  V30 15 1 15 16
M  V30 16 1 15 17
M  V30 17 1 15 18
M  V30 18 1 18 19
M  V30 19 1 19 20
M  V30 20 1 19 21
M  V30 21 1 19 22
M  V30 22 1 10 23
M  V30 23 2 23 24
M  V30 24 1 24 25
M  V30 25 1 25 26
M  V30 26 2 5 27
M  V30 27 1 27 28
M  V30 28 2 28 29
M  V30 29 1 29 30
M  V30 30 3 30 31
M  V30 31 1 29 3
M  V30 32 1 24 7
M  V30 33 1 22 13
M  V30 34 1 1 32
M  V30 35 1 1 33
M  V30 36 1 1 34
M  V30 37 1 2 35
M  V30 38 1 6 36
M  V30 39 1 8 37
M  V30 40 1 9 38
M  V30 41 1 14 39
M  V30 42 1 14 40
M  V30 43 1 22 41
M  V30 44 1 22 42
M  V30 45 1 23 43
M  V30 46 1 26 44
M  V30 47 1 26 45
M  V30 48 1 26 46
M  V30 49 1 28 47
M  V30 END BOND
M  V30 END CTAB
M  END
>  <Dataset>  (637) 
ChEMBL_Kinases

>  <Ligand_Instance>  (637) 
nan

>  <PDB_ID>  (637) 
nan

>  <Standardized_SMILES>  (637) 
CNc1nc(Nc2ccc(C(=O)N3CC(F)(F)OC(F)(F)C3)cc2OC)ncc1C#N

>  <Name>  (637) 
nan

>  <Pocket>  (637) 
nan

>  <ATP_Site>  (637) 
nan

>  <Peripheral>  (637) 
nan

>  <Num_H_Atoms_ProtBoundConf>  (637) 
nan

>  <Num_Resolved_Atoms>  (637) 
nan

>  <Num_Not_Resolved_Atoms>  (637) 
nan

$$$$
CHEMBL3641854
     RDKit          3D

  0  0  0  0  0  0  0  0  0  0999 V3000
M  V30 BEGIN CTAB
M  V30 COUNTS 54 55 0 0 0
M  V30 BEGIN ATOM
M  V30 1 C 3.302037 -0.989315 4.359688 0
M  V30 2 N 3.327688 -2.416618 4.575498 0
M  V30 3 C 2.715663 -3.456645 3.848247 0
M  V30 4 N 1.997155 -3.298062 2.809578 0
M  V30 5 C 1.342475 -4.089296 1.980093 0
M  V30 6 N 0.571235 -3.836508 0.824380 0
M  V30 7 C 0.262224 -2.557487 0.299171 0
M  V30 8 C 0.558125 -1.355720 0.913759 0
M  V30 9 C 0.196298 -0.169189 0.302319 0
M  V30 10 O 0.446115 1.079995 0.834503 0
M  V30 11 C 1.102962 1.283477 2.063846 0
M  V30 12 C -0.453061 -0.159123 -0.907599 0
M  V30 13 C -0.854775 1.110647 -1.569402 0
M  V30 14 O 0.243921 1.317627 -2.141479 0
M  V30 15 N -2.211188 1.539082 -1.309271 0
M  V30 16 C -3.138397 0.798749 -0.464275 0
M  V30 17 C -2.525894 2.775318 -1.979641 0
M  V30 18 C -3.066961 2.621465 -3.364021 0
M  V30 19 C -4.374098 1.900475 -3.453711 0
M  V30 20 C -2.040016 2.018672 -4.319885 0
M  V30 21 O -3.310092 3.923536 -3.836947 0
M  V30 22 C -0.780953 -1.348050 -1.580980 0
M  V30 23 C -0.388658 -2.489235 -0.908435 0
M  V30 24 Cl -0.812673 -3.964267 -1.779147 0
M  V30 25 N 1.502274 -5.381626 2.375372 0
M  V30 26 C 2.233014 -5.734441 3.458455 0
M  V30 27 C 2.872563 -4.767465 4.238476 0
M  V30 28 C 3.696320 -5.171279 5.398992 0
M  V30 29 F 5.004247 -4.777985 5.118020 0
M  V30 30 F 3.697012 -6.517071 5.612513 0
M  V30 31 F 3.356208 -4.496038 6.563267 0
M  V30 32 H 3.113180 -0.431090 5.309088 0
M  V30 33 H 2.504674 -0.702956 3.659764 0
M  V30 34 H 4.313443 -0.673218 4.038082 0
M  V30 35 H 3.904074 -2.628926 5.407821 0
M  V30 36 H 0.192335 -4.672789 0.316786 0
M  V30 37 H 1.067633 -1.353050 1.864258 0
M  V30 38 H 0.965519 2.317638 2.438121 0
M  V30 39 H 2.221948 1.163379 1.929319 0
M  V30 40 H 0.710028 0.596621 2.846416 0
M  V30 41 H -3.619554 1.526863 0.240092 0
M  V30 42 H -3.844967 0.244557 -1.087728 0
M  V30 43 H -2.505941 0.154522 0.174238 0
M  V30 44 H -1.666712 3.476888 -2.037509 0
M  V30 45 H -3.311685 3.357540 -1.415502 0
M  V30 46 H -5.033805 2.350682 -4.234232 0
M  V30 47 H -4.937131 1.865153 -2.518116 0
M  V30 48 H -4.223346 0.849122 -3.805490 0
M  V30 49 H -1.889987 0.965913 -3.977420 0
M  V30 50 H -1.088712 2.542658 -4.175227 0
M  V30 51 H -2.380934 1.991998 -5.359440 0
M  V30 52 H -4.135679 4.250437 -3.413324 0
M  V30 53 H -1.291803 -1.324599 -2.530279 0
M  V30 54 H 2.357613 -6.784421 3.777597 0
M  V30 END ATOM
M  V30 BEGIN BOND
M  V30 1 1 1 2
M  V30 2 1 2 3
M  V30 3 2 3 4
M  V30 4 1 4 5
M  V30 5 1 5 6
M  V30 6 1 6 7
M  V30 7 2 7 8
M  V30 8 1 8 9
M  V30 9 1 9 10
M  V30 10 1 10 11
M  V30 11 2 9 12
M  V30 12 1 12 13
M  V30 13 2 13 14
M  V30 14 1 13 15
M  V30 15 1 15 16
M  V30 16 1 15 17
M  V30 17 1 17 18
M  V30 18 1 18 19
M  V30 19 1 18 20
M  V30 20 1 18 21
M  V30 21 1 12 22
M  V30 22 2 22 23
M  V30 23 1 23 24
M  V30 24 2 5 25
M  V30 25 1 25 26
M  V30 26 2 26 27
M  V30 27 1 27 28
M  V30 28 1 28 29
M  V30 29 1 28 30
M  V30 30 1 28 31
M  V30 31 1 27 3
M  V30 32 1 23 7
M  V30 33 1 1 32
M  V30 34 1 1 33
M  V30 35 1 1 34
M  V30 36 1 2 35
M  V30 37 1 6 36
M  V30 38 1 8 37
M  V30 39 1 11 38
M  V30 40 1 11 39
M  V30 41 1 11 40
M  V30 42 1 16 41
M  V30 43 1 16 42
M  V30 44 1 16 43
M  V30 45 1 17 44
M  V30 46 1 17 45
M  V30 47 1 19 46
M  V30 48 1 19 47
M  V30 49 1 19 48
M  V30 50 1 20 49
M  V30 51 1 20 50
M  V30 52 1 20 51
M  V30 53 1 21 52
M  V30 54 1 22 53
M  V30 55 1 26 54
M  V30 END BOND
M  V30 END CTAB
M  END
>  <Dataset>  (638) 
ChEMBL_Kinases

>  <Ligand_Instance>  (638) 
nan

>  <PDB_ID>  (638) 
nan

>  <Standardized_SMILES>  (638) 
CNc1nc(Nc2cc(OC)c(C(=O)N(C)CC(C)(C)O)cc2Cl)ncc1C(F)(F)F

>  <Name>  (638) 
nan

>  <Pocket>  (638) 
nan

>  <ATP_Site>  (638) 
nan

>  <Peripheral>  (638) 
nan

>  <Num_H_Atoms_ProtBoundConf>  (638) 
nan

>  <Num_Resolved_Atoms>  (638) 
nan

>  <Num_Not_Resolved_Atoms>  (638) 
nan

$$$$
CHEMBL3641779
     RDKit          3D

  0  0  0  0  0  0  0  0  0  0999 V3000
M  V30 BEGIN CTAB
M  V30 COUNTS 48 50 0 0 0
M  V30 BEGIN ATOM
M  V30 1 C -0.315898 -4.472691 2.515382 0
M  V30 2 N -1.076206 -5.479544 1.780719 0
M  V30 3 C -1.557912 -5.321394 0.457329 0
M  V30 4 N -1.244522 -4.143053 -0.001234 0
M  V30 5 C -1.476950 -3.496286 -1.168598 0
M  V30 6 N -1.061701 -2.188810 -1.274215 0
M  V30 7 C -0.643030 -0.863787 -1.390901 0
M  V30 8 C 0.158155 -0.216760 -2.248173 0
M  V30 9 C 0.528682 1.111884 -1.988073 0
M  V30 10 C 0.054263 1.719061 -0.854804 0
M  V30 11 C 0.475187 3.048118 -0.330653 0
M  V30 12 O 0.143499 4.096578 -0.892131 0
M  V30 13 N 1.296240 2.918076 0.882912 0
M  V30 14 C 1.815589 4.049755 1.598800 0
M  V30 15 C 2.350294 3.544448 2.925078 0
M  V30 16 C 1.928238 2.080267 3.036965 0
M  V30 17 C 1.704965 1.744538 1.571910 0
M  V30 18 C 2.950284 1.061830 0.986226 0
M  V30 19 C -0.763582 1.231944 0.111829 0
M  V30 20 C -1.067527 -0.091968 -0.243469 0
M  V30 21 O -1.925694 -0.810190 0.628264 0
M  V30 22 C -2.478028 -0.280017 1.792470 0
M  V30 23 N -2.190939 -4.255386 -2.072607 0
M  V30 24 C -2.583366 -5.479392 -1.757913 0
M  V30 25 C -2.255888 -5.953700 -0.518863 0
M  V30 26 Cl -2.695610 -7.522453 0.087504 0
M  V30 27 H 0.782108 -4.504292 2.218050 0
M  V30 28 H -0.480509 -4.437374 3.561273 0
M  V30 29 H -0.665922 -3.464128 2.086222 0
M  V30 30 H -1.181299 -6.308754 2.357847 0
M  V30 31 H -0.437395 -2.187016 -0.426712 0
M  V30 32 H 0.462543 -0.749243 -3.099746 0
M  V30 33 H 1.181108 1.664330 -2.634754 0
M  V30 34 H 0.926934 4.712862 1.813975 0
M  V30 35 H 2.571082 4.629702 1.045685 0
M  V30 36 H 3.461965 3.564535 2.952751 0
M  V30 37 H 1.912887 4.112391 3.758880 0
M  V30 38 H 0.960996 1.981645 3.574583 0
M  V30 39 H 2.717791 1.448154 3.471299 0
M  V30 40 H 0.961198 0.913927 1.615864 0
M  V30 41 H 3.866502 1.250794 1.575742 0
M  V30 42 H 2.867438 -0.041066 0.979620 0
M  V30 43 H 3.094637 1.413012 -0.079561 0
M  V30 44 H -1.204965 1.582760 1.013529 0
M  V30 45 H -3.313435 -1.001196 2.122291 0
M  V30 46 H -1.739779 -0.348183 2.631410 0
M  V30 47 H -2.940541 0.717956 1.678414 0
M  V30 48 H -3.127862 -6.149099 -2.355692 0
M  V30 END ATOM
M  V30 BEGIN BOND
M  V30 1 1 1 2
M  V30 2 1 2 3
M  V30 3 2 3 4
M  V30 4 1 4 5
M  V30 5 1 5 6
M  V30 6 1 6 7
M  V30 7 2 7 8
M  V30 8 1 8 9
M  V30 9 2 9 10
M  V30 10 1 10 11
M  V30 11 2 11 12
M  V30 12 1 11 13
M  V30 13 1 13 14
M  V30 14 1 14 15
M  V30 15 1 15 16
M  V30 16 1 16 17
M  V30 17 1 17 18
M  V30 18 1 10 19
M  V30 19 2 19 20
M  V30 20 1 20 21
M  V30 21 1 21 22
M  V30 22 2 5 23
M  V30 23 1 23 24
M  V30 24 2 24 25
M  V30 25 1 25 26
M  V30 26 1 25 3
M  V30 27 1 20 7
M  V30 28 1 17 13
M  V30 29 1 1 27
M  V30 30 1 1 28
M  V30 31 1 1 29
M  V30 32 1 2 30
M  V30 33 1 6 31
M  V30 34 1 8 32
M  V30 35 1 9 33
M  V30 36 1 14 34
M  V30 37 1 14 35
M  V30 38 1 15 36
M  V30 39 1 15 37
M  V30 40 1 16 38
M  V30 41 1 16 39
M  V30 42 1 17 40
M  V30 43 1 18 41
M  V30 44 1 18 42
M  V30 45 1 18 43
M  V30 46 1 19 44
M  V30 47 1 22 45
M  V30 48 1 22 46
M  V30 49 1 22 47
M  V30 50 1 24 48
M  V30 END BOND
M  V30 END CTAB
M  END
>  <Dataset>  (639) 
ChEMBL_Kinases

>  <Ligand_Instance>  (639) 
nan

>  <PDB_ID>  (639) 
nan

>  <Standardized_SMILES>  (639) 
CNc1nc(Nc2ccc(C(=O)N3CCCC3C)cc2OC)ncc1Cl

>  <Name>  (639) 
nan

>  <Pocket>  (639) 
nan

>  <ATP_Site>  (639) 
nan

>  <Peripheral>  (639) 
nan

>  <Num_H_Atoms_ProtBoundConf>  (639) 
nan

>  <Num_Resolved_Atoms>  (639) 
nan

>  <Num_Not_Resolved_Atoms>  (639) 
nan

$$$$
CHEMBL3641778
     RDKit          3D

  0  0  0  0  0  0  0  0  0  0999 V3000
M  V30 BEGIN CTAB
M  V30 COUNTS 51 53 0 0 0
M  V30 BEGIN ATOM
M  V30 1 C -0.926071 -4.905930 4.059015 0
M  V30 2 N 0.390235 -5.236193 4.521499 0
M  V30 3 C 1.564622 -4.934437 3.742989 0
M  V30 4 N 1.450862 -4.327129 2.539013 0
M  V30 5 C 2.539135 -4.022119 1.770308 0
M  V30 6 N 2.102063 -3.402649 0.571921 0
M  V30 7 C 1.766464 -2.063533 0.247000 0
M  V30 8 C 1.849412 -1.124947 1.267113 0
M  V30 9 C 1.508829 0.184669 0.966745 0
M  V30 10 C 1.106195 0.505330 -0.313543 0
M  V30 11 C 0.716323 1.829474 -0.761701 0
M  V30 12 O 1.283121 2.497756 -1.679233 0
M  V30 13 N -0.413255 2.460010 -0.119759 0
M  V30 14 C -1.201902 1.848702 0.960651 0
M  V30 15 C -2.656659 1.881380 0.713912 0
M  V30 16 C -3.095840 2.524746 -0.555949 0
M  V30 17 C -2.243232 3.600789 -1.084425 0
M  V30 18 C -3.027362 4.924554 -1.012090 0
M  V30 19 F -4.165447 4.773492 -1.780176 0
M  V30 20 F -2.232015 5.903832 -1.600034 0
M  V30 21 F -3.364066 5.240893 0.287452 0
M  V30 22 C -0.898933 3.778367 -0.466336 0
M  V30 23 C 1.032044 -0.460552 -1.323053 0
M  V30 24 C 1.368546 -1.762481 -1.031618 0
M  V30 25 O 1.328245 -2.779568 -1.952784 0
M  V30 26 C 0.951878 -2.668865 -3.296205 0
M  V30 27 N 3.767714 -4.352238 2.258515 0
M  V30 28 C 3.891771 -4.958410 3.458916 0
M  V30 29 C 2.803719 -5.271082 4.242139 0
M  V30 30 Cl 3.035557 -6.056858 5.786223 0
M  V30 31 H -1.446087 -4.421105 4.934905 0
M  V30 32 H -0.887713 -4.120780 3.274474 0
M  V30 33 H -1.497407 -5.796214 3.801625 0
M  V30 34 H 0.479614 -5.703977 5.444635 0
M  V30 35 H 2.060404 -4.186728 -0.122305 0
M  V30 36 H 2.152773 -1.302428 2.279739 0
M  V30 37 H 1.542037 0.983455 1.689565 0
M  V30 38 H -0.926678 2.465982 1.859428 0
M  V30 39 H -0.838003 0.818803 1.200696 0
M  V30 40 H -3.147170 2.435643 1.559140 0
M  V30 41 H -3.061537 0.850950 0.813762 0
M  V30 42 H -4.152528 2.858472 -0.521781 0
M  V30 43 H -3.113254 1.693147 -1.322244 0
M  V30 44 H -2.073483 3.475706 -2.195884 0
M  V30 45 H -0.232623 4.289296 -1.191824 0
M  V30 46 H -0.972807 4.359344 0.493934 0
M  V30 47 H 0.725319 -0.273412 -2.342186 0
M  V30 48 H -0.042404 -2.164467 -3.405241 0
M  V30 49 H 0.850582 -3.692331 -3.735332 0
M  V30 50 H 1.685089 -2.154879 -3.941310 0
M  V30 51 H 4.911625 -5.168188 3.734360 0
M  V30 END ATOM
M  V30 BEGIN BOND
M  V30 1 1 1 2
M  V30 2 1 2 3
M  V30 3 2 3 4
M  V30 4 1 4 5
M  V30 5 1 5 6
M  V30 6 1 6 7
M  V30 7 2 7 8
M  V30 8 1 8 9
M  V30 9 2 9 10
M  V30 10 1 10 11
M  V30 11 2 11 12
M  V30 12 1 11 13
M  V30 13 1 13 14
M  V30 14 1 14 15
M  V30 15 1 15 16
M  V30 16 1 16 17
M  V30 17 1 17 18
M  V30 18 1 18 19
M  V30 19 1 18 20
M  V30 20 1 18 21
M  V30 21 1 17 22
M  V30 22 1 10 23
M  V30 23 2 23 24
M  V30 24 1 24 25
M  V30 25 1 25 26
M  V30 26 2 5 27
M  V30 27 1 27 28
M  V30 28 2 28 29
M  V30 29 1 29 30
M  V30 30 1 29 3
M  V30 31 1 24 7
M  V30 32 1 22 13
M  V30 33 1 1 31
M  V30 34 1 1 32
M  V30 35 1 1 33
M  V30 36 1 2 34
M  V30 37 1 6 35
M  V30 38 1 8 36
M  V30 39 1 9 37
M  V30 40 1 14 38
M  V30 41 1 14 39
M  V30 42 1 15 40
M  V30 43 1 15 41
M  V30 44 1 16 42
M  V30 45 1 16 43
M  V30 46 1 17 44
M  V30 47 1 22 45
M  V30 48 1 22 46
M  V30 49 1 23 47
M  V30 50 1 26 48
M  V30 51 1 26 49
M  V30 52 1 26 50
M  V30 53 1 28 51
M  V30 END BOND
M  V30 END CTAB
M  END
>  <Dataset>  (640) 
ChEMBL_Kinases

>  <Ligand_Instance>  (640) 
nan

>  <PDB_ID>  (640) 
nan

>  <Standardized_SMILES>  (640) 
CNc1nc(Nc2ccc(C(=O)N3CCCC(C(F)(F)F)C3)cc2OC)ncc1Cl

>  <Name>  (640) 
nan

>  <Pocket>  (640) 
nan

>  <ATP_Site>  (640) 
nan

>  <Peripheral>  (640) 
nan

>  <Num_H_Atoms_ProtBoundConf>  (640) 
nan

>  <Num_Resolved_Atoms>  (640) 
nan

>  <Num_Not_Resolved_Atoms>  (640) 
nan

$$$$
CHEMBL3641777
     RDKit          3D

  0  0  0  0  0  0  0  0  0  0999 V3000
M  V30 BEGIN CTAB
M  V30 COUNTS 52 54 0 0 0
M  V30 BEGIN ATOM
M  V30 1 C -1.155784 -3.840475 3.592016 0
M  V30 2 N -0.275367 -4.989257 3.410554 0
M  V30 3 C 0.597706 -5.185284 2.282882 0
M  V30 4 N 0.709240 -4.348778 1.275498 0
M  V30 5 C 1.467368 -4.427545 0.194567 0
M  V30 6 N 1.554278 -3.496252 -0.867797 0
M  V30 7 C 0.938820 -2.227719 -0.988185 0
M  V30 8 C 0.196672 -1.610967 0.013576 0
M  V30 9 C -0.392506 -0.372553 -0.085053 0
M  V30 10 C -0.251133 0.333466 -1.261845 0
M  V30 11 C -0.923139 1.640123 -1.253659 0
M  V30 12 O -1.896060 1.823126 -2.040656 0
M  V30 13 N -0.415471 2.622554 -0.336850 0
M  V30 14 C 0.676824 2.643498 0.642934 0
M  V30 15 C 0.091247 3.142770 1.950013 0
M  V30 16 N -1.372023 3.003041 1.945596 0
M  V30 17 C -2.224781 2.160419 2.750215 0
M  V30 18 C -1.636264 1.258603 3.763287 0
M  V30 19 O -3.480142 2.188273 2.593166 0
M  V30 20 C -1.957557 3.877268 0.953754 0
M  V30 21 C -1.111855 3.894648 -0.328448 0
M  V30 22 C 0.469068 -0.236441 -2.269399 0
M  V30 23 C 1.047379 -1.476102 -2.142231 0
M  V30 24 O 1.773664 -2.011853 -3.207579 0
M  V30 25 C 1.978970 -1.398111 -4.440913 0
M  V30 26 N 2.198627 -5.527690 0.180179 0
M  V30 27 C 2.199273 -6.468649 1.121953 0
M  V30 28 C 1.378543 -6.301314 2.207308 0
M  V30 29 Cl 1.285295 -7.477987 3.523898 0
M  V30 30 H -0.783284 -3.266273 4.450995 0
M  V30 31 H -2.202556 -4.192165 3.724152 0
M  V30 32 H -1.142590 -3.231414 2.671712 0
M  V30 33 H -0.290276 -5.714307 4.158556 0
M  V30 34 H 2.159472 -3.777321 -1.689451 0
M  V30 35 H 0.066982 -2.130681 0.950340 0
M  V30 36 H -0.961177 0.019310 0.776699 0
M  V30 37 H 1.188193 1.683856 0.725114 0
M  V30 38 H 1.390787 3.449080 0.302982 0
M  V30 39 H 0.371492 4.195127 2.163597 0
M  V30 40 H 0.526045 2.538019 2.764657 0
M  V30 41 H -1.739539 1.614478 4.802551 0
M  V30 42 H -2.210598 0.291124 3.684324 0
M  V30 43 H -0.613142 1.012508 3.466750 0
M  V30 44 H -2.136066 4.909454 1.333911 0
M  V30 45 H -2.966846 3.503192 0.612030 0
M  V30 46 H -0.409792 4.757403 -0.269984 0
M  V30 47 H -1.768693 4.043051 -1.213197 0
M  V30 48 H 0.553129 0.352319 -3.170301 0
M  V30 49 H 2.065364 -2.203957 -5.227591 0
M  V30 50 H 2.885193 -0.768818 -4.495625 0
M  V30 51 H 1.082387 -0.816303 -4.763345 0
M  V30 52 H 2.828964 -7.355036 1.046033 0
M  V30 END ATOM
M  V30 BEGIN BOND
M  V30 1 1 1 2
M  V30 2 1 2 3
M  V30 3 2 3 4
M  V30 4 1 4 5
M  V30 5 1 5 6
M  V30 6 1 6 7
M  V30 7 2 7 8
M  V30 8 1 8 9
M  V30 9 2 9 10
M  V30 10 1 10 11
M  V30 11 2 11 12
M  V30 12 1 11 13
M  V30 13 1 13 14
M  V30 14 1 14 15
M  V30 15 1 15 16
M  V30 16 1 16 17
M  V30 17 1 17 18
M  V30 18 2 17 19
M  V30 19 1 16 20
M  V30 20 1 20 21
M  V30 21 1 10 22
M  V30 22 2 22 23
M  V30 23 1 23 24
M  V30 24 1 24 25
M  V30 25 2 5 26
M  V30 26 1 26 27
M  V30 27 2 27 28
M  V30 28 1 28 29
M  V30 29 1 28 3
M  V30 30 1 23 7
M  V30 31 1 21 13
M  V30 32 1 1 30
M  V30 33 1 1 31
M  V30 34 1 1 32
M  V30 35 1 2 33
M  V30 36 1 6 34
M  V30 37 1 8 35
M  V30 38 1 9 36
M  V30 39 1 14 37
M  V30 40 1 14 38
M  V30 41 1 15 39
M  V30 42 1 15 40
M  V30 43 1 18 41
M  V30 44 1 18 42
M  V30 45 1 18 43
M  V30 46 1 20 44
M  V30 47 1 20 45
M  V30 48 1 21 46
M  V30 49 1 21 47
M  V30 50 1 22 48
M  V30 51 1 25 49
M  V30 52 1 25 50
M  V30 53 1 25 51
M  V30 54 1 27 52
M  V30 END BOND
M  V30 END CTAB
M  END
>  <Dataset>  (641) 
ChEMBL_Kinases

>  <Ligand_Instance>  (641) 
nan

>  <PDB_ID>  (641) 
nan

>  <Standardized_SMILES>  (641) 
CNc1nc(Nc2ccc(C(=O)N3CCN(C(C)=O)CC3)cc2OC)ncc1Cl

>  <Name>  (641) 
nan

>  <Pocket>  (641) 
nan

>  <ATP_Site>  (641) 
nan

>  <Peripheral>  (641) 
nan

>  <Num_H_Atoms_ProtBoundConf>  (641) 
nan

>  <Num_Resolved_Atoms>  (641) 
nan

>  <Num_Not_Resolved_Atoms>  (641) 
nan

$$$$
CHEMBL3641776
     RDKit          3D

  0  0  0  0  0  0  0  0  0  0999 V3000
M  V30 BEGIN CTAB
M  V30 COUNTS 48 50 0 0 0
M  V30 BEGIN ATOM
M  V30 1 C -1.695073 -3.333352 4.613618 0
M  V30 2 N -1.816606 -4.451760 3.704953 0
M  V30 3 C -2.082305 -4.323882 2.315647 0
M  V30 4 N -2.223820 -3.082632 1.830965 0
M  V30 5 C -2.478093 -2.843783 0.549092 0
M  V30 6 N -2.628633 -1.653303 -0.220449 0
M  V30 7 C -1.751004 -0.527460 -0.063186 0
M  V30 8 C -0.717680 -0.586492 0.846704 0
M  V30 9 C 0.133063 0.522062 0.936993 0
M  V30 10 C -0.023315 1.673426 0.147907 0
M  V30 11 C 1.034758 2.615155 0.481587 0
M  V30 12 O 0.917633 3.761910 1.042471 0
M  V30 13 N 2.351493 2.205836 0.144502 0
M  V30 14 C 3.578540 2.959823 0.387113 0
M  V30 15 C 4.238440 2.260953 1.552976 0
M  V30 16 C 4.309065 0.774784 1.451294 0
M  V30 17 F 3.791118 0.252082 2.638013 0
M  V30 18 F 5.643661 0.401824 1.472420 0
M  V30 19 C 3.664442 0.132835 0.278061 0
M  V30 20 C 2.719355 0.980822 -0.497710 0
M  V30 21 C -1.080037 1.678231 -0.747806 0
M  V30 22 C -1.935869 0.606759 -0.863091 0
M  V30 23 O -2.881706 0.697860 -1.714878 0
M  V30 24 C -3.854272 0.800904 -2.596000 0
M  V30 25 N -2.591550 -3.919932 -0.264708 0
M  V30 26 C -2.465686 -5.195381 0.129492 0
M  V30 27 C -2.202515 -5.417202 1.460202 0
M  V30 28 Cl -2.002013 -7.037246 2.102085 0
M  V30 29 H -1.519268 -3.700769 5.639793 0
M  V30 30 H -0.897883 -2.639256 4.268621 0
M  V30 31 H -2.627843 -2.755558 4.629809 0
M  V30 32 H -1.711054 -5.421774 4.057978 0
M  V30 33 H -3.407501 -1.565084 -0.925800 0
M  V30 34 H -0.586183 -1.462558 1.457500 0
M  V30 35 H 0.907247 0.349068 1.694359 0
M  V30 36 H 3.246537 3.962529 0.718356 0
M  V30 37 H 4.237054 3.019425 -0.477281 0
M  V30 38 H 3.683143 2.599902 2.463871 0
M  V30 39 H 5.240404 2.718853 1.668948 0
M  V30 40 H 4.429716 -0.259711 -0.437953 0
M  V30 41 H 3.118468 -0.780294 0.597897 0
M  V30 42 H 1.790461 0.459135 -0.822129 0
M  V30 43 H 3.183101 1.297001 -1.483041 0
M  V30 44 H -1.088088 2.610536 -1.286813 0
M  V30 45 H -3.720615 0.218678 -3.563103 0
M  V30 46 H -4.041407 1.846457 -3.008313 0
M  V30 47 H -4.883048 0.431480 -2.264089 0
M  V30 48 H -2.560609 -6.048111 -0.552151 0
M  V30 END ATOM
M  V30 BEGIN BOND
M  V30 1 1 1 2
M  V30 2 1 2 3
M  V30 3 2 3 4
M  V30 4 1 4 5
M  V30 5 1 5 6
M  V30 6 1 6 7
M  V30 7 2 7 8
M  V30 8 1 8 9
M  V30 9 2 9 10
M  V30 10 1 10 11
M  V30 11 2 11 12
M  V30 12 1 11 13
M  V30 13 1 13 14
M  V30 14 1 14 15
M  V30 15 1 15 16
M  V30 16 1 16 17
M  V30 17 1 16 18
M  V30 18 1 16 19
M  V30 19 1 19 20
M  V30 20 1 10 21
M  V30 21 2 21 22
M  V30 22 1 22 23
M  V30 23 1 23 24
M  V30 24 2 5 25
M  V30 25 1 25 26
M  V30 26 2 26 27
M  V30 27 1 27 28
M  V30 28 1 27 3
M  V30 29 1 22 7
M  V30 30 1 20 13
M  V30 31 1 1 29
M  V30 32 1 1 30
M  V30 33 1 1 31
M  V30 34 1 2 32
M  V30 35 1 6 33
M  V30 36 1 8 34
M  V30 37 1 9 35
M  V30 38 1 14 36
M  V30 39 1 14 37
M  V30 40 1 15 38
M  V30 41 1 15 39
M  V30 42 1 19 40
M  V30 43 1 19 41
M  V30 44 1 20 42
M  V30 45 1 20 43
M  V30 46 1 21 44
M  V30 47 1 24 45
M  V30 48 1 24 46
M  V30 49 1 24 47
M  V30 50 1 26 48
M  V30 END BOND
M  V30 END CTAB
M  END
>  <Dataset>  (642) 
ChEMBL_Kinases

>  <Ligand_Instance>  (642) 
nan

>  <PDB_ID>  (642) 
nan

>  <Standardized_SMILES>  (642) 
CNc1nc(Nc2ccc(C(=O)N3CCC(F)(F)CC3)cc2OC)ncc1Cl

>  <Name>  (642) 
nan

>  <Pocket>  (642) 
nan

>  <ATP_Site>  (642) 
nan

>  <Peripheral>  (642) 
nan

>  <Num_H_Atoms_ProtBoundConf>  (642) 
nan

>  <Num_Resolved_Atoms>  (642) 
nan

>  <Num_Not_Resolved_Atoms>  (642) 
nan

$$$$
CHEMBL3641775
     RDKit          3D

  0  0  0  0  0  0  0  0  0  0999 V3000
M  V30 BEGIN CTAB
M  V30 COUNTS 42 44 0 0 0
M  V30 BEGIN ATOM
M  V30 1 C 1.755861 -5.468959 2.968631 0
M  V30 2 N 1.957434 -4.619149 4.135682 0
M  V30 3 C 1.210048 -3.419254 4.246374 0
M  V30 4 N 0.320512 -3.016077 3.333470 0
M  V30 5 C -0.402823 -1.873112 3.424618 0
M  V30 6 N -1.312289 -1.560005 2.385878 0
M  V30 7 C -0.966799 -0.761882 1.261861 0
M  V30 8 C 0.302488 -0.244124 1.162283 0
M  V30 9 C 0.720852 0.540060 0.108961 0
M  V30 10 C -0.148738 0.846701 -0.923306 0
M  V30 11 C 0.214537 1.674770 -2.095203 0
M  V30 12 O -0.743746 1.855990 -2.931768 0
M  V30 13 N 1.555965 2.205869 -2.227028 0
M  V30 14 C 2.926213 2.355618 -1.706989 0
M  V30 15 C 3.419228 2.833004 -3.058634 0
M  V30 16 C 1.977331 3.037011 -3.372241 0
M  V30 17 C -1.418267 0.320077 -0.808600 0
M  V30 18 C -1.842658 -0.463513 0.240510 0
M  V30 19 O -3.135493 -0.956130 0.286287 0
M  V30 20 C -4.085285 -0.696821 -0.713672 0
M  V30 21 N -0.240273 -1.081978 4.475812 0
M  V30 22 C 0.641484 -1.402095 5.461971 0
M  V30 23 C 1.370393 -2.579927 5.343254 0
M  V30 24 Cl 2.477686 -2.942246 6.622445 0
M  V30 25 H 0.655649 -5.673728 2.925874 0
M  V30 26 H 2.021633 -4.923377 2.038549 0
M  V30 27 H 2.334664 -6.416791 3.080276 0
M  V30 28 H 2.629952 -4.861729 4.890463 0
M  V30 29 H -2.293736 -1.910099 2.399939 0
M  V30 30 H 1.070314 -0.430033 1.931023 0
M  V30 31 H 1.723239 0.925912 0.075010 0
M  V30 32 H 3.442024 1.420433 -1.447860 0
M  V30 33 H 2.921421 3.107910 -0.912503 0
M  V30 34 H 3.923443 2.058323 -3.653841 0
M  V30 35 H 4.044325 3.751694 -3.038809 0
M  V30 36 H 1.663450 2.648143 -4.360288 0
M  V30 37 H 1.671538 4.086806 -3.247230 0
M  V30 38 H -2.163039 0.510681 -1.571735 0
M  V30 39 H -4.485218 0.326853 -0.703550 0
M  V30 40 H -3.635879 -0.893633 -1.712738 0
M  V30 41 H -4.951467 -1.388479 -0.589491 0
M  V30 42 H 0.738921 -0.715259 6.308028 0
M  V30 END ATOM
M  V30 BEGIN BOND
M  V30 1 1 1 2
M  V30 2 1 2 3
M  V30 3 2 3 4
M  V30 4 1 4 5
M  V30 5 1 5 6
M  V30 6 1 6 7
M  V30 7 2 7 8
M  V30 8 1 8 9
M  V30 9 2 9 10
M  V30 10 1 10 11
M  V30 11 2 11 12
M  V30 12 1 11 13
M  V30 13 1 13 14
M  V30 14 1 14 15
M  V30 15 1 15 16
M  V30 16 1 10 17
M  V30 17 2 17 18
M  V30 18 1 18 19
M  V30 19 1 19 20
M  V30 20 2 5 21
M  V30 21 1 21 22
M  V30 22 2 22 23
M  V30 23 1 23 24
M  V30 24 1 23 3
M  V30 25 1 18 7
M  V30 26 1 16 13
M  V30 27 1 1 25
M  V30 28 1 1 26
M  V30 29 1 1 27
M  V30 30 1 2 28
M  V30 31 1 6 29
M  V30 32 1 8 30
M  V30 33 1 9 31
M  V30 34 1 14 32
M  V30 35 1 14 33
M  V30 36 1 15 34
M  V30 37 1 15 35
M  V30 38 1 16 36
M  V30 39 1 16 37
M  V30 40 1 17 38
M  V30 41 1 20 39
M  V30 42 1 20 40
M  V30 43 1 20 41
M  V30 44 1 22 42
M  V30 END BOND
M  V30 END CTAB
M  END
>  <Dataset>  (643) 
ChEMBL_Kinases

>  <Ligand_Instance>  (643) 
nan

>  <PDB_ID>  (643) 
nan

>  <Standardized_SMILES>  (643) 
CNc1nc(Nc2ccc(C(=O)N3CCC3)cc2OC)ncc1Cl

>  <Name>  (643) 
nan

>  <Pocket>  (643) 
nan

>  <ATP_Site>  (643) 
nan

>  <Peripheral>  (643) 
nan

>  <Num_H_Atoms_ProtBoundConf>  (643) 
nan

>  <Num_Resolved_Atoms>  (643) 
nan

>  <Num_Not_Resolved_Atoms>  (643) 
nan

$$$$
CHEMBL3641774
     RDKit          3D

  0  0  0  0  0  0  0  0  0  0999 V3000
M  V30 BEGIN CTAB
M  V30 COUNTS 48 50 0 0 0
M  V30 BEGIN ATOM
M  V30 1 C 0.038996 -3.656280 2.725532 0
M  V30 2 N -0.592940 -4.671130 1.901967 0
M  V30 3 C -1.051297 -4.481897 0.553550 0
M  V30 4 N -0.978919 -3.405470 -0.206397 0
M  V30 5 C -1.382237 -3.166953 -1.491674 0
M  V30 6 N -1.004423 -1.871998 -1.593925 0
M  V30 7 C -0.617203 -0.560963 -1.705194 0
M  V30 8 C 0.193856 0.219629 -2.429552 0
M  V30 9 C 0.468347 1.489648 -1.978310 0
M  V30 10 C -0.104703 1.889337 -0.806727 0
M  V30 11 C 0.356144 3.116705 -0.173681 0
M  V30 12 O 0.149721 4.344870 -0.161134 0
M  V30 13 N 1.395399 2.567925 0.700836 0
M  V30 14 C 2.209917 3.434066 1.578949 0
M  V30 15 C 2.641331 2.653008 2.776864 0
M  V30 16 C 1.550311 1.686304 3.218175 0
M  V30 17 C 1.443728 0.621145 2.159715 0
M  V30 18 C 1.819366 1.178973 0.850495 0
M  V30 19 C -0.965029 1.163851 0.002775 0
M  V30 20 C -1.256712 -0.171092 -0.477442 0
M  V30 21 O -2.114010 -0.876740 0.312944 0
M  V30 22 C -2.775164 -0.579506 1.468572 0
M  V30 23 N -1.952465 -4.221964 -2.084504 0
M  V30 24 C -2.087432 -5.398602 -1.414331 0
M  V30 25 C -1.650439 -5.530140 -0.122924 0
M  V30 26 Cl -1.836075 -7.064501 0.701395 0
M  V30 27 H 0.993207 -3.309882 2.300155 0
M  V30 28 H 0.339515 -4.102312 3.709401 0
M  V30 29 H -0.668676 -2.841157 2.955853 0
M  V30 30 H -0.730950 -5.596622 2.326160 0
M  V30 31 H -0.516650 -2.192608 -2.503529 0
M  V30 32 H 0.484257 -0.317315 -3.303209 0
M  V30 33 H 1.133974 2.086188 -2.605561 0
M  V30 34 H 1.633351 4.344081 1.852573 0
M  V30 35 H 3.137139 3.687098 0.999159 0
M  V30 36 H 3.555531 2.023723 2.529914 0
M  V30 37 H 2.957003 3.268327 3.622600 0
M  V30 38 H 0.595933 2.273239 3.237320 0
M  V30 39 H 1.785368 1.268401 4.209851 0
M  V30 40 H 0.420022 0.231391 2.255995 0
M  V30 41 H 2.091220 -0.279641 2.429573 0
M  V30 42 H 1.534769 0.537764 -0.012554 0
M  V30 43 H 2.958887 1.205714 0.807957 0
M  V30 44 H -1.358407 1.629960 0.927803 0
M  V30 45 H -2.507286 -1.393453 2.202157 0
M  V30 46 H -3.907679 -0.612806 1.299812 0
M  V30 47 H -2.546003 0.360667 1.965986 0
M  V30 48 H -2.538569 -6.146196 -2.018663 0
M  V30 END ATOM
M  V30 BEGIN BOND
M  V30 1 1 1 2
M  V30 2 1 2 3
M  V30 3 2 3 4
M  V30 4 1 4 5
M  V30 5 1 5 6
M  V30 6 1 6 7
M  V30 7 2 7 8
M  V30 8 1 8 9
M  V30 9 2 9 10
M  V30 10 1 10 11
M  V30 11 2 11 12
M  V30 12 1 11 13
M  V30 13 1 13 14
M  V30 14 1 14 15
M  V30 15 1 15 16
M  V30 16 1 16 17
M  V30 17 1 17 18
M  V30 18 1 10 19
M  V30 19 2 19 20
M  V30 20 1 20 21
M  V30 21 1 21 22
M  V30 22 2 5 23
M  V30 23 1 23 24
M  V30 24 2 24 25
M  V30 25 1 25 26
M  V30 26 1 25 3
M  V30 27 1 20 7
M  V30 28 1 18 13
M  V30 29 1 1 27
M  V30 30 1 1 28
M  V30 31 1 1 29
M  V30 32 1 2 30
M  V30 33 1 6 31
M  V30 34 1 8 32
M  V30 35 1 9 33
M  V30 36 1 14 34
M  V30 37 1 14 35
M  V30 38 1 15 36
M  V30 39 1 15 37
M  V30 40 1 16 38
M  V30 41 1 16 39
M  V30 42 1 17 40
M  V30 43 1 17 41
M  V30 44 1 18 42
M  V30 45 1 18 43
M  V30 46 1 19 44
M  V30 47 1 22 45
M  V30 48 1 22 46
M  V30 49 1 22 47
M  V30 50 1 24 48
M  V30 END BOND
M  V30 END CTAB
M  END
>  <Dataset>  (644) 
ChEMBL_Kinases

>  <Ligand_Instance>  (644) 
nan

>  <PDB_ID>  (644) 
nan

>  <Standardized_SMILES>  (644) 
CNc1nc(Nc2ccc(C(=O)N3CCCCC3)cc2OC)ncc1Cl

>  <Name>  (644) 
nan

>  <Pocket>  (644) 
nan

>  <ATP_Site>  (644) 
nan

>  <Peripheral>  (644) 
nan

>  <Num_H_Atoms_ProtBoundConf>  (644) 
nan

>  <Num_Resolved_Atoms>  (644) 
nan

>  <Num_Not_Resolved_Atoms>  (644) 
nan

$$$$
CHEMBL3641773
     RDKit          3D

  0  0  0  0  0  0  0  0  0  0999 V3000
M  V30 BEGIN CTAB
M  V30 COUNTS 54 56 0 0 0
M  V30 BEGIN ATOM
M  V30 1 C 2.325799 -3.420136 3.670922 0
M  V30 2 N 3.141262 -4.569981 3.359169 0
M  V30 3 C 3.253509 -5.002880 1.998644 0
M  V30 4 N 2.633711 -4.357166 1.024174 0
M  V30 5 C 2.640282 -4.628174 -0.281903 0
M  V30 6 N 1.973865 -3.877463 -1.288216 0
M  V30 7 C 1.282720 -2.641579 -1.202414 0
M  V30 8 C 1.249616 -1.938350 -0.006230 0
M  V30 9 C 0.607480 -0.718086 0.100264 0
M  V30 10 C -0.034511 -0.128804 -0.965492 0
M  V30 11 C -0.725868 1.167264 -0.905365 0
M  V30 12 O -0.915091 1.685583 -2.056010 0
M  V30 13 N -1.172030 1.841471 0.256953 0
M  V30 14 C -1.158540 1.610743 1.687963 0
M  V30 15 C -2.111380 2.444727 2.469048 0
M  V30 16 C -2.314728 1.724317 3.806817 0
M  V30 17 C -3.459204 2.558201 1.803635 0
M  V30 18 C -3.315283 2.977920 0.349896 0
M  V30 19 C -4.006295 4.282419 0.151913 0
M  V30 20 C -1.839655 3.130320 0.003953 0
M  V30 21 C 0.013128 -0.848310 -2.141239 0
M  V30 22 C 0.641144 -2.058020 -2.274580 0
M  V30 23 O 0.671068 -2.752380 -3.457197 0
M  V30 24 C 0.053314 -2.249243 -4.602799 0
M  V30 25 N 3.365432 -5.690052 -0.664492 0
M  V30 26 C 4.049299 -6.435445 0.240385 0
M  V30 27 C 3.987134 -6.084546 1.566100 0
M  V30 28 Cl 4.861124 -7.018487 2.792873 0
M  V30 29 H 2.156064 -3.349949 4.755542 0
M  V30 30 H 2.872384 -2.502628 3.382293 0
M  V30 31 H 1.326805 -3.457975 3.196192 0
M  V30 32 H 3.670289 -5.125191 4.063939 0
M  V30 33 H 1.981953 -4.284181 -2.257275 0
M  V30 34 H 1.711169 -2.273465 0.907977 0
M  V30 35 H 0.614614 -0.213553 1.050371 0
M  V30 36 H -0.114010 1.798740 2.031999 0
M  V30 37 H -1.480196 0.552270 1.820549 0
M  V30 38 H -1.738729 3.459880 2.724183 0
M  V30 39 H -3.012918 2.249891 4.471845 0
M  V30 40 H -1.312280 1.676685 4.322083 0
M  V30 41 H -2.584299 0.673412 3.588489 0
M  V30 42 H -3.968750 1.575802 1.813446 0
M  V30 43 H -4.072897 3.291919 2.331017 0
M  V30 44 H -3.783738 2.228931 -0.333661 0
M  V30 45 H -4.865998 4.205986 -0.579334 0
M  V30 46 H -4.497783 4.629725 1.110065 0
M  V30 47 H -3.355146 5.081185 -0.215419 0
M  V30 48 H -1.782713 3.441887 -1.046713 0
M  V30 49 H -1.388446 3.908452 0.619435 0
M  V30 50 H -0.471517 -0.429026 -2.996835 0
M  V30 51 H -0.099591 -3.112633 -5.293184 0
M  V30 52 H 0.692818 -1.464697 -5.102063 0
M  V30 53 H -0.941309 -1.807316 -4.386424 0
M  V30 54 H 4.637880 -7.281464 -0.006591 0
M  V30 END ATOM
M  V30 BEGIN BOND
M  V30 1 1 1 2
M  V30 2 1 2 3
M  V30 3 2 3 4
M  V30 4 1 4 5
M  V30 5 1 5 6
M  V30 6 1 6 7
M  V30 7 2 7 8
M  V30 8 1 8 9
M  V30 9 2 9 10
M  V30 10 1 10 11
M  V30 11 2 11 12
M  V30 12 1 11 13
M  V30 13 1 13 14
M  V30 14 1 14 15
M  V30 15 1 15 16
M  V30 16 1 15 17
M  V30 17 1 17 18
M  V30 18 1 18 19
M  V30 19 1 18 20
M  V30 20 1 10 21
M  V30 21 2 21 22
M  V30 22 1 22 23
M  V30 23 1 23 24
M  V30 24 2 5 25
M  V30 25 1 25 26
M  V30 26 2 26 27
M  V30 27 1 27 28
M  V30 28 1 27 3
M  V30 29 1 22 7
M  V30 30 1 20 13
M  V30 31 1 1 29
M  V30 32 1 1 30
M  V30 33 1 1 31
M  V30 34 1 2 32
M  V30 35 1 6 33
M  V30 36 1 8 34
M  V30 37 1 9 35
M  V30 38 1 14 36
M  V30 39 1 14 37
M  V30 40 1 15 38
M  V30 41 1 16 39
M  V30 42 1 16 40
M  V30 43 1 16 41
M  V30 44 1 17 42
M  V30 45 1 17 43
M  V30 46 1 18 44
M  V30 47 1 19 45
M  V30 48 1 19 46
M  V30 49 1 19 47
M  V30 50 1 20 48
M  V30 51 1 20 49
M  V30 52 1 21 50
M  V30 53 1 24 51
M  V30 54 1 24 52
M  V30 55 1 24 53
M  V30 56 1 26 54
M  V30 END BOND
M  V30 END CTAB
M  END
>  <Dataset>  (645) 
ChEMBL_Kinases

>  <Ligand_Instance>  (645) 
nan

>  <PDB_ID>  (645) 
nan

>  <Standardized_SMILES>  (645) 
CNc1nc(Nc2ccc(C(=O)N3CC(C)CC(C)C3)cc2OC)ncc1Cl

>  <Name>  (645) 
nan

>  <Pocket>  (645) 
nan

>  <ATP_Site>  (645) 
nan

>  <Peripheral>  (645) 
nan

>  <Num_H_Atoms_ProtBoundConf>  (645) 
nan

>  <Num_Resolved_Atoms>  (645) 
nan

>  <Num_Not_Resolved_Atoms>  (645) 
nan

$$$$
CHEMBL3641772
     RDKit          3D

  0  0  0  0  0  0  0  0  0  0999 V3000
M  V30 BEGIN CTAB
M  V30 COUNTS 57 60 0 0 0
M  V30 BEGIN ATOM
M  V30 1 C 2.697783 -1.961950 5.547789 0
M  V30 2 N 3.412789 -3.227643 5.561960 0
M  V30 3 C 3.668626 -3.974040 4.383827 0
M  V30 4 N 3.270099 -3.563051 3.180367 0
M  V30 5 C 3.468659 -4.201940 2.021947 0
M  V30 6 N 3.051822 -3.774764 0.739149 0
M  V30 7 C 2.352265 -2.605745 0.383874 0
M  V30 8 C 1.927915 -1.627270 1.254286 0
M  V30 9 C 1.243873 -0.475317 0.938514 0
M  V30 10 C 0.940272 -0.258069 -0.388619 0
M  V30 11 C 0.229138 0.897603 -0.881873 0
M  V30 12 O 0.799062 1.475141 -1.866934 0
M  V30 13 N -1.012214 1.366547 -0.320987 0
M  V30 14 C -1.839223 0.888402 0.778743 0
M  V30 15 C -3.268097 0.689762 0.425392 0
M  V30 16 N -3.811093 1.536109 -0.581901 0
M  V30 17 C -4.796399 0.731544 -1.300750 0
M  V30 18 C -5.558330 1.612606 -2.226694 0
M  V30 19 C -5.107044 3.052998 -2.185272 0
M  V30 20 C -3.595410 3.159340 -2.320159 0
M  V30 21 C -2.899015 2.068141 -1.538554 0
M  V30 22 C -1.598856 2.542582 -0.936978 0
M  V30 23 C 1.333140 -1.194836 -1.318280 0
M  V30 24 C 2.014335 -2.327672 -0.947215 0
M  V30 25 O 2.381285 -3.229896 -1.928915 0
M  V30 26 C 2.144963 -3.142988 -3.290216 0
M  V30 27 N 4.135174 -5.358991 2.134105 0
M  V30 28 C 4.585641 -5.879936 3.266316 0
M  V30 29 C 4.337320 -5.157869 4.402574 0
M  V30 30 Cl 4.909451 -5.794279 5.940078 0
M  V30 31 H 1.849609 -2.021921 4.835264 0
M  V30 32 H 2.330703 -1.692211 6.552600 0
M  V30 33 H 3.430797 -1.177095 5.267606 0
M  V30 34 H 3.756274 -3.610744 6.469220 0
M  V30 35 H 3.287301 -4.405217 -0.082739 0
M  V30 36 H 2.130561 -1.730842 2.307547 0
M  V30 37 H 0.940353 0.251363 1.678013 0
M  V30 38 H -1.773743 1.692004 1.551437 0
M  V30 39 H -1.446346 -0.039897 1.241483 0
M  V30 40 H -3.448743 -0.400392 0.223537 0
M  V30 41 H -3.868104 0.878575 1.363150 0
M  V30 42 H -5.440495 0.163895 -0.596798 0
M  V30 43 H -4.203426 -0.002284 -1.889943 0
M  V30 44 H -6.639345 1.569785 -1.912669 0
M  V30 45 H -5.515213 1.213350 -3.253273 0
M  V30 46 H -5.542729 3.537965 -3.085250 0
M  V30 47 H -5.406140 3.550514 -1.249969 0
M  V30 48 H -3.318286 4.173355 -1.986725 0
M  V30 49 H -3.354058 3.099252 -3.401499 0
M  V30 50 H -2.656309 1.264315 -2.258523 0
M  V30 51 H -1.817939 3.263065 -0.131271 0
M  V30 52 H -0.972356 2.970885 -1.742247 0
M  V30 53 H 1.108240 -1.051775 -2.370817 0
M  V30 54 H 2.501486 -4.093999 -3.755662 0
M  V30 55 H 2.545083 -2.240201 -3.791703 0
M  V30 56 H 1.048624 -3.110485 -3.468002 0
M  V30 57 H 5.118287 -6.829530 3.252752 0
M  V30 END ATOM
M  V30 BEGIN BOND
M  V30 1 1 1 2
M  V30 2 1 2 3
M  V30 3 2 3 4
M  V30 4 1 4 5
M  V30 5 1 5 6
M  V30 6 1 6 7
M  V30 7 2 7 8
M  V30 8 1 8 9
M  V30 9 2 9 10
M  V30 10 1 10 11
M  V30 11 2 11 12
M  V30 12 1 11 13
M  V30 13 1 13 14
M  V30 14 1 14 15
M  V30 15 1 15 16
M  V30 16 1 16 17
M  V30 17 1 17 18
M  V30 18 1 18 19
M  V30 19 1 19 20
M  V30 20 1 20 21
M  V30 21 1 21 22
M  V30 22 1 10 23
M  V30 23 2 23 24
M  V30 24 1 24 25
M  V30 25 1 25 26
M  V30 26 2 5 27
M  V30 27 1 27 28
M  V30 28 2 28 29
M  V30 29 1 29 30
M  V30 30 1 29 3
M  V30 31 1 24 7
M  V30 32 1 22 13
M  V30 33 1 21 16
M  V30 34 1 1 31
M  V30 35 1 1 32
M  V30 36 1 1 33
M  V30 37 1 2 34
M  V30 38 1 6 35
M  V30 39 1 8 36
M  V30 40 1 9 37
M  V30 41 1 14 38
M  V30 42 1 14 39
M  V30 43 1 15 40
M  V30 44 1 15 41
M  V30 45 1 17 42
M  V30 46 1 17 43
M  V30 47 1 18 44
M  V30 48 1 18 45
M  V30 49 1 19 46
M  V30 50 1 19 47
M  V30 51 1 20 48
M  V30 52 1 20 49
M  V30 53 1 21 50
M  V30 54 1 22 51
M  V30 55 1 22 52
M  V30 56 1 23 53
M  V30 57 1 26 54
M  V30 58 1 26 55
M  V30 59 1 26 56
M  V30 60 1 28 57
M  V30 END BOND
M  V30 END CTAB
M  END
>  <Dataset>  (646) 
ChEMBL_Kinases

>  <Ligand_Instance>  (646) 
nan

>  <PDB_ID>  (646) 
nan

>  <Standardized_SMILES>  (646) 
CNc1nc(Nc2ccc(C(=O)N3CCN4CCCCC4C3)cc2OC)ncc1Cl

>  <Name>  (646) 
nan

>  <Pocket>  (646) 
nan

>  <ATP_Site>  (646) 
nan

>  <Peripheral>  (646) 
nan

>  <Num_H_Atoms_ProtBoundConf>  (646) 
nan

>  <Num_Resolved_Atoms>  (646) 
nan

>  <Num_Not_Resolved_Atoms>  (646) 
nan

$$$$
CHEMBL3641770
     RDKit          3D

  0  0  0  0  0  0  0  0  0  0999 V3000
M  V30 BEGIN CTAB
M  V30 COUNTS 42 44 0 0 0
M  V30 BEGIN ATOM
M  V30 1 C 0.946692 -6.288542 1.784708 0
M  V30 2 N 1.561654 -5.799328 3.028654 0
M  V30 3 C 1.219482 -4.489791 3.515612 0
M  V30 4 N 0.339340 -3.762878 2.831236 0
M  V30 5 C -0.079641 -2.539922 3.167247 0
M  V30 6 N -1.019422 -1.847258 2.364307 0
M  V30 7 C -0.772480 -0.853540 1.382395 0
M  V30 8 C 0.559097 -0.518853 1.250715 0
M  V30 9 C 0.990793 0.435144 0.365261 0
M  V30 10 C 0.091691 1.096529 -0.430397 0
M  V30 11 C 0.151006 2.148393 -1.435515 0
M  V30 12 O -0.570019 2.757510 -2.231943 0
M  V30 13 N 1.487002 2.683153 -1.569746 0
M  V30 14 C 1.809596 3.742528 -2.499919 0
M  V30 15 C 2.945042 4.712013 -2.126886 0
M  V30 16 C 3.216266 3.657725 -3.135861 0
M  V30 17 C -1.268428 0.764802 -0.308130 0
M  V30 18 C -1.703556 -0.206226 0.594306 0
M  V30 19 O -2.997430 -0.635918 0.825485 0
M  V30 20 C -4.143304 -0.165373 0.182849 0
M  V30 21 N 0.410338 -1.984869 4.271478 0
M  V30 22 C 1.315507 -2.636619 5.046241 0
M  V30 23 C 1.736816 -3.914528 4.672999 0
M  V30 24 Cl 2.906492 -4.876048 5.575107 0
M  V30 25 H -0.122757 -5.992100 1.835695 0
M  V30 26 H 1.428205 -5.728811 0.943942 0
M  V30 27 H 1.105530 -7.369416 1.667267 0
M  V30 28 H 2.234126 -6.420797 3.529495 0
M  V30 29 H -2.031380 -2.046424 2.461040 0
M  V30 30 H 1.428569 -0.917182 1.774912 0
M  V30 31 H 1.983336 0.796290 0.154056 0
M  V30 32 H 2.338785 2.366505 -1.015739 0
M  V30 33 H 1.039626 4.171137 -3.152031 0
M  V30 34 H 2.840848 5.776870 -2.362675 0
M  V30 35 H 3.305666 4.548987 -1.081088 0
M  V30 36 H 3.864345 2.807894 -2.802806 0
M  V30 37 H 3.297582 3.964148 -4.193751 0
M  V30 38 H -2.162803 1.142803 -0.821781 0
M  V30 39 H -5.064939 -0.550726 0.699922 0
M  V30 40 H -4.265506 -0.508431 -0.868814 0
M  V30 41 H -4.258938 0.937752 0.171139 0
M  V30 42 H 1.772061 -2.249151 5.972723 0
M  V30 END ATOM
M  V30 BEGIN BOND
M  V30 1 1 1 2
M  V30 2 1 2 3
M  V30 3 2 3 4
M  V30 4 1 4 5
M  V30 5 1 5 6
M  V30 6 1 6 7
M  V30 7 2 7 8
M  V30 8 1 8 9
M  V30 9 2 9 10
M  V30 10 1 10 11
M  V30 11 2 11 12
M  V30 12 1 11 13
M  V30 13 1 13 14
M  V30 14 1 14 15
M  V30 15 1 15 16
M  V30 16 1 10 17
M  V30 17 2 17 18
M  V30 18 1 18 19
M  V30 19 1 19 20
M  V30 20 2 5 21
M  V30 21 1 21 22
M  V30 22 2 22 23
M  V30 23 1 23 24
M  V30 24 1 23 3
M  V30 25 1 18 7
M  V30 26 1 16 14
M  V30 27 1 1 25
M  V30 28 1 1 26
M  V30 29 1 1 27
M  V30 30 1 2 28
M  V30 31 1 6 29
M  V30 32 1 8 30
M  V30 33 1 9 31
M  V30 34 1 13 32
M  V30 35 1 14 33
M  V30 36 1 15 34
M  V30 37 1 15 35
M  V30 38 1 16 36
M  V30 39 1 16 37
M  V30 40 1 17 38
M  V30 41 1 20 39
M  V30 42 1 20 40
M  V30 43 1 20 41
M  V30 44 1 22 42
M  V30 END BOND
M  V30 END CTAB
M  END
>  <Dataset>  (647) 
ChEMBL_Kinases

>  <Ligand_Instance>  (647) 
nan

>  <PDB_ID>  (647) 
nan

>  <Standardized_SMILES>  (647) 
CNc1nc(Nc2ccc(C(=O)NC3CC3)cc2OC)ncc1Cl

>  <Name>  (647) 
nan

>  <Pocket>  (647) 
nan

>  <ATP_Site>  (647) 
nan

>  <Peripheral>  (647) 
nan

>  <Num_H_Atoms_ProtBoundConf>  (647) 
nan

>  <Num_Resolved_Atoms>  (647) 
nan

>  <Num_Not_Resolved_Atoms>  (647) 
nan

$$$$
CHEMBL3641769
     RDKit          3D

  0  0  0  0  0  0  0  0  0  0999 V3000
M  V30 BEGIN CTAB
M  V30 COUNTS 41 42 0 0 0
M  V30 BEGIN ATOM
M  V30 1 C -3.751226 -2.889029 3.075001 0
M  V30 2 N -2.360106 -2.783721 2.912063 0
M  V30 3 C -1.034748 -2.697340 2.722564 0
M  V30 4 N 0.239479 -2.685870 2.324007 0
M  V30 5 C 1.480374 -2.508955 2.404491 0
M  V30 6 N 1.799801 -2.915669 1.009732 0
M  V30 7 C 2.021612 -1.562930 0.451764 0
M  V30 8 C 3.186033 -1.019704 1.012579 0
M  V30 9 C 3.415264 0.236579 0.366598 0
M  V30 10 C 2.684770 0.793150 -0.608003 0
M  V30 11 C 2.414796 1.924922 -1.555286 0
M  V30 12 O 2.556159 2.660982 -2.451621 0
M  V30 13 N 1.223858 2.689758 -1.344798 0
M  V30 14 C 0.094570 3.589885 -1.495348 0
M  V30 15 C 1.211065 2.626436 0.130585 0
M  V30 16 C 1.561792 0.016700 -1.003818 0
M  V30 17 C 1.108017 -1.194601 -0.525926 0
M  V30 18 O 0.121327 -2.164335 -0.630234 0
M  V30 19 C -0.949205 -1.820128 -1.569187 0
M  V30 20 N 1.768984 -2.051768 3.659094 0
M  V30 21 C 0.701511 -1.907714 4.480895 0
M  V30 22 C -0.398813 -2.205503 4.038090 0
M  V30 23 Cl -1.678260 -1.883931 5.337448 0
M  V30 24 H -4.163760 -2.150288 3.867551 0
M  V30 25 H -4.032482 -3.917925 3.375822 0
M  V30 26 H -4.315480 -2.663151 2.109304 0
M  V30 27 H -2.106990 -3.395498 1.982847 0
M  V30 28 H 1.788292 -3.922113 0.744072 0
M  V30 29 H 3.930987 -1.156912 1.729530 0
M  V30 30 H 4.174990 1.044790 0.475207 0
M  V30 31 H -0.740515 3.196685 -0.826342 0
M  V30 32 H 0.311871 4.616518 -1.253387 0
M  V30 33 H -0.336593 3.498119 -2.535730 0
M  V30 34 H 0.715082 3.535681 0.579074 0
M  V30 35 H 2.256050 2.693331 0.578978 0
M  V30 36 H 0.617209 1.751763 0.416242 0
M  V30 37 H 0.870627 0.175842 -1.849223 0
M  V30 38 H -0.644014 -0.995526 -2.156688 0
M  V30 39 H -1.742402 -1.385810 -0.849700 0
M  V30 40 H -1.401136 -2.737171 -2.031670 0
M  V30 41 H 0.954042 -1.531601 5.458506 0
M  V30 END ATOM
M  V30 BEGIN BOND
M  V30 1 1 1 2
M  V30 2 1 2 3
M  V30 3 2 3 4
M  V30 4 1 4 5
M  V30 5 1 5 6
M  V30 6 1 6 7
M  V30 7 2 7 8
M  V30 8 1 8 9
M  V30 9 2 9 10
M  V30 10 1 10 11
M  V30 11 2 11 12
M  V30 12 1 11 13
M  V30 13 1 13 14
M  V30 14 1 13 15
M  V30 15 1 10 16
M  V30 16 2 16 17
M  V30 17 1 17 18
M  V30 18 1 18 19
M  V30 19 2 5 20
M  V30 20 1 20 21
M  V30 21 2 21 22
M  V30 22 1 22 23
M  V30 23 1 22 3
M  V30 24 1 17 7
M  V30 25 1 1 24
M  V30 26 1 1 25
M  V30 27 1 1 26
M  V30 28 1 2 27
M  V30 29 1 6 28
M  V30 30 1 8 29
M  V30 31 1 9 30
M  V30 32 1 14 31
M  V30 33 1 14 32
M  V30 34 1 14 33
M  V30 35 1 15 34
M  V30 36 1 15 35
M  V30 37 1 15 36
M  V30 38 1 16 37
M  V30 39 1 19 38
M  V30 40 1 19 39
M  V30 41 1 19 40
M  V30 42 1 21 41
M  V30 END BOND
M  V30 END CTAB
M  END
>  <Dataset>  (648) 
ChEMBL_Kinases

>  <Ligand_Instance>  (648) 
nan

>  <PDB_ID>  (648) 
nan

>  <Standardized_SMILES>  (648) 
CNc1nc(Nc2ccc(C(=O)N(C)C)cc2OC)ncc1Cl

>  <Name>  (648) 
nan

>  <Pocket>  (648) 
nan

>  <ATP_Site>  (648) 
nan

>  <Peripheral>  (648) 
nan

>  <Num_H_Atoms_ProtBoundConf>  (648) 
nan

>  <Num_Resolved_Atoms>  (648) 
nan

>  <Num_Not_Resolved_Atoms>  (648) 
nan

$$$$
CHEMBL3641768
     RDKit          3D

  0  0  0  0  0  0  0  0  0  0999 V3000
M  V30 BEGIN CTAB
M  V30 COUNTS 49 51 0 0 0
M  V30 BEGIN ATOM
M  V30 1 C -4.139448 -6.777819 2.927163 0
M  V30 2 N -2.708594 -7.073245 2.800936 0
M  V30 3 C -1.760372 -6.106797 2.364087 0
M  V30 4 N -2.202966 -4.899765 2.058261 0
M  V30 5 C -1.441539 -3.876247 1.635514 0
M  V30 6 N -1.973541 -2.632227 1.306486 0
M  V30 7 C -1.394702 -1.380092 0.989757 0
M  V30 8 C -0.007177 -1.299249 1.122583 0
M  V30 9 C 0.627385 -0.110140 0.866183 0
M  V30 10 C -0.020897 1.034965 0.477884 0
M  V30 11 C 0.495801 2.356753 0.171204 0
M  V30 12 O 0.076083 3.487320 0.507468 0
M  V30 13 N 1.640651 2.641743 -0.615945 0
M  V30 14 C 1.979475 4.047193 -0.810438 0
M  V30 15 C 3.375251 4.372223 -0.417983 0
M  V30 16 C 4.165135 3.192486 0.092837 0
M  V30 17 O 5.513181 3.534004 0.064489 0
M  V30 18 C 3.985704 1.969009 -0.775025 0
M  V30 19 C 2.594929 1.797705 -1.299663 0
M  V30 20 C -1.417542 0.913930 0.355228 0
M  V30 21 C -2.095929 -0.258477 0.601921 0
M  V30 22 O -3.444772 -0.485361 0.512211 0
M  V30 23 C -4.345116 0.512976 0.138811 0
M  V30 24 N -0.142413 -4.150539 1.532925 0
M  V30 25 C 0.395768 -5.334228 1.817469 0
M  V30 26 C -0.392108 -6.367189 2.247068 0
M  V30 27 F 0.037439 -7.605438 2.566123 0
M  V30 28 H -4.309596 -6.301407 3.936982 0
M  V30 29 H -4.780971 -7.643722 2.769959 0
M  V30 30 H -4.343449 -5.974892 2.189824 0
M  V30 31 H -2.295359 -8.026639 3.029981 0
M  V30 32 H -3.029261 -2.609346 1.285101 0
M  V30 33 H 0.713867 -2.034656 1.407176 0
M  V30 34 H 1.711364 0.079967 0.937014 0
M  V30 35 H 1.292015 4.737164 -0.262557 0
M  V30 36 H 1.844668 4.299847 -1.895762 0
M  V30 37 H 3.913470 4.780478 -1.314904 0
M  V30 38 H 3.479473 5.184136 0.341806 0
M  V30 39 H 3.918362 2.979665 1.152740 0
M  V30 40 H 5.635242 4.455085 -0.266835 0
M  V30 41 H 4.197440 1.093461 -0.106473 0
M  V30 42 H 4.750813 1.927835 -1.581729 0
M  V30 43 H 2.297177 0.724662 -1.296042 0
M  V30 44 H 2.617604 2.074742 -2.394810 0
M  V30 45 H -1.988842 1.775554 0.054153 0
M  V30 46 H -5.114003 0.141645 -0.580571 0
M  V30 47 H -4.901842 0.804157 1.083487 0
M  V30 48 H -3.877902 1.447966 -0.204322 0
M  V30 49 H 1.462943 -5.526648 1.723826 0
M  V30 END ATOM
M  V30 BEGIN BOND
M  V30 1 1 1 2
M  V30 2 1 2 3
M  V30 3 2 3 4
M  V30 4 1 4 5
M  V30 5 1 5 6
M  V30 6 1 6 7
M  V30 7 2 7 8
M  V30 8 1 8 9
M  V30 9 2 9 10
M  V30 10 1 10 11
M  V30 11 2 11 12
M  V30 12 1 11 13
M  V30 13 1 13 14
M  V30 14 1 14 15
M  V30 15 1 15 16
M  V30 16 1 16 17
M  V30 17 1 16 18
M  V30 18 1 18 19
M  V30 19 1 10 20
M  V30 20 2 20 21
M  V30 21 1 21 22
M  V30 22 1 22 23
M  V30 23 2 5 24
M  V30 24 1 24 25
M  V30 25 2 25 26
M  V30 26 1 26 27
M  V30 27 1 26 3
M  V30 28 1 21 7
M  V30 29 1 19 13
M  V30 30 1 1 28
M  V30 31 1 1 29
M  V30 32 1 1 30
M  V30 33 1 2 31
M  V30 34 1 6 32
M  V30 35 1 8 33
M  V30 36 1 9 34
M  V30 37 1 14 35
M  V30 38 1 14 36
M  V30 39 1 15 37
M  V30 40 1 15 38
M  V30 41 1 16 39
M  V30 42 1 17 40
M  V30 43 1 18 41
M  V30 44 1 18 42
M  V30 45 1 19 43
M  V30 46 1 19 44
M  V30 47 1 20 45
M  V30 48 1 23 46
M  V30 49 1 23 47
M  V30 50 1 23 48
M  V30 51 1 25 49
M  V30 END BOND
M  V30 END CTAB
M  END
>  <Dataset>  (649) 
ChEMBL_Kinases

>  <Ligand_Instance>  (649) 
nan

>  <PDB_ID>  (649) 
nan

>  <Standardized_SMILES>  (649) 
CNc1nc(Nc2ccc(C(=O)N3CCC(O)CC3)cc2OC)ncc1F

>  <Name>  (649) 
nan

>  <Pocket>  (649) 
nan

>  <ATP_Site>  (649) 
nan

>  <Peripheral>  (649) 
nan

>  <Num_H_Atoms_ProtBoundConf>  (649) 
nan

>  <Num_Resolved_Atoms>  (649) 
nan

>  <Num_Not_Resolved_Atoms>  (649) 
nan

$$$$
CHEMBL3641467
     RDKit          3D

  0  0  0  0  0  0  0  0  0  0999 V3000
M  V30 BEGIN CTAB
M  V30 COUNTS 72 75 0 0 0
M  V30 BEGIN ATOM
M  V30 1 C 5.139175 -3.294567 -4.109182 0
M  V30 2 C 4.668752 -2.246854 -3.133190 0
M  V30 3 C 5.880024 -1.402603 -2.767551 0
M  V30 4 C 4.295749 -2.988802 -1.847724 0
M  V30 5 O 3.613072 -1.463070 -3.568088 0
M  V30 6 C 2.372028 -1.946071 -3.900662 0
M  V30 7 O 2.124149 -3.197793 -3.819136 0
M  V30 8 N 1.327107 -1.080125 -4.345019 0
M  V30 9 C 0.059865 -1.692027 -4.654395 0
M  V30 10 C -1.009054 -0.667557 -4.722438 0
M  V30 11 C -0.783862 0.580228 -3.942162 0
M  V30 12 C -1.325647 0.512597 -2.513545 0
M  V30 13 N -1.056973 1.731883 -1.808546 0
M  V30 14 S -1.635377 1.757682 -0.196621 0
M  V30 15 O -3.130193 1.680057 -0.144254 0
M  V30 16 O -1.208161 3.086943 0.413738 0
M  V30 17 C -0.928439 0.525818 0.803563 0
M  V30 18 C 0.320866 0.532115 1.399622 0
M  V30 19 C 0.769002 -0.504263 2.181224 0
M  V30 20 C -0.045977 -1.592187 2.385183 0
M  V30 21 C -1.293032 -1.652199 1.822312 0
M  V30 22 S -2.281747 -3.091478 2.142743 0
M  V30 23 O -1.388805 -4.272465 2.080333 0
M  V30 24 O -3.444372 -3.143931 1.207233 0
M  V30 25 N -2.821424 -2.896123 3.794426 0
M  V30 26 C -3.625114 -1.747746 4.098449 0
M  V30 27 C -4.711892 -1.213787 3.456954 0
M  V30 28 C -5.296574 -0.081251 3.957828 0
M  V30 29 C -4.874364 0.580510 5.076962 0
M  V30 30 C -3.764198 0.059596 5.752153 0
M  V30 31 C -3.252352 0.707012 6.902980 0
M  V30 32 C -2.230511 0.438404 7.753387 0
M  V30 33 C -1.977083 1.283267 8.790694 0
M  V30 34 C -2.759232 2.404486 8.964873 0
M  V30 35 S -3.981452 2.269687 7.533854 0
M  V30 36 C -3.187165 -1.078858 5.237441 0
M  V30 37 C -1.715531 -0.604673 1.045596 0
M  V30 38 C 0.549957 1.210967 -4.034702 0
M  V30 39 C 1.667716 0.330828 -4.452750 0
M  V30 40 H 5.960198 -2.890980 -4.768885 0
M  V30 41 H 5.623162 -4.099176 -3.518926 0
M  V30 42 H 4.347595 -3.768755 -4.700314 0
M  V30 43 H 6.825428 -1.983325 -2.890910 0
M  V30 44 H 5.873642 -1.113527 -1.696366 0
M  V30 45 H 5.882827 -0.461273 -3.363148 0
M  V30 46 H 5.247976 -3.335529 -1.384181 0
M  V30 47 H 3.661997 -3.850414 -2.119834 0
M  V30 48 H 3.767313 -2.277765 -1.193027 0
M  V30 49 H -0.216940 -2.413095 -3.827939 0
M  V30 50 H 0.105939 -2.256372 -5.622418 0
M  V30 51 H -1.986390 -1.092376 -4.378065 0
M  V30 52 H -1.178069 -0.450851 -5.824486 0
M  V30 53 H -1.503995 1.335294 -4.427165 0
M  V30 54 H -0.853226 -0.368873 -2.043756 0
M  V30 55 H -2.416878 0.329767 -2.517235 0
M  V30 56 H -1.459577 2.534912 -2.336525 0
M  V30 57 H 0.902041 1.413777 1.199575 0
M  V30 58 H 1.749202 -0.467462 2.627651 0
M  V30 59 H 0.319413 -2.406945 2.994281 0
M  V30 60 H -2.561101 -3.580787 4.515897 0
M  V30 61 H -4.989218 -1.793640 2.578499 0
M  V30 62 H -6.166753 0.288125 3.392886 0
M  V30 63 H -5.395608 1.476897 5.412000 0
M  V30 64 H -1.673892 -0.463093 7.547575 0
M  V30 65 H -1.160398 1.097007 9.500411 0
M  V30 66 H -2.663769 3.161870 9.750226 0
M  V30 67 H -2.324555 -1.426384 5.814695 0
M  V30 68 H -2.691736 -0.687921 0.623029 0
M  V30 69 H 0.789778 1.669611 -3.040771 0
M  V30 70 H 0.534493 2.085600 -4.749890 0
M  V30 71 H 2.626705 0.560324 -3.972190 0
M  V30 72 H 1.847738 0.483581 -5.551640 0
M  V30 END ATOM
M  V30 BEGIN BOND
M  V30 1 1 1 2
M  V30 2 1 2 3
M  V30 3 1 2 4
M  V30 4 1 2 5
M  V30 5 1 5 6
M  V30 6 2 6 7
M  V30 7 1 6 8
M  V30 8 1 8 9
M  V30 9 1 9 10
M  V30 10 1 10 11
M  V30 11 1 11 12
M  V30 12 1 12 13
M  V30 13 1 13 14
M  V30 14 2 14 15
M  V30 15 2 14 16
M  V30 16 1 14 17
M  V30 17 2 17 18
M  V30 18 1 18 19
M  V30 19 2 19 20
M  V30 20 1 20 21
M  V30 21 1 21 22
M  V30 22 2 22 23
M  V30 23 2 22 24
M  V30 24 1 22 25
M  V30 25 1 25 26
M  V30 26 2 26 27
M  V30 27 1 27 28
M  V30 28 2 28 29
M  V30 29 1 29 30
M  V30 30 1 30 31
M  V30 31 2 31 32
M  V30 32 1 32 33
M  V30 33 2 33 34
M  V30 34 1 34 35
M  V30 35 2 30 36
M  V30 36 2 21 37
M  V30 37 1 11 38
M  V30 38 1 38 39
M  V30 39 1 39 8
M  V30 40 1 37 17
M  V30 41 1 36 26
M  V30 42 1 35 31
M  V30 43 1 1 40
M  V30 44 1 1 41
M  V30 45 1 1 42
M  V30 46 1 3 43
M  V30 47 1 3 44
M  V30 48 1 3 45
M  V30 49 1 4 46
M  V30 50 1 4 47
M  V30 51 1 4 48
M  V30 52 1 9 49
M  V30 53 1 9 50
M  V30 54 1 10 51
M  V30 55 1 10 52
M  V30 56 1 11 53
M  V30 57 1 12 54
M  V30 58 1 12 55
M  V30 59 1 13 56
M  V30 60 1 18 57
M  V30 61 1 19 58
M  V30 62 1 20 59
M  V30 63 1 25 60
M  V30 64 1 27 61
M  V30 65 1 28 62
M  V30 66 1 29 63
M  V30 67 1 32 64
M  V30 68 1 33 65
M  V30 69 1 34 66
M  V30 70 1 36 67
M  V30 71 1 37 68
M  V30 72 1 38 69
M  V30 73 1 38 70
M  V30 74 1 39 71
M  V30 75 1 39 72
M  V30 END BOND
M  V30 END CTAB
M  END
>  <Dataset>  (650) 
ChEMBL_Kinases

>  <Ligand_Instance>  (650) 
nan

>  <PDB_ID>  (650) 
nan

>  <Standardized_SMILES>  (650) 
CC(C)(C)OC(=O)N1CCC(CNS(=O)(=O)c2cccc(S(=O)(=O)Nc3cccc(-c4cccs4)c3)c2)CC1

>  <Name>  (650) 
nan

>  <Pocket>  (650) 
nan

>  <ATP_Site>  (650) 
nan

>  <Peripheral>  (650) 
nan

>  <Num_H_Atoms_ProtBoundConf>  (650) 
nan

>  <Num_Resolved_Atoms>  (650) 
nan

>  <Num_Not_Resolved_Atoms>  (650) 
nan

$$$$
CHEMBL3640751
     RDKit          3D

  0  0  0  0  0  0  0  0  0  0999 V3000
M  V30 BEGIN CTAB
M  V30 COUNTS 58 63 0 0 0
M  V30 BEGIN ATOM
M  V30 1 N 2.226862 -3.197186 1.808175 0
M  V30 2 C 3.188944 -2.661587 2.648762 0
M  V30 3 N 4.003479 -3.631367 3.087912 0
M  V30 4 C 5.011190 -3.352079 3.916301 0
M  V30 5 C 5.135556 -2.039036 4.264611 0
M  V30 6 C 4.288575 -1.069337 3.800306 0
M  V30 7 C 3.235271 -1.333944 2.939896 0
M  V30 8 C 2.422057 -0.223946 2.526978 0
M  V30 9 N 2.628413 1.021170 2.926105 0
M  V30 10 C 1.755802 1.856887 2.410825 0
M  V30 11 C 1.701361 3.235456 2.632684 0
M  V30 12 C 0.702051 3.947259 1.994313 0
M  V30 13 C -0.148024 3.212469 1.194337 0
M  V30 14 O -1.166317 3.888838 0.533221 0
M  V30 15 C -2.062911 3.215376 -0.301377 0
M  V30 16 C -3.274855 2.622334 -0.019973 0
M  V30 17 C -3.967568 2.016045 -1.048319 0
M  V30 18 C -3.458606 2.003716 -2.329205 0
M  V30 19 C -2.245401 2.590473 -2.643202 0
M  V30 20 C -1.564814 3.193321 -1.600928 0
M  V30 21 N -0.035982 1.882482 1.026450 0
M  V30 22 C 0.906555 1.126334 1.612340 0
M  V30 23 N 1.377843 -0.123243 1.737260 0
M  V30 24 C 0.625166 -1.035174 0.980163 0
M  V30 25 C -0.508095 -1.704950 1.474278 0
M  V30 26 C -1.214262 -2.544456 0.647346 0
M  V30 27 C -0.813596 -2.721717 -0.641567 0
M  V30 28 C -1.521984 -3.598978 -1.578028 0
M  V30 29 N -0.624462 -4.433552 -2.367534 0
M  V30 30 C -2.740290 -4.292512 -1.068170 0
M  V30 31 C -3.555164 -3.077715 -1.452869 0
M  V30 32 C -2.454972 -2.773992 -2.467968 0
M  V30 33 C 0.311629 -2.064426 -1.153454 0
M  V30 34 C 1.060923 -1.200428 -0.346924 0
M  V30 35 H 1.699093 -3.655197 1.020681 0
M  V30 36 H 1.830807 -3.669037 0.963075 0
M  V30 37 H 5.720126 -4.036143 4.329968 0
M  V30 38 H 5.924327 -1.731237 4.929705 0
M  V30 39 H 4.495294 -0.052338 4.155065 0
M  V30 40 H 2.412670 3.718500 3.277865 0
M  V30 41 H 0.584244 4.999396 2.103913 0
M  V30 42 H -3.530641 2.719738 1.026108 0
M  V30 43 H -4.906790 1.575793 -0.743736 0
M  V30 44 H -4.043992 1.514005 -3.095125 0
M  V30 45 H -1.901914 2.547114 -3.667540 0
M  V30 46 H -0.615486 3.627664 -1.953211 0
M  V30 47 H -0.749539 -1.499979 2.515261 0
M  V30 48 H -2.075020 -3.041309 1.058122 0
M  V30 49 H 0.204019 -4.617696 -1.749138 0
M  V30 50 H -0.353267 -3.885364 -3.218005 0
M  V30 51 H -3.010952 -5.160462 -1.734650 0
M  V30 52 H -2.785040 -4.619003 -0.034706 0
M  V30 53 H -4.483837 -3.348061 -1.983414 0
M  V30 54 H -3.631342 -2.361108 -0.634264 0
M  V30 55 H -2.210391 -1.705287 -2.463410 0
M  V30 56 H -2.629779 -3.211605 -3.458775 0
M  V30 57 H 0.644727 -2.194407 -2.175879 0
M  V30 58 H 1.932919 -0.684364 -0.723391 0
M  V30 END ATOM
M  V30 BEGIN BOND
M  V30 1 1 1 2
M  V30 2 2 2 3
M  V30 3 1 3 4
M  V30 4 2 4 5
M  V30 5 1 5 6
M  V30 6 2 6 7
M  V30 7 1 7 8
M  V30 8 2 8 9
M  V30 9 1 9 10
M  V30 10 2 10 11
M  V30 11 1 11 12
M  V30 12 2 12 13
M  V30 13 1 13 14
M  V30 14 1 14 15
M  V30 15 2 15 16
M  V30 16 1 16 17
M  V30 17 2 17 18
M  V30 18 1 18 19
M  V30 19 2 19 20
M  V30 20 1 13 21
M  V30 21 2 21 22
M  V30 22 1 22 23
M  V30 23 1 23 24
M  V30 24 2 24 25
M  V30 25 1 25 26
M  V30 26 2 26 27
M  V30 27 1 27 28
M  V30 28 1 28 29
M  V30 29 1 28 30
M  V30 30 1 30 31
M  V30 31 1 31 32
M  V30 32 1 27 33
M  V30 33 2 33 34
M  V30 34 1 7 2
M  V30 35 1 23 8
M  V30 36 1 34 24
M  V30 37 1 22 10
M  V30 38 1 32 28
M  V30 39 1 20 15
M  V30 40 1 1 35
M  V30 41 1 1 36
M  V30 42 1 4 37
M  V30 43 1 5 38
M  V30 44 1 6 39
M  V30 45 1 11 40
M  V30 46 1 12 41
M  V30 47 1 16 42
M  V30 48 1 17 43
M  V30 49 1 18 44
M  V30 50 1 19 45
M  V30 51 1 20 46
M  V30 52 1 25 47
M  V30 53 1 26 48
M  V30 54 1 29 49
M  V30 55 1 29 50
M  V30 56 1 30 51
M  V30 57 1 30 52
M  V30 58 1 31 53
M  V30 59 1 31 54
M  V30 60 1 32 55
M  V30 61 1 32 56
M  V30 62 1 33 57
M  V30 63 1 34 58
M  V30 END BOND
M  V30 END CTAB
M  END
>  <Dataset>  (651) 
ChEMBL_Kinases

>  <Ligand_Instance>  (651) 
nan

>  <PDB_ID>  (651) 
nan

>  <Standardized_SMILES>  (651) 
Nc1ncccc1-c1nc2ccc(Oc3ccccc3)nc2n1-c1ccc(C2(N)CCC2)cc1

>  <Name>  (651) 
nan

>  <Pocket>  (651) 
nan

>  <ATP_Site>  (651) 
nan

>  <Peripheral>  (651) 
nan

>  <Num_H_Atoms_ProtBoundConf>  (651) 
nan

>  <Num_Resolved_Atoms>  (651) 
nan

>  <Num_Not_Resolved_Atoms>  (651) 
nan

$$$$
CHEMBL3640750
     RDKit          3D

  0  0  0  0  0  0  0  0  0  0999 V3000
M  V30 BEGIN CTAB
M  V30 COUNTS 58 63 0 0 0
M  V30 BEGIN ATOM
M  V30 1 N 2.243633 -3.321288 2.079912 0
M  V30 2 C 3.000078 -2.683103 3.071762 0
M  V30 3 N 3.690426 -3.568922 3.779524 0
M  V30 4 C 4.477943 -3.168711 4.779099 0
M  V30 5 C 4.503400 -1.820848 4.993139 0
M  V30 6 C 3.779148 -0.927737 4.245665 0
M  V30 7 C 2.954950 -1.333573 3.201416 0
M  V30 8 C 2.253868 -0.311527 2.494301 0
M  V30 9 N 2.338907 0.982104 2.773971 0
M  V30 10 C 1.600323 1.759873 1.982433 0
M  V30 11 C 1.505161 3.132889 2.051855 0
M  V30 12 C 0.661228 3.716287 1.102906 0
M  V30 13 C 0.015631 2.872820 0.202941 0
M  V30 14 S -1.065818 3.582877 -1.026848 0
M  V30 15 C -2.754839 3.710411 -0.453961 0
M  V30 16 C -3.202167 3.310437 0.787304 0
M  V30 17 C -4.559933 3.491620 1.053691 0
M  V30 18 C -5.426204 4.042417 0.130687 0
M  V30 19 C -4.940815 4.436687 -1.116790 0
M  V30 20 C -3.596055 4.261988 -1.392319 0
M  V30 21 N 0.188420 1.538312 0.233408 0
M  V30 22 C 0.979422 0.894297 1.109835 0
M  V30 23 N 1.415459 -0.322230 1.474066 0
M  V30 24 C 0.868638 -1.336151 0.670966 0
M  V30 25 C -0.338569 -1.983859 0.950793 0
M  V30 26 C -0.789034 -2.919974 0.059337 0
M  V30 27 C -0.093017 -3.225453 -1.075540 0
M  V30 28 C -0.492204 -4.211221 -2.087806 0
M  V30 29 N 0.657751 -5.038827 -2.453753 0
M  V30 30 C -1.758891 -4.961394 -1.893444 0
M  V30 31 C -2.451786 -4.089454 -2.914031 0
M  V30 32 C -1.109135 -3.521647 -3.295279 0
M  V30 33 C 1.108117 -2.585343 -1.359925 0
M  V30 34 C 1.613745 -1.623791 -0.487493 0
M  V30 35 H 2.016520 -3.908901 1.242385 0
M  V30 36 H 2.055012 -3.918011 1.236047 0
M  V30 37 H 5.078617 -3.780854 5.415875 0
M  V30 38 H 5.116893 -1.420478 5.784079 0
M  V30 39 H 3.889150 0.125227 4.521106 0
M  V30 40 H 2.034223 3.702608 2.773817 0
M  V30 41 H 0.518997 4.782811 1.073390 0
M  V30 42 H -2.470977 2.887768 1.458584 0
M  V30 43 H -4.844495 3.152293 2.054771 0
M  V30 44 H -6.466503 4.152086 0.405732 0
M  V30 45 H -5.650662 4.869398 -1.824161 0
M  V30 46 H -3.330332 4.602384 -2.388089 0
M  V30 47 H -0.849350 -1.702794 1.864635 0
M  V30 48 H -1.706703 -3.429595 0.247089 0
M  V30 49 H 1.265526 -5.121853 -1.588701 0
M  V30 50 H 1.215958 -4.588192 -3.216254 0
M  V30 51 H -1.654715 -6.000926 -2.316108 0
M  V30 52 H -2.205353 -5.035066 -0.905185 0
M  V30 53 H -2.907972 -4.635780 -3.752200 0
M  V30 54 H -3.142811 -3.369646 -2.399498 0
M  V30 55 H -1.076645 -2.410856 -3.262590 0
M  V30 56 H -0.673341 -3.850804 -4.246721 0
M  V30 57 H 1.709503 -2.791494 -2.256572 0
M  V30 58 H 2.546283 -1.125145 -0.705985 0
M  V30 END ATOM
M  V30 BEGIN BOND
M  V30 1 1 1 2
M  V30 2 2 2 3
M  V30 3 1 3 4
M  V30 4 2 4 5
M  V30 5 1 5 6
M  V30 6 2 6 7
M  V30 7 1 7 8
M  V30 8 2 8 9
M  V30 9 1 9 10
M  V30 10 2 10 11
M  V30 11 1 11 12
M  V30 12 2 12 13
M  V30 13 1 13 14
M  V30 14 1 14 15
M  V30 15 2 15 16
M  V30 16 1 16 17
M  V30 17 2 17 18
M  V30 18 1 18 19
M  V30 19 2 19 20
M  V30 20 1 13 21
M  V30 21 2 21 22
M  V30 22 1 22 23
M  V30 23 1 23 24
M  V30 24 2 24 25
M  V30 25 1 25 26
M  V30 26 2 26 27
M  V30 27 1 27 28
M  V30 28 1 28 29
M  V30 29 1 28 30
M  V30 30 1 30 31
M  V30 31 1 31 32
M  V30 32 1 27 33
M  V30 33 2 33 34
M  V30 34 1 7 2
M  V30 35 1 23 8
M  V30 36 1 34 24
M  V30 37 1 22 10
M  V30 38 1 32 28
M  V30 39 1 20 15
M  V30 40 1 1 35
M  V30 41 1 1 36
M  V30 42 1 4 37
M  V30 43 1 5 38
M  V30 44 1 6 39
M  V30 45 1 11 40
M  V30 46 1 12 41
M  V30 47 1 16 42
M  V30 48 1 17 43
M  V30 49 1 18 44
M  V30 50 1 19 45
M  V30 51 1 20 46
M  V30 52 1 25 47
M  V30 53 1 26 48
M  V30 54 1 29 49
M  V30 55 1 29 50
M  V30 56 1 30 51
M  V30 57 1 30 52
M  V30 58 1 31 53
M  V30 59 1 31 54
M  V30 60 1 32 55
M  V30 61 1 32 56
M  V30 62 1 33 57
M  V30 63 1 34 58
M  V30 END BOND
M  V30 END CTAB
M  END
>  <Dataset>  (652) 
ChEMBL_Kinases

>  <Ligand_Instance>  (652) 
nan

>  <PDB_ID>  (652) 
nan

>  <Standardized_SMILES>  (652) 
Nc1ncccc1-c1nc2ccc(Sc3ccccc3)nc2n1-c1ccc(C2(N)CCC2)cc1

>  <Name>  (652) 
nan

>  <Pocket>  (652) 
nan

>  <ATP_Site>  (652) 
nan

>  <Peripheral>  (652) 
nan

>  <Num_H_Atoms_ProtBoundConf>  (652) 
nan

>  <Num_Resolved_Atoms>  (652) 
nan

>  <Num_Not_Resolved_Atoms>  (652) 
nan

$$$$
CHEMBL3640749
     RDKit          3D

  0  0  0  0  0  0  0  0  0  0999 V3000
M  V30 BEGIN CTAB
M  V30 COUNTS 72 78 0 0 0
M  V30 BEGIN ATOM
M  V30 1 N 4.201898 -1.271486 5.305493 0
M  V30 2 C 3.617620 0.040635 5.361122 0
M  V30 3 N 3.930743 0.580432 6.551800 0
M  V30 4 C 3.428879 1.855954 6.780120 0
M  V30 5 C 2.660171 2.443706 5.769604 0
M  V30 6 C 2.417906 1.758409 4.581104 0
M  V30 7 C 2.906937 0.470955 4.311104 0
M  V30 8 C 2.717743 -0.257866 3.097525 0
M  V30 9 N 3.323661 -1.492862 2.993852 0
M  V30 10 C 3.010149 -1.992010 1.791367 0
M  V30 11 C 3.378296 -3.212112 1.195871 0
M  V30 12 C 2.860162 -3.384705 -0.090338 0
M  V30 13 C 2.052481 -2.475631 -0.767820 0
M  V30 14 N 1.763069 -3.043958 -2.023613 0
M  V30 15 C 0.456648 -3.497395 -2.380887 0
M  V30 16 C 0.472879 -4.691308 -3.090299 0
M  V30 17 C -0.786700 -5.177982 -3.496809 0
M  V30 18 C -1.961923 -4.475256 -3.191743 0
M  V30 19 N -3.252253 -4.916070 -3.573378 0
M  V30 20 C -4.361422 -3.977168 -3.588695 0
M  V30 21 C -5.238388 -4.416450 -4.764077 0
M  V30 22 O -4.498823 -4.976805 -5.792371 0
M  V30 23 C -3.911975 -6.187908 -5.465890 0
M  V30 24 C -3.616666 -6.259660 -3.962787 0
M  V30 25 C -1.789343 -3.317390 -2.488748 0
M  V30 26 C -0.636448 -2.754836 -2.042345 0
M  V30 27 N 1.723119 -1.300697 -0.140024 0
M  V30 28 C 2.225007 -1.122741 1.118623 0
M  V30 29 N 2.066385 -0.072870 1.954145 0
M  V30 30 C 1.275510 1.068215 1.667066 0
M  V30 31 C 1.513280 2.235308 0.993905 0
M  V30 32 C 0.620478 3.258414 0.788049 0
M  V30 33 C -0.672596 3.107073 1.318804 0
M  V30 34 C -1.761460 4.087483 1.172596 0
M  V30 35 N -3.064095 3.534746 0.882685 0
M  V30 36 C -1.481102 5.235762 0.243042 0
M  V30 37 C -1.261987 6.186162 1.394704 0
M  V30 38 C -1.761958 5.098010 2.310010 0
M  V30 39 C -0.989128 1.944525 2.017269 0
M  V30 40 C -0.018794 0.950902 2.176109 0
M  V30 41 H 4.798186 -2.071108 5.522221 0
M  V30 42 H 4.869527 -1.983594 5.640444 0
M  V30 43 H 3.586226 2.422984 7.672007 0
M  V30 44 H 2.263468 3.432063 5.931693 0
M  V30 45 H 1.821920 2.280912 3.853600 0
M  V30 46 H 3.997302 -3.865608 1.767082 0
M  V30 47 H 3.223608 -4.366363 -0.442075 0
M  V30 48 H 2.559709 -3.126325 -2.693634 0
M  V30 49 H 1.376839 -5.242973 -3.317980 0
M  V30 50 H -0.858125 -6.109549 -4.059564 0
M  V30 51 H -4.026376 -2.937575 -3.769534 0
M  V30 52 H -4.940915 -4.027601 -2.646169 0
M  V30 53 H -5.750547 -3.535180 -5.206972 0
M  V30 54 H -6.002965 -5.114722 -4.419676 0
M  V30 55 H -2.960986 -6.272289 -6.026495 0
M  V30 56 H -4.550252 -7.072063 -5.755518 0
M  V30 57 H -4.572675 -6.508072 -3.449485 0
M  V30 58 H -2.822251 -6.984605 -3.721903 0
M  V30 59 H -2.710511 -2.784081 -2.255415 0
M  V30 60 H -0.581202 -1.831107 -1.495063 0
M  V30 61 H 2.553800 2.256427 0.621927 0
M  V30 62 H 0.941206 4.126369 0.244062 0
M  V30 63 H -3.129425 2.514137 0.872313 0
M  V30 64 H -3.521116 4.038411 0.115884 0
M  V30 65 H -2.343648 5.515555 -0.418642 0
M  V30 66 H -0.603579 5.110143 -0.416728 0
M  V30 67 H -0.232997 6.519384 1.526730 0
M  V30 68 H -1.977654 7.045636 1.295201 0
M  V30 69 H -2.744500 5.302733 2.753598 0
M  V30 70 H -0.998244 4.872109 3.078649 0
M  V30 71 H -1.979783 1.814207 2.429765 0
M  V30 72 H -0.359730 0.082086 2.724164 0
M  V30 END ATOM
M  V30 BEGIN BOND
M  V30 1 1 1 2
M  V30 2 2 2 3
M  V30 3 1 3 4
M  V30 4 2 4 5
M  V30 5 1 5 6
M  V30 6 2 6 7
M  V30 7 1 7 8
M  V30 8 2 8 9
M  V30 9 1 9 10
M  V30 10 2 10 11
M  V30 11 1 11 12
M  V30 12 2 12 13
M  V30 13 1 13 14
M  V30 14 1 14 15
M  V30 15 2 15 16
M  V30 16 1 16 17
M  V30 17 2 17 18
M  V30 18 1 18 19
M  V30 19 1 19 20
M  V30 20 1 20 21
M  V30 21 1 21 22
M  V30 22 1 22 23
M  V30 23 1 23 24
M  V30 24 1 18 25
M  V30 25 2 25 26
M  V30 26 1 13 27
M  V30 27 2 27 28
M  V30 28 1 28 29
M  V30 29 1 29 30
M  V30 30 2 30 31
M  V30 31 1 31 32
M  V30 32 2 32 33
M  V30 33 1 33 34
M  V30 34 1 34 35
M  V30 35 1 34 36
M  V30 36 1 36 37
M  V30 37 1 37 38
M  V30 38 1 33 39
M  V30 39 2 39 40
M  V30 40 1 7 2
M  V30 41 1 29 8
M  V30 42 1 40 30
M  V30 43 1 28 10
M  V30 44 1 38 34
M  V30 45 1 26 15
M  V30 46 1 24 19
M  V30 47 1 1 41
M  V30 48 1 1 42
M  V30 49 1 4 43
M  V30 50 1 5 44
M  V30 51 1 6 45
M  V30 52 1 11 46
M  V30 53 1 12 47
M  V30 54 1 14 48
M  V30 55 1 16 49
M  V30 56 1 17 50
M  V30 57 1 20 51
M  V30 58 1 20 52
M  V30 59 1 21 53
M  V30 60 1 21 54
M  V30 61 1 23 55
M  V30 62 1 23 56
M  V30 63 1 24 57
M  V30 64 1 24 58
M  V30 65 1 25 59
M  V30 66 1 26 60
M  V30 67 1 31 61
M  V30 68 1 32 62
M  V30 69 1 35 63
M  V30 70 1 35 64
M  V30 71 1 36 65
M  V30 72 1 36 66
M  V30 73 1 37 67
M  V30 74 1 37 68
M  V30 75 1 38 69
M  V30 76 1 38 70
M  V30 77 1 39 71
M  V30 78 1 40 72
M  V30 END BOND
M  V30 END CTAB
M  END
>  <Dataset>  (653) 
ChEMBL_Kinases

>  <Ligand_Instance>  (653) 
nan

>  <PDB_ID>  (653) 
nan

>  <Standardized_SMILES>  (653) 
Nc1ncccc1-c1nc2ccc(Nc3ccc(N4CCOCC4)cc3)nc2n1-c1ccc(C2(N)CCC2)cc1

>  <Name>  (653) 
nan

>  <Pocket>  (653) 
nan

>  <ATP_Site>  (653) 
nan

>  <Peripheral>  (653) 
nan

>  <Num_H_Atoms_ProtBoundConf>  (653) 
nan

>  <Num_Resolved_Atoms>  (653) 
nan

>  <Num_Not_Resolved_Atoms>  (653) 
nan

$$$$
CHEMBL3641813
     RDKit          3D

  0  0  0  0  0  0  0  0  0  0999 V3000
M  V30 BEGIN CTAB
M  V30 COUNTS 56 59 0 0 0
M  V30 BEGIN ATOM
M  V30 1 C -0.369850 3.532392 -0.163060 0
M  V30 2 O -0.910167 2.364544 0.376489 0
M  V30 3 C -0.177347 1.456657 1.154759 0
M  V30 4 C 1.154322 1.637708 1.460162 0
M  V30 5 C 1.857879 0.736291 2.226718 0
M  V30 6 C 3.275256 1.095681 2.447928 0
M  V30 7 O 4.000806 1.441834 3.430041 0
M  V30 8 N 4.045909 1.043522 1.245282 0
M  V30 9 C 5.470730 1.357477 1.204423 0
M  V30 10 C 5.836144 2.271858 0.082161 0
M  V30 11 O 5.270553 1.924512 -1.123976 0
M  V30 12 C 3.863988 1.885559 -0.977846 0
M  V30 13 C 3.590080 0.681943 -0.105669 0
M  V30 14 C 1.253507 -0.400491 2.728054 0
M  V30 15 C -0.092951 -0.613673 2.437405 0
M  V30 16 C -0.738888 0.322742 1.667495 0
M  V30 17 N -2.104442 0.093597 1.358509 0
M  V30 18 C -3.158418 -0.822009 1.605083 0
M  V30 19 N -4.112948 -0.678957 2.569338 0
M  V30 20 C -5.056259 -1.629932 2.684323 0
M  V30 21 C -5.069491 -2.729236 1.852702 0
M  V30 22 Cl -6.284014 -4.009280 1.955188 0
M  V30 23 C -4.093453 -2.881100 0.862159 0
M  V30 24 N -4.064230 -3.991974 -0.058581 0
M  V30 25 C -3.097485 -4.275183 -1.069425 0
M  V30 26 C -3.528810 -5.422707 -1.972418 0
M  V30 27 C -1.720915 -4.518193 -0.452917 0
M  V30 28 C -1.126239 -3.457142 -1.330416 0
M  V30 29 C -2.515073 -3.149692 -1.850755 0
M  V30 30 N -3.177806 -1.887540 0.805187 0
M  V30 31 H -1.022060 3.842110 -1.010318 0
M  V30 32 H 0.643300 3.299029 -0.562909 0
M  V30 33 H -0.351078 4.306188 0.645622 0
M  V30 34 H 1.628873 2.546367 1.056686 0
M  V30 35 H 5.808638 1.853527 2.161764 0
M  V30 36 H 6.017596 0.400160 1.175966 0
M  V30 37 H 5.652457 3.328240 0.297085 0
M  V30 38 H 6.943194 2.184069 -0.056578 0
M  V30 39 H 3.589827 2.802815 -0.402411 0
M  V30 40 H 3.353741 1.817959 -1.952769 0
M  V30 41 H 2.541024 0.340761 -0.120478 0
M  V30 42 H 4.253119 -0.159720 -0.457768 0
M  V30 43 H 1.862242 -1.046372 3.309577 0
M  V30 44 H -0.568687 -1.509057 2.829869 0
M  V30 45 H -2.672544 0.730905 0.745762 0
M  V30 46 H -5.832733 -1.573434 3.423095 0
M  V30 47 H -4.883958 -4.658050 0.071963 0
M  V30 48 H -4.383233 -5.967148 -1.546130 0
M  V30 49 H -2.664764 -6.046874 -2.222891 0
M  V30 50 H -3.873231 -4.916583 -2.919113 0
M  V30 51 H -1.631833 -4.276475 0.616287 0
M  V30 52 H -1.365783 -5.554661 -0.643204 0
M  V30 53 H -0.685086 -2.604229 -0.751149 0
M  V30 54 H -0.478012 -3.909909 -2.088779 0
M  V30 55 H -2.931284 -2.164724 -1.550029 0
M  V30 56 H -2.546607 -3.249965 -2.974647 0
M  V30 END ATOM
M  V30 BEGIN BOND
M  V30 1 1 1 2
M  V30 2 1 2 3
M  V30 3 2 3 4
M  V30 4 1 4 5
M  V30 5 1 5 6
M  V30 6 2 6 7
M  V30 7 1 6 8
M  V30 8 1 8 9
M  V30 9 1 9 10
M  V30 10 1 10 11
M  V30 11 1 11 12
M  V30 12 1 12 13
M  V30 13 2 5 14
M  V30 14 1 14 15
M  V30 15 2 15 16
M  V30 16 1 16 17
M  V30 17 1 17 18
M  V30 18 2 18 19
M  V30 19 1 19 20
M  V30 20 2 20 21
M  V30 21 1 21 22
M  V30 22 1 21 23
M  V30 23 1 23 24
M  V30 24 1 24 25
M  V30 25 1 25 26
M  V30 26 1 25 27
M  V30 27 1 27 28
M  V30 28 1 28 29
M  V30 29 2 23 30
M  V30 30 1 16 3
M  V30 31 1 30 18
M  V30 32 1 13 8
M  V30 33 1 29 25
M  V30 34 1 1 31
M  V30 35 1 1 32
M  V30 36 1 1 33
M  V30 37 1 4 34
M  V30 38 1 9 35
M  V30 39 1 9 36
M  V30 40 1 10 37
M  V30 41 1 10 38
M  V30 42 1 12 39
M  V30 43 1 12 40
M  V30 44 1 13 41
M  V30 45 1 13 42
M  V30 46 1 14 43
M  V30 47 1 15 44
M  V30 48 1 17 45
M  V30 49 1 20 46
M  V30 50 1 24 47
M  V30 51 1 26 48
M  V30 52 1 26 49
M  V30 53 1 26 50
M  V30 54 1 27 51
M  V30 55 1 27 52
M  V30 56 1 28 53
M  V30 57 1 28 54
M  V30 58 1 29 55
M  V30 59 1 29 56
M  V30 END BOND
M  V30 END CTAB
M  END
>  <Dataset>  (654) 
ChEMBL_Kinases

>  <Ligand_Instance>  (654) 
nan

>  <PDB_ID>  (654) 
nan

>  <Standardized_SMILES>  (654) 
COc1cc(C(=O)N2CCOCC2)ccc1Nc1ncc(Cl)c(NC2(C)CCC2)n1

>  <Name>  (654) 
nan

>  <Pocket>  (654) 
nan

>  <ATP_Site>  (654) 
nan

>  <Peripheral>  (654) 
nan

>  <Num_H_Atoms_ProtBoundConf>  (654) 
nan

>  <Num_Resolved_Atoms>  (654) 
nan

>  <Num_Not_Resolved_Atoms>  (654) 
nan

$$$$
CHEMBL3640732
     RDKit          3D

  0  0  0  0  0  0  0  0  0  0999 V3000
M  V30 BEGIN CTAB
M  V30 COUNTS 68 74 0 0 0
M  V30 BEGIN ATOM
M  V30 1 N 4.292216 0.805400 2.644234 0
M  V30 2 C 5.128723 0.461979 1.581668 0
M  V30 3 N 6.333382 0.965997 1.840688 0
M  V30 4 C 7.377329 0.700056 1.025513 0
M  V30 5 C 7.068089 -0.108035 -0.044326 0
M  V30 6 C 5.817810 -0.613038 -0.287957 0
M  V30 7 C 4.744963 -0.329061 0.560861 0
M  V30 8 C 3.448318 -0.801090 0.192145 0
M  V30 9 N 3.268547 -1.635081 -0.843562 0
M  V30 10 C 2.003841 -1.941158 -1.076390 0
M  V30 11 C 1.519444 -2.773468 -2.056441 0
M  V30 12 C 0.127491 -2.936482 -2.074236 0
M  V30 13 C -0.593977 -2.251178 -1.117975 0
M  V30 14 C -2.062848 -2.416674 -1.096895 0
M  V30 15 C -2.755741 -1.716502 -0.102946 0
M  V30 16 C -4.118369 -1.807885 0.016145 0
M  V30 17 C -4.762574 -2.633832 -0.906467 0
M  V30 18 C -4.130137 -3.340198 -1.897876 0
M  V30 19 N -4.745248 -4.198551 -2.833860 0
M  V30 20 C -6.080446 -4.610045 -2.952990 0
M  V30 21 O -6.912200 -4.169616 -2.099330 0
M  V30 22 C -6.656246 -5.509946 -3.965457 0
M  V30 23 C -6.129663 -5.230432 -5.401466 0
M  V30 24 C -5.729568 -6.475527 -4.728761 0
M  V30 25 C -2.764737 -3.196535 -1.951813 0
M  V30 26 N -0.041719 -1.469721 -0.211969 0
M  V30 27 C 1.277394 -1.263032 -0.128934 0
M  V30 28 N 2.203673 -0.614187 0.577767 0
M  V30 29 C 1.667612 0.218071 1.577794 0
M  V30 30 C 1.647494 1.562993 1.156977 0
M  V30 31 C 1.123442 2.591800 1.943755 0
M  V30 32 C 0.597810 2.306960 3.187423 0
M  V30 33 C 0.022663 3.267571 4.129491 0
M  V30 34 N -1.307115 2.893698 4.584340 0
M  V30 35 C 0.067543 4.715760 3.774752 0
M  V30 36 C 1.299496 4.875499 4.649803 0
M  V30 37 C 0.965454 3.539825 5.281769 0
M  V30 38 C 0.613682 0.972036 3.614094 0
M  V30 39 C 1.133807 -0.029751 2.826880 0
M  V30 40 H 3.661714 1.065765 3.444685 0
M  V30 41 H 4.053712 -0.063414 3.195022 0
M  V30 42 H 8.389718 1.033075 1.105003 0
M  V30 43 H 7.840038 -0.366744 -0.737861 0
M  V30 44 H 5.708036 -1.239077 -1.171521 0
M  V30 45 H 2.189856 -3.259058 -2.752680 0
M  V30 46 H -0.268997 -3.579968 -2.831110 0
M  V30 47 H -2.253004 -1.070613 0.621822 0
M  V30 48 H -4.705727 -1.273805 0.779642 0
M  V30 49 H -5.829396 -2.689517 -0.798024 0
M  V30 50 H -4.190999 -4.643845 -3.598846 0
M  V30 51 H -7.732104 -5.770419 -3.905967 0
M  V30 52 H -6.889340 -5.318337 -6.208217 0
M  V30 53 H -5.363381 -4.434529 -5.514577 0
M  V30 54 H -6.137683 -7.474221 -4.979618 0
M  V30 55 H -4.673767 -6.518292 -4.338636 0
M  V30 56 H -2.239535 -3.740591 -2.718806 0
M  V30 57 H 2.027757 1.922029 0.207094 0
M  V30 58 H 1.116310 3.612812 1.613153 0
M  V30 59 H -1.300583 2.235439 5.371540 0
M  V30 60 H -1.907069 2.577542 3.794994 0
M  V30 61 H -0.773308 5.323528 4.221611 0
M  V30 62 H 0.183290 4.988955 2.727444 0
M  V30 63 H 2.258876 4.871783 4.075923 0
M  V30 64 H 1.286117 5.749406 5.324565 0
M  V30 65 H 0.506813 3.619186 6.266910 0
M  V30 66 H 1.851633 2.866067 5.319839 0
M  V30 67 H 0.217946 0.672429 4.575717 0
M  V30 68 H 1.196217 -1.083073 3.059219 0
M  V30 END ATOM
M  V30 BEGIN BOND
M  V30 1 1 1 2
M  V30 2 2 2 3
M  V30 3 1 3 4
M  V30 4 2 4 5
M  V30 5 1 5 6
M  V30 6 2 6 7
M  V30 7 1 7 8
M  V30 8 2 8 9
M  V30 9 1 9 10
M  V30 10 2 10 11
M  V30 11 1 11 12
M  V30 12 2 12 13
M  V30 13 1 13 14
M  V30 14 2 14 15
M  V30 15 1 15 16
M  V30 16 2 16 17
M  V30 17 1 17 18
M  V30 18 1 18 19
M  V30 19 1 19 20
M  V30 20 2 20 21
M  V30 21 1 20 22
M  V30 22 1 22 23
M  V30 23 1 23 24
M  V30 24 2 18 25
M  V30 25 1 13 26
M  V30 26 2 26 27
M  V30 27 1 27 28
M  V30 28 1 28 29
M  V30 29 2 29 30
M  V30 30 1 30 31
M  V30 31 2 31 32
M  V30 32 1 32 33
M  V30 33 1 33 34
M  V30 34 1 33 35
M  V30 35 1 35 36
M  V30 36 1 36 37
M  V30 37 1 32 38
M  V30 38 2 38 39
M  V30 39 1 7 2
M  V30 40 1 28 8
M  V30 41 1 39 29
M  V30 42 1 27 10
M  V30 43 1 37 33
M  V30 44 1 25 14
M  V30 45 1 24 22
M  V30 46 1 1 40
M  V30 47 1 1 41
M  V30 48 1 4 42
M  V30 49 1 5 43
M  V30 50 1 6 44
M  V30 51 1 11 45
M  V30 52 1 12 46
M  V30 53 1 15 47
M  V30 54 1 16 48
M  V30 55 1 17 49
M  V30 56 1 19 50
M  V30 57 1 22 51
M  V30 58 1 23 52
M  V30 59 1 23 53
M  V30 60 1 24 54
M  V30 61 1 24 55
M  V30 62 1 25 56
M  V30 63 1 30 57
M  V30 64 1 31 58
M  V30 65 1 34 59
M  V30 66 1 34 60
M  V30 67 1 35 61
M  V30 68 1 35 62
M  V30 69 1 36 63
M  V30 70 1 36 64
M  V30 71 1 37 65
M  V30 72 1 37 66
M  V30 73 1 38 67
M  V30 74 1 39 68
M  V30 END BOND
M  V30 END CTAB
M  END
>  <Dataset>  (655) 
ChEMBL_Kinases

>  <Ligand_Instance>  (655) 
nan

>  <PDB_ID>  (655) 
nan

>  <Standardized_SMILES>  (655) 
Nc1ncccc1-c1nc2ccc(-c3cccc(NC(=O)C4CC4)c3)nc2n1-c1ccc(C2(N)CCC2)cc1

>  <Name>  (655) 
nan

>  <Pocket>  (655) 
nan

>  <ATP_Site>  (655) 
nan

>  <Peripheral>  (655) 
nan

>  <Num_H_Atoms_ProtBoundConf>  (655) 
nan

>  <Num_Resolved_Atoms>  (655) 
nan

>  <Num_Not_Resolved_Atoms>  (655) 
nan

$$$$
CHEMBL3640733
     RDKit          3D

  0  0  0  0  0  0  0  0  0  0999 V3000
M  V30 BEGIN CTAB
M  V30 COUNTS 73 78 0 0 0
M  V30 BEGIN ATOM
M  V30 1 C 6.827709 -0.567151 5.619527 0
M  V30 2 C 6.588193 -1.795337 4.772650 0
M  V30 3 C 6.479933 -3.017979 5.655725 0
M  V30 4 C 7.780672 -2.006606 3.864358 0
M  V30 5 C 5.323566 -1.701322 3.985739 0
M  V30 6 O 4.401953 -2.539871 4.133988 0
M  V30 7 N 5.097166 -0.684042 3.048597 0
M  V30 8 C 3.993155 -0.405519 2.204265 0
M  V30 9 C 4.044698 0.686747 1.365321 0
M  V30 10 C 3.012490 1.016569 0.518693 0
M  V30 11 C 1.861876 0.257078 0.470582 0
M  V30 12 C 1.781989 -0.842956 1.299612 0
M  V30 13 C 0.561508 -1.635874 1.236977 0
M  V30 14 C 0.298354 -2.763037 1.984673 0
M  V30 15 C -0.872871 -3.486328 1.894706 0
M  V30 16 C -1.826198 -3.051025 1.006603 0
M  V30 17 N -3.033935 -3.477107 0.659153 0
M  V30 18 C -3.577523 -2.685641 -0.280009 0
M  V30 19 C -4.896346 -2.943050 -0.825307 0
M  V30 20 C -5.555495 -2.212864 -1.782891 0
M  V30 21 C -6.801782 -2.511285 -2.255109 0
M  V30 22 C -7.480453 -3.608781 -1.767053 0
M  V30 23 N -6.852838 -4.339134 -0.827368 0
M  V30 24 C -5.614863 -4.028517 -0.369578 0
M  V30 25 N -5.108236 -4.913369 0.624624 0
M  V30 26 N -2.662505 -1.746323 -0.507573 0
M  V30 27 C -2.765071 -0.678105 -1.416276 0
M  V30 28 C -3.312784 0.532651 -0.972832 0
M  V30 29 C -3.424656 1.610229 -1.822801 0
M  V30 30 C -2.995391 1.529038 -3.153527 0
M  V30 31 C -3.189012 2.767520 -3.914542 0
M  V30 32 N -4.483478 3.353673 -3.619591 0
M  V30 33 C -2.765962 2.813192 -5.337475 0
M  V30 34 C -1.826169 3.966040 -5.049178 0
M  V30 35 C -2.104320 3.769586 -3.572644 0
M  V30 36 C -2.462599 0.340657 -3.573295 0
M  V30 37 C -2.337342 -0.754276 -2.747709 0
M  V30 38 C -1.570129 -1.924060 0.255145 0
M  V30 39 N -0.407987 -1.256893 0.384358 0
M  V30 40 C 2.845486 -1.121832 2.123605 0
M  V30 41 H 7.483499 -0.870555 6.461621 0
M  V30 42 H 5.928081 -0.119911 6.039791 0
M  V30 43 H 7.417364 0.201523 5.052968 0
M  V30 44 H 6.284470 -2.742532 6.720507 0
M  V30 45 H 5.629347 -3.665070 5.356609 0
M  V30 46 H 7.430964 -3.604168 5.673202 0
M  V30 47 H 7.452644 -2.654379 3.007117 0
M  V30 48 H 8.155591 -1.087199 3.396319 0
M  V30 49 H 8.535887 -2.587512 4.410835 0
M  V30 50 H 5.925534 -0.015833 2.984176 0
M  V30 51 H 4.932210 1.336063 1.351612 0
M  V30 52 H 3.118917 1.887014 -0.113177 0
M  V30 53 H 1.102739 0.592721 -0.226124 0
M  V30 54 H 1.029122 -3.105359 2.672284 0
M  V30 55 H -1.039211 -4.365830 2.500215 0
M  V30 56 H -5.081618 -1.358158 -2.194367 0
M  V30 57 H -7.274675 -1.899114 -3.012661 0
M  V30 58 H -8.468193 -3.907403 -2.091543 0
M  V30 59 H -5.686416 -5.294246 1.414254 0
M  V30 60 H -5.624299 -5.329407 1.434765 0
M  V30 61 H -3.642201 0.588926 0.054600 0
M  V30 62 H -3.865124 2.505716 -1.375644 0
M  V30 63 H -5.213450 2.623745 -3.477973 0
M  V30 64 H -4.393516 3.918815 -2.754236 0
M  V30 65 H -3.603938 3.184634 -5.988297 0
M  V30 66 H -2.312625 1.940696 -5.800936 0
M  V30 67 H -2.149908 4.946848 -5.417308 0
M  V30 68 H -0.792768 3.745158 -5.356647 0
M  V30 69 H -1.211556 3.353721 -3.076771 0
M  V30 70 H -2.444596 4.683688 -3.036689 0
M  V30 71 H -2.148133 0.313859 -4.585659 0
M  V30 72 H -1.912372 -1.680344 -3.107268 0
M  V30 73 H 2.708158 -1.986427 2.733410 0
M  V30 END ATOM
M  V30 BEGIN BOND
M  V30 1 1 1 2
M  V30 2 1 2 3
M  V30 3 1 2 4
M  V30 4 1 2 5
M  V30 5 2 5 6
M  V30 6 1 5 7
M  V30 7 1 7 8
M  V30 8 2 8 9
M  V30 9 1 9 10
M  V30 10 2 10 11
M  V30 11 1 11 12
M  V30 12 1 12 13
M  V30 13 2 13 14
M  V30 14 1 14 15
M  V30 15 2 15 16
M  V30 16 1 16 17
M  V30 17 2 17 18
M  V30 18 1 18 19
M  V30 19 2 19 20
M  V30 20 1 20 21
M  V30 21 2 21 22
M  V30 22 1 22 23
M  V30 23 2 23 24
M  V30 24 1 24 25
M  V30 25 1 18 26
M  V30 26 1 26 27
M  V30 27 2 27 28
M  V30 28 1 28 29
M  V30 29 2 29 30
M  V30 30 1 30 31
M  V30 31 1 31 32
M  V30 32 1 31 33
M  V30 33 1 33 34
M  V30 34 1 34 35
M  V30 35 1 30 36
M  V30 36 2 36 37
M  V30 37 1 26 38
M  V30 38 2 38 39
M  V30 39 2 12 40
M  V30 40 1 40 8
M  V30 41 1 39 13
M  V30 42 1 38 16
M  V30 43 1 24 19
M  V30 44 1 37 27
M  V30 45 1 35 31
M  V30 46 1 1 41
M  V30 47 1 1 42
M  V30 48 1 1 43
M  V30 49 1 3 44
M  V30 50 1 3 45
M  V30 51 1 3 46
M  V30 52 1 4 47
M  V30 53 1 4 48
M  V30 54 1 4 49
M  V30 55 1 7 50
M  V30 56 1 9 51
M  V30 57 1 10 52
M  V30 58 1 11 53
M  V30 59 1 14 54
M  V30 60 1 15 55
M  V30 61 1 20 56
M  V30 62 1 21 57
M  V30 63 1 22 58
M  V30 64 1 25 59
M  V30 65 1 25 60
M  V30 66 1 28 61
M  V30 67 1 29 62
M  V30 68 1 32 63
M  V30 69 1 32 64
M  V30 70 1 33 65
M  V30 71 1 33 66
M  V30 72 1 34 67
M  V30 73 1 34 68
M  V30 74 1 35 69
M  V30 75 1 35 70
M  V30 76 1 36 71
M  V30 77 1 37 72
M  V30 78 1 40 73
M  V30 END BOND
M  V30 END CTAB
M  END
>  <Dataset>  (656) 
ChEMBL_Kinases

>  <Ligand_Instance>  (656) 
nan

>  <PDB_ID>  (656) 
nan

>  <Standardized_SMILES>  (656) 
CC(C)(C)C(=O)Nc1cccc(-c2ccc3nc(-c4cccnc4N)n(-c4ccc(C5(N)CCC5)cc4)c3n2)c1

>  <Name>  (656) 
nan

>  <Pocket>  (656) 
nan

>  <ATP_Site>  (656) 
nan

>  <Peripheral>  (656) 
nan

>  <Num_H_Atoms_ProtBoundConf>  (656) 
nan

>  <Num_Resolved_Atoms>  (656) 
nan

>  <Num_Not_Resolved_Atoms>  (656) 
nan

$$$$
CHEMBL3640734
     RDKit          3D

  0  0  0  0  0  0  0  0  0  0999 V3000
M  V30 BEGIN CTAB
M  V30 COUNTS 76 81 0 0 0
M  V30 BEGIN ATOM
M  V30 1 C 0.774693 -7.772855 1.109125 0
M  V30 2 C 1.793315 -6.771172 0.656808 0
M  V30 3 O 2.999080 -6.478829 0.760176 0
M  V30 4 O 1.195272 -5.823722 -0.177111 0
M  V30 5 C 1.994426 -4.775768 -0.717743 0
M  V30 6 C 1.064747 -3.923769 -1.627930 0
M  V30 7 C 3.028033 -5.384325 -1.641363 0
M  V30 8 C 2.557033 -3.824755 0.234406 0
M  V30 9 O 3.146170 -2.914832 0.958422 0
M  V30 10 N 1.955092 -4.097784 1.561753 0
M  V30 11 C 2.228322 -3.376538 2.750133 0
M  V30 12 C 3.114352 -3.749679 3.647329 0
M  V30 13 C 3.430130 -3.155124 4.877262 0
M  V30 14 C 2.582657 -2.079050 4.910798 0
M  V30 15 C 1.709777 -1.326973 4.499740 0
M  V30 16 C 0.649325 -0.412774 3.943775 0
M  V30 17 C -0.087393 -0.133032 5.115935 0
M  V30 18 C -1.272706 0.588559 5.012682 0
M  V30 19 C -1.665026 0.998359 3.767785 0
M  V30 20 N -2.754458 1.616093 3.213402 0
M  V30 21 C -2.606743 1.664378 1.863120 0
M  V30 22 C -3.718304 2.221907 1.200206 0
M  V30 23 C -3.760886 1.984335 -0.190685 0
M  V30 24 C -4.891172 2.343694 -0.909512 0
M  V30 25 C -6.070583 2.943242 -0.451703 0
M  V30 26 N -5.984124 3.158259 0.927259 0
M  V30 27 C -4.889160 2.799981 1.566469 0
M  V30 28 N -4.897664 3.065015 2.991066 0
M  V30 29 N -1.467585 1.123193 1.486423 0
M  V30 30 C -0.941125 1.132224 0.165303 0
M  V30 31 C -0.642445 0.242935 -0.802221 0
M  V30 32 C -0.136758 0.603863 -2.020423 0
M  V30 33 C 0.121555 1.918457 -2.378789 0
M  V30 34 C 0.620774 2.480894 -3.632267 0
M  V30 35 N 1.583728 3.577637 -3.462272 0
M  V30 36 C -0.492283 2.883488 -4.597291 0
M  V30 37 C 0.314933 2.255522 -5.693383 0
M  V30 38 C 1.129055 1.520977 -4.643908 0
M  V30 39 C -0.173660 2.872106 -1.403631 0
M  V30 40 C -0.696086 2.502762 -0.148678 0
M  V30 41 C -0.924751 0.723716 2.643908 0
M  V30 42 N 0.175913 0.040245 2.799309 0
M  V30 43 C 1.613959 -2.204434 3.256743 0
M  V30 44 H 1.270783 -8.439893 1.865378 0
M  V30 45 H -0.092217 -7.325675 1.609321 0
M  V30 46 H 0.539857 -8.409340 0.228593 0
M  V30 47 H 1.636492 -3.604358 -2.519327 0
M  V30 48 H 0.610168 -3.120866 -1.047314 0
M  V30 49 H 0.216692 -4.571155 -1.987310 0
M  V30 50 H 2.623456 -6.385198 -1.947829 0
M  V30 51 H 4.016007 -5.459184 -1.186249 0
M  V30 52 H 3.178104 -4.779294 -2.596453 0
M  V30 53 H 1.219864 -4.810495 1.945761 0
M  V30 54 H 3.774351 -4.627137 3.548787 0
M  V30 55 H 4.069638 -3.245460 5.717391 0
M  V30 56 H 2.604964 -1.380630 5.846672 0
M  V30 57 H 0.024427 -0.357473 6.192114 0
M  V30 58 H -1.985909 0.905043 5.756509 0
M  V30 59 H -3.107749 1.534281 -0.901544 0
M  V30 60 H -5.024731 2.184808 -2.001335 0
M  V30 61 H -6.924925 3.217019 -1.023462 0
M  V30 62 H -5.727939 3.003763 3.632820 0
M  V30 63 H -4.839910 3.265950 4.001579 0
M  V30 64 H -0.853401 -0.756423 -0.471693 0
M  V30 65 H 0.072310 -0.129786 -2.768654 0
M  V30 66 H 1.105981 4.462548 -3.744187 0
M  V30 67 H 2.407815 3.481644 -4.087432 0
M  V30 68 H -1.452873 2.367486 -4.334509 0
M  V30 69 H -0.597286 3.988679 -4.601665 0
M  V30 70 H -0.246162 1.635453 -6.389734 0
M  V30 71 H 0.897897 3.027035 -6.247353 0
M  V30 72 H 2.203771 1.596170 -4.915470 0
M  V30 73 H 0.889094 0.453196 -4.520441 0
M  V30 74 H -0.001991 3.942710 -1.606295 0
M  V30 75 H -0.878679 3.388776 0.504497 0
M  V30 76 H 0.895277 -2.088448 2.315858 0
M  V30 END ATOM
M  V30 BEGIN BOND
M  V30 1 1 1 2
M  V30 2 2 2 3
M  V30 3 1 2 4
M  V30 4 1 4 5
M  V30 5 1 5 6
M  V30 6 1 5 7
M  V30 7 1 5 8
M  V30 8 2 8 9
M  V30 9 1 8 10
M  V30 10 1 10 11
M  V30 11 2 11 12
M  V30 12 1 12 13
M  V30 13 2 13 14
M  V30 14 1 14 15
M  V30 15 1 15 16
M  V30 16 2 16 17
M  V30 17 1 17 18
M  V30 18 2 18 19
M  V30 19 1 19 20
M  V30 20 2 20 21
M  V30 21 1 21 22
M  V30 22 2 22 23
M  V30 23 1 23 24
M  V30 24 2 24 25
M  V30 25 1 25 26
M  V30 26 2 26 27
M  V30 27 1 27 28
M  V30 28 1 21 29
M  V30 29 1 29 30
M  V30 30 2 30 31
M  V30 31 1 31 32
M  V30 32 2 32 33
M  V30 33 1 33 34
M  V30 34 1 34 35
M  V30 35 1 34 36
M  V30 36 1 36 37
M  V30 37 1 37 38
M  V30 38 1 33 39
M  V30 39 2 39 40
M  V30 40 1 29 41
M  V30 41 2 41 42
M  V30 42 2 15 43
M  V30 43 1 43 11
M  V30 44 1 42 16
M  V30 45 1 41 19
M  V30 46 1 27 22
M  V30 47 1 40 30
M  V30 48 1 38 34
M  V30 49 1 1 44
M  V30 50 1 1 45
M  V30 51 1 1 46
M  V30 52 1 6 47
M  V30 53 1 6 48
M  V30 54 1 6 49
M  V30 55 1 7 50
M  V30 56 1 7 51
M  V30 57 1 7 52
M  V30 58 1 10 53
M  V30 59 1 12 54
M  V30 60 1 13 55
M  V30 61 1 14 56
M  V30 62 1 17 57
M  V30 63 1 18 58
M  V30 64 1 23 59
M  V30 65 1 24 60
M  V30 66 1 25 61
M  V30 67 1 28 62
M  V30 68 1 28 63
M  V30 69 1 31 64
M  V30 70 1 32 65
M  V30 71 1 35 66
M  V30 72 1 35 67
M  V30 73 1 36 68
M  V30 74 1 36 69
M  V30 75 1 37 70
M  V30 76 1 37 71
M  V30 77 1 38 72
M  V30 78 1 38 73
M  V30 79 1 39 74
M  V30 80 1 40 75
M  V30 81 1 43 76
M  V30 END BOND
M  V30 END CTAB
M  END
>  <Dataset>  (657) 
ChEMBL_Kinases

>  <Ligand_Instance>  (657) 
nan

>  <PDB_ID>  (657) 
nan

>  <Standardized_SMILES>  (657) 
CC(=O)OC(C)(C)C(=O)Nc1cccc(-c2ccc3nc(-c4cccnc4N)n(-c4ccc(C5(N)CCC5)cc4)c3n2)c1

>  <Name>  (657) 
nan

>  <Pocket>  (657) 
nan

>  <ATP_Site>  (657) 
nan

>  <Peripheral>  (657) 
nan

>  <Num_H_Atoms_ProtBoundConf>  (657) 
nan

>  <Num_Resolved_Atoms>  (657) 
nan

>  <Num_Not_Resolved_Atoms>  (657) 
nan

$$$$
CHEMBL3640735
     RDKit          3D

  0  0  0  0  0  0  0  0  0  0999 V3000
M  V30 BEGIN CTAB
M  V30 COUNTS 71 76 0 0 0
M  V30 BEGIN ATOM
M  V30 1 C 4.273344 1.369052 5.322077 0
M  V30 2 C 2.961836 1.448317 4.572199 0
M  V30 3 C 2.099458 0.315820 5.015122 0
M  V30 4 O 2.365876 2.649225 4.961099 0
M  V30 5 C 3.170715 1.528525 3.105775 0
M  V30 6 O 2.930665 2.417111 2.248887 0
M  V30 7 N 3.764056 0.410325 2.432507 0
M  V30 8 C 3.896551 0.646539 1.025019 0
M  V30 9 C 5.098918 1.227895 0.683521 0
M  V30 10 C 5.324292 1.496347 -0.650025 0
M  V30 11 C 4.353476 1.177868 -1.576249 0
M  V30 12 C 3.142825 0.597386 -1.269542 0
M  V30 13 C 2.120757 0.263332 -2.254117 0
M  V30 14 C 2.360782 0.537001 -3.583178 0
M  V30 15 C 1.350829 0.198845 -4.491835 0
M  V30 16 C 0.212499 -0.378177 -3.949859 0
M  V30 17 N -0.853368 -0.772644 -4.605936 0
M  V30 18 C -1.789266 -1.291127 -3.809873 0
M  V30 19 C -3.048633 -1.782827 -4.292159 0
M  V30 20 C -3.295552 -1.678207 -5.649715 0
M  V30 21 C -4.463835 -2.094610 -6.227565 0
M  V30 22 C -5.485465 -2.645478 -5.536248 0
M  V30 23 N -5.258330 -2.756422 -4.196183 0
M  V30 24 C -4.104071 -2.338937 -3.664416 0
M  V30 25 N -4.095481 -2.563239 -2.282157 0
M  V30 26 N -1.252546 -1.201457 -2.606251 0
M  V30 27 C -1.680285 -1.543655 -1.321010 0
M  V30 28 C -1.492979 -2.717608 -0.570793 0
M  V30 29 C -1.973975 -2.796032 0.718116 0
M  V30 30 C -2.641468 -1.796443 1.354286 0
M  V30 31 C -3.101288 -2.016750 2.725999 0
M  V30 32 N -3.863061 -3.246032 2.926348 0
M  V30 33 C -3.824319 -0.885456 3.399901 0
M  V30 34 C -3.140887 -1.333847 4.699570 0
M  V30 35 C -2.025886 -1.866562 3.788978 0
M  V30 36 C -2.831474 -0.627798 0.616658 0
M  V30 37 C -2.367956 -0.488052 -0.692289 0
M  V30 38 C -0.008684 -0.643140 -2.623694 0
M  V30 39 N 0.984395 -0.300136 -1.814312 0
M  V30 40 C 2.954476 0.344650 0.071648 0
M  V30 41 H 4.882348 0.559505 4.891793 0
M  V30 42 H 4.039331 1.099956 6.369822 0
M  V30 43 H 4.784221 2.343699 5.261039 0
M  V30 44 H 2.527803 -0.189950 5.921011 0
M  V30 45 H 1.085189 0.689335 5.341297 0
M  V30 46 H 1.903668 -0.446099 4.241485 0
M  V30 47 H 2.000178 2.625751 5.874972 0
M  V30 48 H 4.068665 -0.485449 2.919194 0
M  V30 49 H 5.872234 1.485638 1.390093 0
M  V30 50 H 6.273575 1.958224 -0.950690 0
M  V30 51 H 4.608975 1.420387 -2.593837 0
M  V30 52 H 3.251618 0.987006 -3.993922 0
M  V30 53 H 1.445043 0.372807 -5.541813 0
M  V30 54 H -2.558357 -1.249686 -6.350247 0
M  V30 55 H -4.573219 -1.975503 -7.292551 0
M  V30 56 H -6.370661 -2.949539 -6.047373 0
M  V30 57 H -3.745436 -3.561937 -2.158299 0
M  V30 58 H -3.750869 -3.540331 -2.194815 0
M  V30 59 H -0.961911 -3.454125 -1.137731 0
M  V30 60 H -1.776499 -3.748680 1.212679 0
M  V30 61 H -3.585329 -3.988594 2.264437 0
M  V30 62 H -4.860057 -2.997370 2.696668 0
M  V30 63 H -4.915542 -1.016204 3.481839 0
M  V30 64 H -3.481883 0.117484 3.126025 0
M  V30 65 H -2.845997 -0.496064 5.351708 0
M  V30 66 H -3.640203 -2.193322 5.187973 0
M  V30 67 H -1.585073 -2.820473 4.153296 0
M  V30 68 H -1.305450 -1.084031 3.481172 0
M  V30 69 H -3.358276 0.182979 1.097237 0
M  V30 70 H -2.583278 0.476685 -1.156023 0
M  V30 71 H 2.025528 -0.115132 0.422857 0
M  V30 END ATOM
M  V30 BEGIN BOND
M  V30 1 1 1 2
M  V30 2 1 2 3
M  V30 3 1 2 4
M  V30 4 1 2 5
M  V30 5 2 5 6
M  V30 6 1 5 7
M  V30 7 1 7 8
M  V30 8 2 8 9
M  V30 9 1 9 10
M  V30 10 2 10 11
M  V30 11 1 11 12
M  V30 12 1 12 13
M  V30 13 2 13 14
M  V30 14 1 14 15
M  V30 15 2 15 16
M  V30 16 1 16 17
M  V30 17 2 17 18
M  V30 18 1 18 19
M  V30 19 2 19 20
M  V30 20 1 20 21
M  V30 21 2 21 22
M  V30 22 1 22 23
M  V30 23 2 23 24
M  V30 24 1 24 25
M  V30 25 1 18 26
M  V30 26 1 26 27
M  V30 27 2 27 28
M  V30 28 1 28 29
M  V30 29 2 29 30
M  V30 30 1 30 31
M  V30 31 1 31 32
M  V30 32 1 31 33
M  V30 33 1 33 34
M  V30 34 1 34 35
M  V30 35 1 30 36
M  V30 36 2 36 37
M  V30 37 1 26 38
M  V30 38 2 38 39
M  V30 39 2 12 40
M  V30 40 1 40 8
M  V30 41 1 39 13
M  V30 42 1 38 16
M  V30 43 1 24 19
M  V30 44 1 37 27
M  V30 45 1 35 31
M  V30 46 1 1 41
M  V30 47 1 1 42
M  V30 48 1 1 43
M  V30 49 1 3 44
M  V30 50 1 3 45
M  V30 51 1 3 46
M  V30 52 1 4 47
M  V30 53 1 7 48
M  V30 54 1 9 49
M  V30 55 1 10 50
M  V30 56 1 11 51
M  V30 57 1 14 52
M  V30 58 1 15 53
M  V30 59 1 20 54
M  V30 60 1 21 55
M  V30 61 1 22 56
M  V30 62 1 25 57
M  V30 63 1 25 58
M  V30 64 1 28 59
M  V30 65 1 29 60
M  V30 66 1 32 61
M  V30 67 1 32 62
M  V30 68 1 33 63
M  V30 69 1 33 64
M  V30 70 1 34 65
M  V30 71 1 34 66
M  V30 72 1 35 67
M  V30 73 1 35 68
M  V30 74 1 36 69
M  V30 75 1 37 70
M  V30 76 1 40 71
M  V30 END BOND
M  V30 END CTAB
M  END
>  <Dataset>  (658) 
ChEMBL_Kinases

>  <Ligand_Instance>  (658) 
nan

>  <PDB_ID>  (658) 
nan

>  <Standardized_SMILES>  (658) 
CC(C)(O)C(=O)Nc1cccc(-c2ccc3nc(-c4cccnc4N)n(-c4ccc(C5(N)CCC5)cc4)c3n2)c1

>  <Name>  (658) 
nan

>  <Pocket>  (658) 
nan

>  <ATP_Site>  (658) 
nan

>  <Peripheral>  (658) 
nan

>  <Num_H_Atoms_ProtBoundConf>  (658) 
nan

>  <Num_Resolved_Atoms>  (658) 
nan

>  <Num_Not_Resolved_Atoms>  (658) 
nan

$$$$
CHEMBL3640736
     RDKit          3D

  0  0  0  0  0  0  0  0  0  0999 V3000
M  V30 BEGIN CTAB
M  V30 COUNTS 71 76 0 0 0
M  V30 BEGIN ATOM
M  V30 1 C 3.665506 -0.259050 5.940405 0
M  V30 2 C 3.880418 -0.378840 4.430288 0 CFG=2
M  V30 3 O 5.164158 0.101180 4.213731 0
M  V30 4 C 2.853557 0.453758 3.778807 0
M  V30 5 N 2.896555 0.605221 2.369371 0
M  V30 6 C 3.886339 1.143008 1.532657 0
M  V30 7 O 4.939887 1.583001 2.093667 0
M  V30 8 C 3.859164 1.262309 0.083535 0
M  V30 9 C 4.921929 1.815304 -0.567878 0
M  V30 10 C 4.955668 1.954553 -1.945397 0
M  V30 11 C 3.873769 1.514836 -2.653914 0
M  V30 12 C 2.756470 0.944483 -2.091343 0
M  V30 13 C 1.590325 0.465220 -2.832917 0
M  V30 14 C 1.574603 0.573023 -4.205928 0
M  V30 15 C 0.442526 0.100177 -4.880116 0
M  V30 16 C -0.544129 -0.428745 -4.073200 0
M  V30 17 N -1.704739 -0.938227 -4.478838 0
M  V30 18 C -2.466385 -1.379168 -3.472892 0
M  V30 19 C -3.757159 -1.965780 -3.670223 0
M  V30 20 C -4.227336 -2.069389 -4.961877 0
M  V30 21 C -5.441056 -2.606307 -5.267894 0
M  V30 22 C -6.299067 -3.090117 -4.313374 0
M  V30 23 N -5.866753 -3.001679 -3.049817 0
M  V30 24 C -4.667472 -2.466523 -2.799079 0
M  V30 25 N -4.408339 -2.472545 -1.419433 0
M  V30 26 N -1.716166 -1.116161 -2.416251 0
M  V30 27 C -1.903563 -1.315041 -1.036898 0
M  V30 28 C -1.531380 -2.417324 -0.247746 0
M  V30 29 C -1.763642 -2.386316 1.111194 0
M  V30 30 C -2.360631 -1.289701 1.737579 0
M  V30 31 C -2.488622 -1.522244 3.188186 0
M  V30 32 N -3.084383 -2.817472 3.512212 0
M  V30 33 C -3.134015 -0.448226 4.006250 0
M  V30 34 C -1.762556 0.050820 4.471863 0
M  V30 35 C -1.208442 -1.268480 3.968788 0
M  V30 36 C -2.719753 -0.218621 0.956235 0
M  V30 37 C -2.504419 -0.211776 -0.403440 0
M  V30 38 C -0.536681 -0.540120 -2.702274 0
M  V30 39 N 0.574530 -0.068188 -2.134770 0
M  V30 40 C 2.815071 0.848110 -0.713698 0
M  V30 41 H 3.955418 0.738417 6.312938 0
M  V30 42 H 4.381974 -1.005553 6.376270 0
M  V30 43 H 2.639676 -0.568163 6.141514 0
M  V30 44 H 3.792815 -1.466453 4.236577 0
M  V30 45 H 5.749073 -0.650916 3.976758 0
M  V30 46 H 2.869054 1.452971 4.287223 0
M  V30 47 H 1.852268 0.035779 4.059873 0
M  V30 48 H 2.075662 0.279376 1.773984 0
M  V30 49 H 5.807782 2.180410 -0.040659 0
M  V30 50 H 5.804219 2.393042 -2.432945 0
M  V30 51 H 3.924773 1.634696 -3.722696 0
M  V30 52 H 2.365327 0.993557 -4.808312 0
M  V30 53 H 0.333893 0.139412 -5.952880 0
M  V30 54 H -3.642943 -1.720542 -5.827896 0
M  V30 55 H -5.738553 -2.652155 -6.301763 0
M  V30 56 H -7.235579 -3.496500 -4.638886 0
M  V30 57 H -4.163848 -3.443016 -1.068313 0
M  V30 58 H -4.166178 -3.422640 -1.060649 0
M  V30 59 H -1.080418 -3.212340 -0.817084 0
M  V30 60 H -1.418058 -3.309473 1.561762 0
M  V30 61 H -2.884503 -2.984494 4.536376 0
M  V30 62 H -4.134293 -2.782227 3.401705 0
M  V30 63 H -3.702438 -0.837004 4.900000 0
M  V30 64 H -3.737552 0.265899 3.446576 0
M  V30 65 H -1.379515 0.900566 3.873509 0
M  V30 66 H -1.696986 0.162739 5.578993 0
M  V30 67 H -1.067350 -1.998678 4.783596 0
M  V30 68 H -0.360004 -1.154158 3.262115 0
M  V30 69 H -3.170584 0.576038 1.528158 0
M  V30 70 H -2.827798 0.685970 -0.916831 0
M  V30 71 H 1.938154 0.397044 -0.234985 0
M  V30 END ATOM
M  V30 BEGIN BOND
M  V30 1 1 1 2
M  V30 2 1 2 3
M  V30 3 1 2 4
M  V30 4 1 4 5
M  V30 5 1 5 6
M  V30 6 2 6 7
M  V30 7 1 6 8
M  V30 8 2 8 9
M  V30 9 1 9 10
M  V30 10 2 10 11
M  V30 11 1 11 12
M  V30 12 1 12 13
M  V30 13 2 13 14
M  V30 14 1 14 15
M  V30 15 2 15 16
M  V30 16 1 16 17
M  V30 17 2 17 18
M  V30 18 1 18 19
M  V30 19 2 19 20
M  V30 20 1 20 21
M  V30 21 2 21 22
M  V30 22 1 22 23
M  V30 23 2 23 24
M  V30 24 1 24 25
M  V30 25 1 18 26
M  V30 26 1 26 27
M  V30 27 2 27 28
M  V30 28 1 28 29
M  V30 29 2 29 30
M  V30 30 1 30 31
M  V30 31 1 31 32
M  V30 32 1 31 33
M  V30 33 1 33 34
M  V30 34 1 34 35
M  V30 35 1 30 36
M  V30 36 2 36 37
M  V30 37 1 26 38
M  V30 38 2 38 39
M  V30 39 2 12 40
M  V30 40 1 40 8
M  V30 41 1 39 13
M  V30 42 1 38 16
M  V30 43 1 24 19
M  V30 44 1 37 27
M  V30 45 1 35 31
M  V30 46 1 1 41
M  V30 47 1 1 42
M  V30 48 1 1 43
M  V30 49 1 2 44 CFG=3
M  V30 50 1 3 45
M  V30 51 1 4 46
M  V30 52 1 4 47
M  V30 53 1 5 48
M  V30 54 1 9 49
M  V30 55 1 10 50
M  V30 56 1 11 51
M  V30 57 1 14 52
M  V30 58 1 15 53
M  V30 59 1 20 54
M  V30 60 1 21 55
M  V30 61 1 22 56
M  V30 62 1 25 57
M  V30 63 1 25 58
M  V30 64 1 28 59
M  V30 65 1 29 60
M  V30 66 1 32 61
M  V30 67 1 32 62
M  V30 68 1 33 63
M  V30 69 1 33 64
M  V30 70 1 34 65
M  V30 71 1 34 66
M  V30 72 1 35 67
M  V30 73 1 35 68
M  V30 74 1 36 69
M  V30 75 1 37 70
M  V30 76 1 40 71
M  V30 END BOND
M  V30 END CTAB
M  END
>  <Dataset>  (659) 
ChEMBL_Kinases

>  <Ligand_Instance>  (659) 
nan

>  <PDB_ID>  (659) 
nan

>  <Standardized_SMILES>  (659) 
C[C@H](O)CNC(=O)c1cccc(-c2ccc3nc(-c4cccnc4N)n(-c4ccc(C5(N)CCC5)cc4)c3n2)c1

>  <Name>  (659) 
nan

>  <Pocket>  (659) 
nan

>  <ATP_Site>  (659) 
nan

>  <Peripheral>  (659) 
nan

>  <Num_H_Atoms_ProtBoundConf>  (659) 
nan

>  <Num_Resolved_Atoms>  (659) 
nan

>  <Num_Not_Resolved_Atoms>  (659) 
nan

$$$$
CHEMBL3640737
     RDKit          3D

  0  0  0  0  0  0  0  0  0  0999 V3000
M  V30 BEGIN CTAB
M  V30 COUNTS 71 76 0 0 0
M  V30 BEGIN ATOM
M  V30 1 C 2.560260 0.073544 5.054419 0
M  V30 2 C 4.011842 -0.236250 5.289875 0 CFG=1
M  V30 3 O 4.153479 -0.326009 6.698773 0
M  V30 4 C 4.502921 -1.498713 4.665425 0
M  V30 5 N 4.441879 -1.462741 3.243991 0
M  V30 6 C 3.622872 -1.367123 2.126563 0
M  V30 7 O 2.411864 -1.281257 2.451747 0
M  V30 8 C 4.039796 -1.360413 0.736072 0
M  V30 9 C 5.330322 -1.460562 0.264549 0
M  V30 10 C 5.643597 -1.444053 -1.078415 0
M  V30 11 C 4.575669 -1.319507 -1.943202 0
M  V30 12 C 3.259622 -1.214360 -1.552169 0
M  V30 13 C 2.140045 -1.082902 -2.478025 0
M  V30 14 C 2.396243 -1.060893 -3.830724 0
M  V30 15 C 1.308247 -0.935053 -4.689733 0
M  V30 16 C 0.070859 -0.844362 -4.088187 0
M  V30 17 N -1.115409 -0.719426 -4.678407 0
M  V30 18 C -2.137427 -0.657139 -3.817941 0
M  V30 19 C -3.500374 -0.522144 -4.243702 0
M  V30 20 C -3.753627 -0.453579 -5.594309 0
M  V30 21 C -5.022551 -0.323454 -6.098751 0
M  V30 22 C -6.141801 -0.250190 -5.327344 0
M  V30 23 N -5.891628 -0.317713 -3.999866 0
M  V30 24 C -4.642821 -0.444835 -3.529462 0
M  V30 25 N -4.651002 -0.493348 -2.131307 0
M  V30 26 N -1.542654 -0.748762 -2.642389 0
M  V30 27 C -1.994607 -0.750928 -1.330665 0
M  V30 28 C -2.357379 -1.836820 -0.524229 0
M  V30 29 C -2.731525 -1.595332 0.799249 0
M  V30 30 C -2.772111 -0.347458 1.384237 0
M  V30 31 C -3.201804 -0.435102 2.774698 0
M  V30 32 N -4.363114 -1.294510 2.943833 0
M  V30 33 C -2.144150 -0.626831 3.831759 0
M  V30 34 C -2.875712 0.384341 4.690273 0
M  V30 35 C -3.472121 0.919326 3.379256 0
M  V30 36 C -2.412356 0.704325 0.575018 0
M  V30 37 C -2.034788 0.524030 -0.737658 0
M  V30 38 C -0.204406 -0.864425 -2.740628 0
M  V30 39 N 0.895488 -0.987931 -1.983568 0
M  V30 40 C 3.034891 -1.239380 -0.194272 0
M  V30 41 H 1.899614 -0.798354 5.021196 0
M  V30 42 H 2.199255 0.706453 5.937163 0
M  V30 43 H 2.381897 0.723558 4.188189 0
M  V30 44 H 4.610000 0.618182 4.932369 0
M  V30 45 H 4.733492 -1.099212 6.906199 0
M  V30 46 H 5.537779 -1.663881 5.045305 0
M  V30 47 H 3.871382 -2.377696 5.033409 0
M  V30 48 H 5.448534 -1.541153 2.868732 0
M  V30 49 H 6.127733 -1.556212 0.984665 0
M  V30 50 H 6.666979 -1.524744 -1.407711 0
M  V30 51 H 4.845412 -1.308950 -2.987695 0
M  V30 52 H 3.356701 -1.131315 -4.302161 0
M  V30 53 H 1.400524 -0.908260 -5.745119 0
M  V30 54 H -2.953437 -0.499210 -6.341845 0
M  V30 55 H -5.132174 -0.277389 -7.170022 0
M  V30 56 H -7.093974 -0.149470 -5.798112 0
M  V30 57 H -4.841738 0.193538 -1.371372 0
M  V30 58 H -4.898313 0.427136 -1.676886 0
M  V30 59 H -2.307603 -2.768534 -1.025180 0
M  V30 60 H -2.978118 -2.563757 1.264110 0
M  V30 61 H -4.496652 -1.526017 3.953144 0
M  V30 62 H -5.186140 -0.873808 2.483134 0
M  V30 63 H -1.114238 -0.392379 3.577767 0
M  V30 64 H -2.278171 -1.632265 4.285300 0
M  V30 65 H -3.694014 -0.035009 5.301398 0
M  V30 66 H -2.231132 1.122387 5.196050 0
M  V30 67 H -2.875954 1.762695 3.025466 0
M  V30 68 H -4.547320 1.170487 3.464751 0
M  V30 69 H -2.459329 1.660968 1.073265 0
M  V30 70 H -1.779837 1.466750 -1.239906 0
M  V30 71 H 1.989585 -1.156028 0.119213 0
M  V30 END ATOM
M  V30 BEGIN BOND
M  V30 1 1 1 2
M  V30 2 1 2 3
M  V30 3 1 2 4
M  V30 4 1 4 5
M  V30 5 1 5 6
M  V30 6 2 6 7
M  V30 7 1 6 8
M  V30 8 2 8 9
M  V30 9 1 9 10
M  V30 10 2 10 11
M  V30 11 1 11 12
M  V30 12 1 12 13
M  V30 13 2 13 14
M  V30 14 1 14 15
M  V30 15 2 15 16
M  V30 16 1 16 17
M  V30 17 2 17 18
M  V30 18 1 18 19
M  V30 19 2 19 20
M  V30 20 1 20 21
M  V30 21 2 21 22
M  V30 22 1 22 23
M  V30 23 2 23 24
M  V30 24 1 24 25
M  V30 25 1 18 26
M  V30 26 1 26 27
M  V30 27 2 27 28
M  V30 28 1 28 29
M  V30 29 2 29 30
M  V30 30 1 30 31
M  V30 31 1 31 32
M  V30 32 1 31 33
M  V30 33 1 33 34
M  V30 34 1 34 35
M  V30 35 1 30 36
M  V30 36 2 36 37
M  V30 37 1 26 38
M  V30 38 2 38 39
M  V30 39 2 12 40
M  V30 40 1 40 8
M  V30 41 1 39 13
M  V30 42 1 38 16
M  V30 43 1 24 19
M  V30 44 1 37 27
M  V30 45 1 35 31
M  V30 46 1 1 41
M  V30 47 1 1 42
M  V30 48 1 1 43
M  V30 49 1 2 44 CFG=3
M  V30 50 1 3 45
M  V30 51 1 4 46
M  V30 52 1 4 47
M  V30 53 1 5 48
M  V30 54 1 9 49
M  V30 55 1 10 50
M  V30 56 1 11 51
M  V30 57 1 14 52
M  V30 58 1 15 53
M  V30 59 1 20 54
M  V30 60 1 21 55
M  V30 61 1 22 56
M  V30 62 1 25 57
M  V30 63 1 25 58
M  V30 64 1 28 59
M  V30 65 1 29 60
M  V30 66 1 32 61
M  V30 67 1 32 62
M  V30 68 1 33 63
M  V30 69 1 33 64
M  V30 70 1 34 65
M  V30 71 1 34 66
M  V30 72 1 35 67
M  V30 73 1 35 68
M  V30 74 1 36 69
M  V30 75 1 37 70
M  V30 76 1 40 71
M  V30 END BOND
M  V30 END CTAB
M  END
>  <Dataset>  (660) 
ChEMBL_Kinases

>  <Ligand_Instance>  (660) 
nan

>  <PDB_ID>  (660) 
nan

>  <Standardized_SMILES>  (660) 
C[C@@H](O)CNC(=O)c1cccc(-c2ccc3nc(-c4cccnc4N)n(-c4ccc(C5(N)CCC5)cc4)c3n2)c1

>  <Name>  (660) 
nan

>  <Pocket>  (660) 
nan

>  <ATP_Site>  (660) 
nan

>  <Peripheral>  (660) 
nan

>  <Num_H_Atoms_ProtBoundConf>  (660) 
nan

>  <Num_Resolved_Atoms>  (660) 
nan

>  <Num_Not_Resolved_Atoms>  (660) 
nan

$$$$
CHEMBL3640738
     RDKit          3D

  0  0  0  0  0  0  0  0  0  0999 V3000
M  V30 BEGIN CTAB
M  V30 COUNTS 82 88 0 0 0
M  V30 BEGIN ATOM
M  V30 1 C -3.149934 -1.459708 -5.552922 0
M  V30 2 N -2.655825 -0.471021 -6.484565 0
M  V30 3 C -2.210130 -0.919372 -7.813024 0
M  V30 4 C -2.678632 0.836751 -5.941005 0
M  V30 5 O -3.135427 0.740507 -4.772116 0
M  V30 6 C -2.287668 2.180573 -6.476703 0
M  V30 7 C -0.843319 2.215089 -6.874805 0
M  V30 8 C 0.064815 2.691296 -5.771488 0
M  V30 9 N -0.512555 2.620113 -4.454815 0
M  V30 10 C -0.005488 1.841985 -3.399413 0
M  V30 11 C 1.074464 0.994967 -3.513075 0
M  V30 12 C 1.593327 0.227050 -2.503049 0
M  V30 13 C 1.013480 0.278322 -1.249980 0
M  V30 14 C -0.075753 1.113733 -1.078489 0
M  V30 15 C -0.652352 1.136949 0.256962 0
M  V30 16 C -1.726930 1.898665 0.659955 0
M  V30 17 C -2.267845 1.915445 1.923426 0
M  V30 18 C -1.692453 1.103495 2.878430 0
M  V30 19 N -1.902863 0.827350 4.158698 0
M  V30 20 C -1.016676 -0.078922 4.610462 0
M  V30 21 C -1.070557 -0.525681 5.981468 0
M  V30 22 C -0.243272 -1.453917 6.567075 0
M  V30 23 C -0.366411 -1.838539 7.884140 0
M  V30 24 C -1.347395 -1.297719 8.693922 0
M  V30 25 N -2.168761 -0.386232 8.139318 0
M  V30 26 C -2.011072 -0.045721 6.859874 0
M  V30 27 N -2.959846 0.929480 6.432448 0
M  V30 28 N -0.242027 -0.367323 3.586103 0
M  V30 29 C 0.831841 -1.261368 3.570828 0
M  V30 30 C 0.550470 -2.582331 3.197186 0
M  V30 31 C 1.536750 -3.574930 3.126539 0
M  V30 32 C 2.857374 -3.231908 3.442356 0
M  V30 33 C 3.776929 -4.379900 3.309572 0
M  V30 34 N 3.464178 -5.196687 2.130004 0
M  V30 35 C 3.906788 -5.265134 4.520435 0
M  V30 36 C 5.394382 -5.387581 4.161487 0
M  V30 37 C 5.257003 -4.075657 3.369921 0
M  V30 38 C 3.150738 -1.945839 3.810269 0
M  V30 39 C 2.171923 -0.974272 3.877585 0
M  V30 40 C -0.618089 0.340239 2.480798 0
M  V30 41 N -0.129530 0.365588 1.223555 0
M  V30 42 C -0.546349 1.857394 -2.135940 0
M  V30 43 C -1.677366 3.454308 -4.374887 0
M  V30 44 C -2.654239 3.271348 -5.508337 0
M  V30 45 H -4.236889 -1.663476 -5.675432 0
M  V30 46 H -2.622899 -2.416309 -5.784065 0
M  V30 47 H -2.962221 -1.211455 -4.489872 0
M  V30 48 H -2.809312 -1.774061 -8.127689 0
M  V30 49 H -2.281514 -0.119631 -8.564602 0
M  V30 50 H -1.155819 -1.269610 -7.686715 0
M  V30 51 H -2.892749 2.348916 -7.393132 0
M  V30 52 H -0.572008 1.212301 -7.263330 0
M  V30 53 H -0.738412 2.898678 -7.759585 0
M  V30 54 H 1.007893 2.124110 -5.891566 0
M  V30 55 H 0.277771 3.788204 -5.958234 0
M  V30 56 H 1.602172 0.879752 -4.447797 0
M  V30 57 H 2.444462 -0.431153 -2.624723 0
M  V30 58 H 1.425012 -0.329215 -0.455250 0
M  V30 59 H -2.206266 2.548296 -0.056153 0
M  V30 60 H -3.100929 2.522984 2.188825 0
M  V30 61 H 0.537988 -1.917087 5.992973 0
M  V30 62 H 0.279620 -2.568510 8.351895 0
M  V30 63 H -1.438226 -1.601489 9.723120 0
M  V30 64 H -3.695321 1.213277 5.723599 0
M  V30 65 H -3.690999 1.270163 5.774665 0
M  V30 66 H -0.468712 -2.852326 2.951956 0
M  V30 67 H 1.206053 -4.560538 2.825553 0
M  V30 68 H 2.747664 -5.945769 2.369906 0
M  V30 69 H 3.092288 -4.538817 1.394572 0
M  V30 70 H 3.685672 -4.822864 5.489135 0
M  V30 71 H 3.379899 -6.254355 4.401094 0
M  V30 72 H 5.536656 -6.226193 3.466556 0
M  V30 73 H 6.057377 -5.320095 5.024666 0
M  V30 74 H 5.730061 -4.115339 2.377028 0
M  V30 75 H 5.570883 -3.192320 3.921056 0
M  V30 76 H 4.174276 -1.736872 4.043582 0
M  V30 77 H 2.387641 0.044150 4.164272 0
M  V30 78 H -1.397285 2.474201 -1.895930 0
M  V30 79 H -1.279976 4.513819 -4.387304 0
M  V30 80 H -2.263568 3.388095 -3.460484 0
M  V30 81 H -3.694911 3.040151 -5.162082 0
M  V30 82 H -2.737451 4.220341 -6.074991 0
M  V30 END ATOM
M  V30 BEGIN BOND
M  V30 1 1 1 2
M  V30 2 1 2 3
M  V30 3 1 2 4
M  V30 4 2 4 5
M  V30 5 1 4 6
M  V30 6 1 6 7
M  V30 7 1 7 8
M  V30 8 1 8 9
M  V30 9 1 9 10
M  V30 10 2 10 11
M  V30 11 1 11 12
M  V30 12 2 12 13
M  V30 13 1 13 14
M  V30 14 1 14 15
M  V30 15 2 15 16
M  V30 16 1 16 17
M  V30 17 2 17 18
M  V30 18 1 18 19
M  V30 19 2 19 20
M  V30 20 1 20 21
M  V30 21 2 21 22
M  V30 22 1 22 23
M  V30 23 2 23 24
M  V30 24 1 24 25
M  V30 25 2 25 26
M  V30 26 1 26 27
M  V30 27 1 20 28
M  V30 28 1 28 29
M  V30 29 2 29 30
M  V30 30 1 30 31
M  V30 31 2 31 32
M  V30 32 1 32 33
M  V30 33 1 33 34
M  V30 34 1 33 35
M  V30 35 1 35 36
M  V30 36 1 36 37
M  V30 37 1 32 38
M  V30 38 2 38 39
M  V30 39 1 28 40
M  V30 40 2 40 41
M  V30 41 2 14 42
M  V30 42 1 9 43
M  V30 43 1 43 44
M  V30 44 1 44 6
M  V30 45 1 42 10
M  V30 46 1 41 15
M  V30 47 1 40 18
M  V30 48 1 26 21
M  V30 49 1 39 29
M  V30 50 1 37 33
M  V30 51 1 1 45
M  V30 52 1 1 46
M  V30 53 1 1 47
M  V30 54 1 3 48
M  V30 55 1 3 49
M  V30 56 1 3 50
M  V30 57 1 6 51
M  V30 58 1 7 52
M  V30 59 1 7 53
M  V30 60 1 8 54
M  V30 61 1 8 55
M  V30 62 1 11 56
M  V30 63 1 12 57
M  V30 64 1 13 58
M  V30 65 1 16 59
M  V30 66 1 17 60
M  V30 67 1 22 61
M  V30 68 1 23 62
M  V30 69 1 24 63
M  V30 70 1 27 64
M  V30 71 1 27 65
M  V30 72 1 30 66
M  V30 73 1 31 67
M  V30 74 1 34 68
M  V30 75 1 34 69
M  V30 76 1 35 70
M  V30 77 1 35 71
M  V30 78 1 36 72
M  V30 79 1 36 73
M  V30 80 1 37 74
M  V30 81 1 37 75
M  V30 82 1 38 76
M  V30 83 1 39 77
M  V30 84 1 42 78
M  V30 85 1 43 79
M  V30 86 1 43 80
M  V30 87 1 44 81
M  V30 88 1 44 82
M  V30 END BOND
M  V30 END CTAB
M  END
>  <Dataset>  (661) 
ChEMBL_Kinases

>  <Ligand_Instance>  (661) 
nan

>  <PDB_ID>  (661) 
nan

>  <Standardized_SMILES>  (661) 
CN(C)C(=O)C1CCN(c2cccc(-c3ccc4nc(-c5cccnc5N)n(-c5ccc(C6(N)CCC6)cc5)c4n3)c2)CC1

>  <Name>  (661) 
nan

>  <Pocket>  (661) 
nan

>  <ATP_Site>  (661) 
nan

>  <Peripheral>  (661) 
nan

>  <Num_H_Atoms_ProtBoundConf>  (661) 
nan

>  <Num_Resolved_Atoms>  (661) 
nan

>  <Num_Not_Resolved_Atoms>  (661) 
nan

$$$$
CHEMBL3640748
     RDKit          3D

  0  0  0  0  0  0  0  0  0  0999 V3000
M  V30 BEGIN CTAB
M  V30 COUNTS 59 64 0 0 0
M  V30 BEGIN ATOM
M  V30 1 N 2.335808 -3.530264 1.108709 0
M  V30 2 C 3.119803 -3.209105 2.222674 0
M  V30 3 N 3.769234 -4.318892 2.619834 0
M  V30 4 C 4.610537 -4.310531 3.683678 0
M  V30 5 C 4.704176 -3.083016 4.267588 0
M  V30 6 C 4.042525 -1.956095 3.860561 0
M  V30 7 C 3.194713 -1.997975 2.776327 0
M  V30 8 C 2.540506 -0.773745 2.424764 0
M  V30 9 N 2.697890 0.385425 3.063913 0
M  V30 10 C 2.002880 1.387391 2.583357 0
M  V30 11 C 1.902178 2.701081 2.966042 0
M  V30 12 C 1.085834 3.569535 2.288535 0
M  V30 13 C 0.398196 3.027708 1.225750 0
M  V30 14 N -0.536579 3.583412 0.305728 0
M  V30 15 C -1.892945 3.302937 0.621637 0
M  V30 16 C -2.287721 2.706128 1.798907 0
M  V30 17 C -3.582435 2.390048 2.151158 0
M  V30 18 C -4.564978 2.701740 1.238799 0
M  V30 19 C -4.229956 3.305380 0.033043 0
M  V30 20 C -2.930776 3.598365 -0.267857 0
M  V30 21 N 0.521961 1.738981 0.880129 0
M  V30 22 C 1.308811 0.847670 1.512116 0
M  V30 23 N 1.681840 -0.468417 1.472812 0
M  V30 24 C 1.028318 -1.120475 0.417431 0
M  V30 25 C 1.433488 -1.257398 -0.923608 0
M  V30 26 C 0.555405 -1.884820 -1.794367 0
M  V30 27 C -0.676223 -2.372659 -1.415099 0
M  V30 28 C -1.392078 -2.972020 -2.563241 0
M  V30 29 N -1.551915 -2.039006 -3.690700 0
M  V30 30 C -2.749492 -3.541236 -2.196345 0
M  V30 31 C -2.457555 -4.634257 -3.243024 0
M  V30 32 C -0.975076 -4.346392 -2.995431 0
M  V30 33 C -1.071023 -2.237644 -0.098856 0
M  V30 34 C -0.228465 -1.619702 0.802516 0
M  V30 35 H 2.980490 -3.275012 0.323065 0
M  V30 36 H 1.448191 -3.901133 0.652145 0
M  V30 37 H 5.170471 -5.127934 4.076655 0
M  V30 38 H 5.353325 -2.981172 5.125856 0
M  V30 39 H 4.226627 -1.037267 4.441500 0
M  V30 40 H 2.461289 3.053171 3.794460 0
M  V30 41 H 0.890536 4.611062 2.449839 0
M  V30 42 H -0.361717 4.158876 -0.555244 0
M  V30 43 H -1.535047 2.445201 2.549825 0
M  V30 44 H -3.811872 1.924285 3.090114 0
M  V30 45 H -5.588836 2.446277 1.525933 0
M  V30 46 H -5.052962 3.522723 -0.639323 0
M  V30 47 H -2.689405 4.067522 -1.210924 0
M  V30 48 H 2.402822 -0.850570 -1.124162 0
M  V30 49 H 1.003968 -1.916924 -2.787159 0
M  V30 50 H -1.491663 -1.055380 -3.335267 0
M  V30 51 H -0.822721 -2.225974 -4.415024 0
M  V30 52 H -2.831658 -4.027540 -1.216470 0
M  V30 53 H -3.606289 -2.903047 -2.491170 0
M  V30 54 H -2.791813 -5.645783 -2.962368 0
M  V30 55 H -2.836298 -4.289894 -4.235748 0
M  V30 56 H -0.625555 -4.973076 -2.167688 0
M  V30 57 H -0.344018 -4.385826 -3.905180 0
M  V30 58 H -2.049980 -2.652191 0.090297 0
M  V30 59 H -0.635903 -1.567486 1.798107 0
M  V30 END ATOM
M  V30 BEGIN BOND
M  V30 1 1 1 2
M  V30 2 2 2 3
M  V30 3 1 3 4
M  V30 4 2 4 5
M  V30 5 1 5 6
M  V30 6 2 6 7
M  V30 7 1 7 8
M  V30 8 2 8 9
M  V30 9 1 9 10
M  V30 10 2 10 11
M  V30 11 1 11 12
M  V30 12 2 12 13
M  V30 13 1 13 14
M  V30 14 1 14 15
M  V30 15 2 15 16
M  V30 16 1 16 17
M  V30 17 2 17 18
M  V30 18 1 18 19
M  V30 19 2 19 20
M  V30 20 1 13 21
M  V30 21 2 21 22
M  V30 22 1 22 23
M  V30 23 1 23 24
M  V30 24 2 24 25
M  V30 25 1 25 26
M  V30 26 2 26 27
M  V30 27 1 27 28
M  V30 28 1 28 29
M  V30 29 1 28 30
M  V30 30 1 30 31
M  V30 31 1 31 32
M  V30 32 1 27 33
M  V30 33 2 33 34
M  V30 34 1 7 2
M  V30 35 1 23 8
M  V30 36 1 34 24
M  V30 37 1 22 10
M  V30 38 1 32 28
M  V30 39 1 20 15
M  V30 40 1 1 35
M  V30 41 1 1 36
M  V30 42 1 4 37
M  V30 43 1 5 38
M  V30 44 1 6 39
M  V30 45 1 11 40
M  V30 46 1 12 41
M  V30 47 1 14 42
M  V30 48 1 16 43
M  V30 49 1 17 44
M  V30 50 1 18 45
M  V30 51 1 19 46
M  V30 52 1 20 47
M  V30 53 1 25 48
M  V30 54 1 26 49
M  V30 55 1 29 50
M  V30 56 1 29 51
M  V30 57 1 30 52
M  V30 58 1 30 53
M  V30 59 1 31 54
M  V30 60 1 31 55
M  V30 61 1 32 56
M  V30 62 1 32 57
M  V30 63 1 33 58
M  V30 64 1 34 59
M  V30 END BOND
M  V30 END CTAB
M  END
>  <Dataset>  (662) 
ChEMBL_Kinases

>  <Ligand_Instance>  (662) 
nan

>  <PDB_ID>  (662) 
nan

>  <Standardized_SMILES>  (662) 
Nc1ncccc1-c1nc2ccc(Nc3ccccc3)nc2n1-c1ccc(C2(N)CCC2)cc1

>  <Name>  (662) 
nan

>  <Pocket>  (662) 
nan

>  <ATP_Site>  (662) 
nan

>  <Peripheral>  (662) 
nan

>  <Num_H_Atoms_ProtBoundConf>  (662) 
nan

>  <Num_Resolved_Atoms>  (662) 
nan

>  <Num_Not_Resolved_Atoms>  (662) 
nan

$$$$
CHEMBL3640740
     RDKit          3D

  0  0  0  0  0  0  0  0  0  0999 V3000
M  V30 BEGIN CTAB
M  V30 COUNTS 87 94 0 0 0
M  V30 BEGIN ATOM
M  V30 1 N 7.216820 -0.030472 -0.206649 0
M  V30 2 C 6.660972 0.325603 1.075050 0
M  V30 3 N 7.585075 0.492589 2.034471 0
M  V30 4 C 7.218736 0.825855 3.279904 0
M  V30 5 C 5.873642 0.996031 3.564298 0
M  V30 6 C 4.968461 0.812702 2.544709 0
M  V30 7 C 5.300049 0.471163 1.256280 0
M  V30 8 C 4.394190 0.263514 0.143968 0
M  V30 9 N 4.851539 -0.069564 -1.068446 0
M  V30 10 C 3.840371 -0.209469 -1.939000 0
M  V30 11 C 3.844345 -0.541874 -3.276743 0
M  V30 12 C 2.610485 -0.604508 -3.893454 0
M  V30 13 C 1.426448 -0.353800 -3.234806 0
M  V30 14 C 0.123630 -0.422422 -3.886034 0
M  V30 15 C -0.049568 -0.746306 -5.211250 0
M  V30 16 C -1.317248 -0.793859 -5.749578 0
M  V30 17 C -2.466227 -0.533683 -5.043509 0
M  V30 18 C -2.271639 -0.211162 -3.721735 0
M  V30 19 N -3.365133 0.079643 -2.826326 0
M  V30 20 C -3.346079 0.748018 -1.561104 0
M  V30 21 C -3.553925 -0.212197 -0.426115 0
M  V30 22 C -4.607052 -1.228571 -0.629525 0
M  V30 23 C -4.016780 -2.591984 -0.507706 0
M  V30 24 O -4.368446 -3.385428 0.429102 0
M  V30 25 N -3.154888 -3.625372 -0.935859 0
M  V30 26 C -3.298301 -4.769633 -0.054818 0
M  V30 27 C -2.380338 -5.837439 -0.657541 0
M  V30 28 O -1.046972 -5.381339 -0.627320 0
M  V30 29 C -0.891330 -4.252140 -1.412826 0
M  V30 30 C -2.193294 -3.769217 -2.028911 0
M  V30 31 C -5.367036 -1.035486 -1.883934 0
M  V30 32 C -4.746369 -0.243560 -2.974413 0
M  V30 33 C -1.012676 -0.154514 -3.148687 0
M  V30 34 N 1.514546 -0.033559 -1.919410 0
M  V30 35 C 2.677610 0.046826 -1.250738 0
M  V30 36 N 3.084749 0.326100 0.002881 0
M  V30 37 C 2.155156 0.646563 1.028466 0
M  V30 38 C 1.767906 1.976613 1.251792 0
M  V30 39 C 0.849551 2.182412 2.269705 0
M  V30 40 C 0.308840 1.183875 3.055088 0
M  V30 41 C -0.646987 1.700364 4.065452 0
M  V30 42 N -1.438255 2.833128 3.575557 0
M  V30 43 C -0.017854 2.077477 5.388562 0
M  V30 44 C -1.214524 1.376201 6.045988 0
M  V30 45 C -1.543462 0.703934 4.706115 0
M  V30 46 C 0.699853 -0.118971 2.822777 0
M  V30 47 C 1.616375 -0.382524 1.816073 0
M  V30 48 H 7.402702 0.911157 -0.636814 0
M  V30 49 H 7.193720 -1.073176 -0.152024 0
M  V30 50 H 7.932760 0.971572 4.096663 0
M  V30 51 H 5.541052 1.266328 4.559545 0
M  V30 52 H 3.951447 0.950628 2.795002 0
M  V30 53 H 4.754073 -0.746159 -3.830248 0
M  V30 54 H 2.616864 -0.865196 -4.940378 0
M  V30 55 H 0.801206 -0.961952 -5.833802 0
M  V30 56 H -1.421652 -1.053520 -6.805968 0
M  V30 57 H -3.452237 -0.569358 -5.455972 0
M  V30 58 H -4.065063 1.618454 -1.488326 0
M  V30 59 H -2.356856 1.243456 -1.360133 0
M  V30 60 H -3.736690 0.362826 0.519755 0
M  V30 61 H -2.564290 -0.727392 -0.202921 0
M  V30 62 H -5.328461 -1.148640 0.231983 0
M  V30 63 H -4.306972 -5.217197 -0.057330 0
M  V30 64 H -2.998920 -4.587690 0.980106 0
M  V30 65 H -2.403438 -6.713012 0.021275 0
M  V30 66 H -2.706835 -6.167372 -1.641623 0
M  V30 67 H -0.529602 -3.449794 -0.738511 0
M  V30 68 H -0.111199 -4.399824 -2.192082 0
M  V30 69 H -1.991236 -2.807337 -2.515991 0
M  V30 70 H -2.589730 -4.481903 -2.774617 0
M  V30 71 H -6.364475 -0.559972 -1.640456 0
M  V30 72 H -5.640406 -2.081461 -2.246061 0
M  V30 73 H -4.820303 -0.850296 -3.927598 0
M  V30 74 H -5.372107 0.662796 -3.220758 0
M  V30 75 H -0.864375 0.100052 -2.101357 0
M  V30 76 H 2.191128 2.754759 0.635971 0
M  V30 77 H 0.611017 3.247195 2.366637 0
M  V30 78 H -0.886615 3.716525 3.757414 0
M  V30 79 H -2.306207 2.904387 4.125851 0
M  V30 80 H 0.937849 1.553094 5.499139 0
M  V30 81 H 0.040309 3.168976 5.583056 0
M  V30 82 H -1.970782 2.127537 6.352478 0
M  V30 83 H -0.947986 0.649018 6.825667 0
M  V30 84 H -1.283996 -0.349114 4.701972 0
M  V30 85 H -2.643931 0.826435 4.490143 0
M  V30 86 H 0.244641 -0.840308 3.463158 0
M  V30 87 H 1.891821 -1.426764 1.671400 0
M  V30 END ATOM
M  V30 BEGIN BOND
M  V30 1 1 1 2
M  V30 2 2 2 3
M  V30 3 1 3 4
M  V30 4 2 4 5
M  V30 5 1 5 6
M  V30 6 2 6 7
M  V30 7 1 7 8
M  V30 8 2 8 9
M  V30 9 1 9 10
M  V30 10 2 10 11
M  V30 11 1 11 12
M  V30 12 2 12 13
M  V30 13 1 13 14
M  V30 14 2 14 15
M  V30 15 1 15 16
M  V30 16 2 16 17
M  V30 17 1 17 18
M  V30 18 1 18 19
M  V30 19 1 19 20
M  V30 20 1 20 21
M  V30 21 1 21 22
M  V30 22 1 22 23
M  V30 23 2 23 24
M  V30 24 1 23 25
M  V30 25 1 25 26
M  V30 26 1 26 27
M  V30 27 1 27 28
M  V30 28 1 28 29
M  V30 29 1 29 30
M  V30 30 1 22 31
M  V30 31 1 31 32
M  V30 32 2 18 33
M  V30 33 1 13 34
M  V30 34 2 34 35
M  V30 35 1 35 36
M  V30 36 1 36 37
M  V30 37 2 37 38
M  V30 38 1 38 39
M  V30 39 2 39 40
M  V30 40 1 40 41
M  V30 41 1 41 42
M  V30 42 1 41 43
M  V30 43 1 43 44
M  V30 44 1 44 45
M  V30 45 1 40 46
M  V30 46 2 46 47
M  V30 47 1 7 2
M  V30 48 1 36 8
M  V30 49 1 47 37
M  V30 50 1 35 10
M  V30 51 1 45 41
M  V30 52 1 33 14
M  V30 53 1 32 19
M  V30 54 1 30 25
M  V30 55 1 1 48
M  V30 56 1 1 49
M  V30 57 1 4 50
M  V30 58 1 5 51
M  V30 59 1 6 52
M  V30 60 1 11 53
M  V30 61 1 12 54
M  V30 62 1 15 55
M  V30 63 1 16 56
M  V30 64 1 17 57
M  V30 65 1 20 58
M  V30 66 1 20 59
M  V30 67 1 21 60
M  V30 68 1 21 61
M  V30 69 1 22 62
M  V30 70 1 26 63
M  V30 71 1 26 64
M  V30 72 1 27 65
M  V30 73 1 27 66
M  V30 74 1 29 67
M  V30 75 1 29 68
M  V30 76 1 30 69
M  V30 77 1 30 70
M  V30 78 1 31 71
M  V30 79 1 31 72
M  V30 80 1 32 73
M  V30 81 1 32 74
M  V30 82 1 33 75
M  V30 83 1 38 76
M  V30 84 1 39 77
M  V30 85 1 42 78
M  V30 86 1 42 79
M  V30 87 1 43 80
M  V30 88 1 43 81
M  V30 89 1 44 82
M  V30 90 1 44 83
M  V30 91 1 45 84
M  V30 92 1 45 85
M  V30 93 1 46 86
M  V30 94 1 47 87
M  V30 END BOND
M  V30 END CTAB
M  END
>  <Dataset>  (663) 
ChEMBL_Kinases

>  <Ligand_Instance>  (663) 
nan

>  <PDB_ID>  (663) 
nan

>  <Standardized_SMILES>  (663) 
Nc1ncccc1-c1nc2ccc(-c3cccc(N4CCC(C(=O)N5CCOCC5)CC4)c3)nc2n1-c1ccc(C2(N)CCC2)cc1

>  <Name>  (663) 
nan

>  <Pocket>  (663) 
nan

>  <ATP_Site>  (663) 
nan

>  <Peripheral>  (663) 
nan

>  <Num_H_Atoms_ProtBoundConf>  (663) 
nan

>  <Num_Resolved_Atoms>  (663) 
nan

>  <Num_Not_Resolved_Atoms>  (663) 
nan

$$$$
CHEMBL3640741
     RDKit          3D

  0  0  0  0  0  0  0  0  0  0999 V3000
M  V30 BEGIN CTAB
M  V30 COUNTS 79 85 0 0 0
M  V30 BEGIN ATOM
M  V30 1 C 1.598890 -8.514448 -0.613622 0
M  V30 2 C 2.218400 -7.221255 -0.235980 0
M  V30 3 O 2.799440 -6.998448 0.833264 0
M  V30 4 N 2.141229 -6.137113 -1.181577 0
M  V30 5 C 2.663256 -4.792901 -1.049398 0
M  V30 6 C 3.662694 -4.489079 -2.138923 0
M  V30 7 C 4.241860 -3.103269 -2.003450 0
M  V30 8 N 3.258983 -2.143416 -1.543623 0
M  V30 9 C 3.780721 -0.934508 -1.007265 0
M  V30 10 C 5.132159 -0.677849 -1.086756 0
M  V30 11 C 5.708837 0.486921 -0.584977 0
M  V30 12 C 4.864792 1.421821 0.020828 0
M  V30 13 C 3.508974 1.214912 0.126136 0
M  V30 14 C 2.590435 2.172556 0.746876 0
M  V30 15 C 2.964673 3.364645 1.271066 0
M  V30 16 C 2.043231 4.249818 1.847650 0
M  V30 17 C 0.703640 3.892769 1.882463 0
M  V30 18 N -0.425377 4.476506 2.344138 0
M  V30 19 C -1.468779 3.659272 2.108692 0
M  V30 20 C -2.809436 4.019409 2.484324 0
M  V30 21 C -3.959038 3.294932 2.308797 0
M  V30 22 C -5.228016 3.677013 2.683489 0
M  V30 23 C -5.363481 4.923931 3.303768 0
M  V30 24 N -4.259184 5.664035 3.493718 0
M  V30 25 C -3.024734 5.253297 3.110593 0
M  V30 26 N -1.977941 6.168653 3.392685 0
M  V30 27 N -0.967562 2.585826 1.505763 0
M  V30 28 C -1.673429 1.440625 1.056828 0
M  V30 29 C -2.117958 1.563121 -0.266247 0
M  V30 30 C -2.802762 0.513592 -0.834396 0
M  V30 31 C -3.085077 -0.665973 -0.181473 0
M  V30 32 C -3.778208 -1.882331 -0.606696 0
M  V30 33 N -4.838411 -2.249478 0.308980 0
M  V30 34 C -4.210974 -1.802208 -2.049585 0
M  V30 35 C -3.856126 -3.275546 -2.164663 0
M  V30 36 C -2.897468 -3.041994 -1.006598 0
M  V30 37 C -2.630415 -0.762061 1.139735 0
M  V30 38 C -1.939767 0.257673 1.758789 0
M  V30 39 C 0.379102 2.685799 1.343566 0
M  V30 40 N 1.293139 1.884940 0.809203 0
M  V30 41 C 3.039740 0.050424 -0.391956 0
M  V30 42 C 1.880614 -2.480117 -1.677147 0
M  V30 43 C 1.510699 -3.831060 -1.139801 0
M  V30 44 H 1.004734 -8.906692 0.229727 0
M  V30 45 H 0.859913 -8.369432 -1.443557 0
M  V30 46 H 2.330591 -9.291177 -0.891951 0
M  V30 47 H 1.645854 -6.321095 -2.099205 0
M  V30 48 H 3.158100 -4.722892 -0.052967 0
M  V30 49 H 3.152673 -4.564500 -3.120581 0
M  V30 50 H 4.445363 -5.268095 -2.098644 0
M  V30 51 H 5.074176 -3.199325 -1.271100 0
M  V30 52 H 4.629076 -2.742998 -2.976852 0
M  V30 53 H 5.847380 -1.335448 -1.533211 0
M  V30 54 H 6.756937 0.702189 -0.638748 0
M  V30 55 H 5.299625 2.326798 0.412025 0
M  V30 56 H 4.007009 3.654996 1.248546 0
M  V30 57 H 2.352618 5.203010 2.266579 0
M  V30 58 H -3.892346 2.347600 1.842983 0
M  V30 59 H -6.086861 3.045421 2.508169 0
M  V30 60 H -6.322135 5.300803 3.629641 0
M  V30 61 H -1.791505 7.100149 3.012782 0
M  V30 62 H -1.292842 5.835575 4.099581 0
M  V30 63 H -1.959030 2.434493 -0.878672 0
M  V30 64 H -3.176770 0.538060 -1.845420 0
M  V30 65 H -4.632143 -1.795362 1.224301 0
M  V30 66 H -4.784620 -3.274094 0.459921 0
M  V30 67 H -5.295390 -1.586514 -2.097418 0
M  V30 68 H -3.603060 -1.204292 -2.731010 0
M  V30 69 H -4.742270 -3.888959 -1.944980 0
M  V30 70 H -3.341169 -3.502434 -3.124604 0
M  V30 71 H -2.935127 -3.934873 -0.351434 0
M  V30 72 H -1.912770 -2.785711 -1.403612 0
M  V30 73 H -2.719785 -1.579222 1.873164 0
M  V30 74 H -1.540027 0.319505 2.745063 0
M  V30 75 H 1.961762 -0.119639 -0.309311 0
M  V30 76 H 1.617201 -2.474195 -2.778873 0
M  V30 77 H 1.179876 -1.748143 -1.217916 0
M  V30 78 H 1.012006 -3.770295 -0.152738 0
M  V30 79 H 0.742047 -4.318929 -1.803093 0
M  V30 END ATOM
M  V30 BEGIN BOND
M  V30 1 1 1 2
M  V30 2 2 2 3
M  V30 3 1 2 4
M  V30 4 1 4 5
M  V30 5 1 5 6
M  V30 6 1 6 7
M  V30 7 1 7 8
M  V30 8 1 8 9
M  V30 9 2 9 10
M  V30 10 1 10 11
M  V30 11 2 11 12
M  V30 12 1 12 13
M  V30 13 1 13 14
M  V30 14 2 14 15
M  V30 15 1 15 16
M  V30 16 2 16 17
M  V30 17 1 17 18
M  V30 18 2 18 19
M  V30 19 1 19 20
M  V30 20 2 20 21
M  V30 21 1 21 22
M  V30 22 2 22 23
M  V30 23 1 23 24
M  V30 24 2 24 25
M  V30 25 1 25 26
M  V30 26 1 19 27
M  V30 27 1 27 28
M  V30 28 2 28 29
M  V30 29 1 29 30
M  V30 30 2 30 31
M  V30 31 1 31 32
M  V30 32 1 32 33
M  V30 33 1 32 34
M  V30 34 1 34 35
M  V30 35 1 35 36
M  V30 36 1 31 37
M  V30 37 2 37 38
M  V30 38 1 27 39
M  V30 39 2 39 40
M  V30 40 2 13 41
M  V30 41 1 8 42
M  V30 42 1 42 43
M  V30 43 1 43 5
M  V30 44 1 41 9
M  V30 45 1 40 14
M  V30 46 1 39 17
M  V30 47 1 25 20
M  V30 48 1 38 28
M  V30 49 1 36 32
M  V30 50 1 1 44
M  V30 51 1 1 45
M  V30 52 1 1 46
M  V30 53 1 4 47
M  V30 54 1 5 48
M  V30 55 1 6 49
M  V30 56 1 6 50
M  V30 57 1 7 51
M  V30 58 1 7 52
M  V30 59 1 10 53
M  V30 60 1 11 54
M  V30 61 1 12 55
M  V30 62 1 15 56
M  V30 63 1 16 57
M  V30 64 1 21 58
M  V30 65 1 22 59
M  V30 66 1 23 60
M  V30 67 1 26 61
M  V30 68 1 26 62
M  V30 69 1 29 63
M  V30 70 1 30 64
M  V30 71 1 33 65
M  V30 72 1 33 66
M  V30 73 1 34 67
M  V30 74 1 34 68
M  V30 75 1 35 69
M  V30 76 1 35 70
M  V30 77 1 36 71
M  V30 78 1 36 72
M  V30 79 1 37 73
M  V30 80 1 38 74
M  V30 81 1 41 75
M  V30 82 1 42 76
M  V30 83 1 42 77
M  V30 84 1 43 78
M  V30 85 1 43 79
M  V30 END BOND
M  V30 END CTAB
M  END
>  <Dataset>  (664) 
ChEMBL_Kinases

>  <Ligand_Instance>  (664) 
nan

>  <PDB_ID>  (664) 
nan

>  <Standardized_SMILES>  (664) 
CC(=O)NC1CCN(c2cccc(-c3ccc4nc(-c5cccnc5N)n(-c5ccc(C6(N)CCC6)cc5)c4n3)c2)CC1

>  <Name>  (664) 
nan

>  <Pocket>  (664) 
nan

>  <ATP_Site>  (664) 
nan

>  <Peripheral>  (664) 
nan

>  <Num_H_Atoms_ProtBoundConf>  (664) 
nan

>  <Num_Resolved_Atoms>  (664) 
nan

>  <Num_Not_Resolved_Atoms>  (664) 
nan

$$$$
CHEMBL3640742
     RDKit          3D

  0  0  0  0  0  0  0  0  0  0999 V3000
M  V30 BEGIN CTAB
M  V30 COUNTS 79 85 0 0 0
M  V30 BEGIN ATOM
M  V30 1 C 2.987539 -6.337901 -3.856014 0
M  V30 2 C 3.268182 -6.671695 -2.409409 0
M  V30 3 C 4.316536 -5.866429 -1.787394 0
M  V30 4 O 4.441773 -6.220670 -0.573904 0
M  V30 5 N 5.256756 -4.830656 -2.023904 0
M  V30 6 C 6.074519 -4.460563 -0.887208 0
M  V30 7 C 5.758356 -3.024468 -0.442398 0
M  V30 8 N 5.015889 -2.412799 -1.520918 0
M  V30 9 C 3.751483 -1.767836 -1.410033 0
M  V30 10 C 3.097773 -1.247383 -2.498529 0
M  V30 11 C 1.873392 -0.621203 -2.402396 0
M  V30 12 C 1.282948 -0.514694 -1.155011 0
M  V30 13 C 1.891465 -1.020852 -0.009536 0
M  V30 14 C 1.227091 -0.887153 1.279993 0
M  V30 15 C 1.755106 -1.357698 2.436808 0
M  V30 16 C 1.045223 -1.189482 3.632996 0
M  V30 17 C -0.162947 -0.533835 3.480571 0
M  V30 18 N -1.028976 -0.246891 4.451324 0
M  V30 19 C -2.122643 0.395225 4.024806 0
M  V30 20 C -3.172347 0.793492 4.888865 0
M  V30 21 C -3.047382 0.496645 6.241804 0
M  V30 22 C -3.995607 0.830169 7.175439 0
M  V30 23 C -5.142704 1.482871 6.850320 0
M  V30 24 N -5.292786 1.782705 5.554483 0
M  V30 25 C -4.348165 1.442529 4.672739 0
M  V30 26 N -4.700170 1.846201 3.381132 0
M  V30 27 N -1.895596 0.493120 2.746953 0
M  V30 28 C -2.603417 1.047316 1.664939 0
M  V30 29 C -2.308037 2.384297 1.343323 0
M  V30 30 C -2.855949 3.068863 0.298492 0
M  V30 31 C -3.757511 2.458598 -0.519463 0
M  V30 32 C -4.462183 3.010374 -1.693024 0
M  V30 33 N -5.898774 2.797413 -1.677206 0
M  V30 34 C -4.153343 4.434836 -2.051289 0
M  V30 35 C -4.197799 4.009214 -3.509312 0
M  V30 36 C -3.817139 2.609763 -3.013750 0
M  V30 37 C -4.087886 1.135702 -0.248526 0
M  V30 38 C -3.536499 0.445403 0.803229 0
M  V30 39 C -0.731951 -0.044542 2.339704 0
M  V30 40 N 0.037390 -0.263037 1.257773 0
M  V30 41 C 3.111636 -1.627829 -0.210499 0
M  V30 42 C 5.730786 -2.537199 -2.768971 0
M  V30 43 C 5.619849 -4.014580 -3.170000 0
M  V30 44 H 2.787789 -5.256128 -3.997875 0
M  V30 45 H 3.690523 -6.780443 -4.563173 0
M  V30 46 H 1.990337 -6.820458 -4.073650 0
M  V30 47 H 2.319494 -6.518309 -1.850136 0
M  V30 48 H 3.478667 -7.771929 -2.355150 0
M  V30 49 H 7.155311 -4.543284 -1.201375 0
M  V30 50 H 5.919716 -5.092439 -0.014470 0
M  V30 51 H 5.273420 -3.008157 0.534138 0
M  V30 52 H 6.746564 -2.474238 -0.420154 0
M  V30 53 H 3.479277 -1.288123 -3.489442 0
M  V30 54 H 1.354423 -0.210266 -3.250512 0
M  V30 55 H 0.305301 -0.009740 -1.103217 0
M  V30 56 H 2.700738 -1.859262 2.485128 0
M  V30 57 H 1.386663 -1.528324 4.586120 0
M  V30 58 H -2.165861 -0.030483 6.645896 0
M  V30 59 H -3.816999 0.562626 8.190818 0
M  V30 60 H -5.837838 1.709008 7.635156 0
M  V30 61 H -4.304600 2.809767 3.314597 0
M  V30 62 H -5.227181 0.998017 3.013835 0
M  V30 63 H -1.605386 2.930708 1.944525 0
M  V30 64 H -2.630199 4.087048 0.052267 0
M  V30 65 H -6.169737 2.064973 -2.349185 0
M  V30 66 H -6.211857 2.624120 -0.696783 0
M  V30 67 H -3.166007 4.815231 -1.770297 0
M  V30 68 H -4.966944 5.165440 -1.856478 0
M  V30 69 H -5.242539 4.029958 -3.934424 0
M  V30 70 H -3.429875 4.486832 -4.115801 0
M  V30 71 H -4.278358 1.780998 -3.548407 0
M  V30 72 H -2.716105 2.511619 -2.923036 0
M  V30 73 H -4.791182 0.539115 -0.824441 0
M  V30 74 H -3.743467 -0.579874 1.074782 0
M  V30 75 H 3.559922 -2.009543 0.689255 0
M  V30 76 H 5.353692 -1.909795 -3.586997 0
M  V30 77 H 6.808074 -2.281827 -2.559309 0
M  V30 78 H 4.864846 -4.063475 -3.971576 0
M  V30 79 H 6.625950 -4.320986 -3.493827 0
M  V30 END ATOM
M  V30 BEGIN BOND
M  V30 1 1 1 2
M  V30 2 1 2 3
M  V30 3 2 3 4
M  V30 4 1 3 5
M  V30 5 1 5 6
M  V30 6 1 6 7
M  V30 7 1 7 8
M  V30 8 1 8 9
M  V30 9 2 9 10
M  V30 10 1 10 11
M  V30 11 2 11 12
M  V30 12 1 12 13
M  V30 13 1 13 14
M  V30 14 2 14 15
M  V30 15 1 15 16
M  V30 16 2 16 17
M  V30 17 1 17 18
M  V30 18 2 18 19
M  V30 19 1 19 20
M  V30 20 2 20 21
M  V30 21 1 21 22
M  V30 22 2 22 23
M  V30 23 1 23 24
M  V30 24 2 24 25
M  V30 25 1 25 26
M  V30 26 1 19 27
M  V30 27 1 27 28
M  V30 28 2 28 29
M  V30 29 1 29 30
M  V30 30 2 30 31
M  V30 31 1 31 32
M  V30 32 1 32 33
M  V30 33 1 32 34
M  V30 34 1 34 35
M  V30 35 1 35 36
M  V30 36 1 31 37
M  V30 37 2 37 38
M  V30 38 1 27 39
M  V30 39 2 39 40
M  V30 40 2 13 41
M  V30 41 1 8 42
M  V30 42 1 42 43
M  V30 43 1 43 5
M  V30 44 1 41 9
M  V30 45 1 40 14
M  V30 46 1 39 17
M  V30 47 1 25 20
M  V30 48 1 38 28
M  V30 49 1 36 32
M  V30 50 1 1 44
M  V30 51 1 1 45
M  V30 52 1 1 46
M  V30 53 1 2 47
M  V30 54 1 2 48
M  V30 55 1 6 49
M  V30 56 1 6 50
M  V30 57 1 7 51
M  V30 58 1 7 52
M  V30 59 1 10 53
M  V30 60 1 11 54
M  V30 61 1 12 55
M  V30 62 1 15 56
M  V30 63 1 16 57
M  V30 64 1 21 58
M  V30 65 1 22 59
M  V30 66 1 23 60
M  V30 67 1 26 61
M  V30 68 1 26 62
M  V30 69 1 29 63
M  V30 70 1 30 64
M  V30 71 1 33 65
M  V30 72 1 33 66
M  V30 73 1 34 67
M  V30 74 1 34 68
M  V30 75 1 35 69
M  V30 76 1 35 70
M  V30 77 1 36 71
M  V30 78 1 36 72
M  V30 79 1 37 73
M  V30 80 1 38 74
M  V30 81 1 41 75
M  V30 82 1 42 76
M  V30 83 1 42 77
M  V30 84 1 43 78
M  V30 85 1 43 79
M  V30 END BOND
M  V30 END CTAB
M  END
>  <Dataset>  (665) 
ChEMBL_Kinases

>  <Ligand_Instance>  (665) 
nan

>  <PDB_ID>  (665) 
nan

>  <Standardized_SMILES>  (665) 
CCC(=O)N1CCN(c2cccc(-c3ccc4nc(-c5cccnc5N)n(-c5ccc(C6(N)CCC6)cc5)c4n3)c2)CC1

>  <Name>  (665) 
nan

>  <Pocket>  (665) 
nan

>  <ATP_Site>  (665) 
nan

>  <Peripheral>  (665) 
nan

>  <Num_H_Atoms_ProtBoundConf>  (665) 
nan

>  <Num_Resolved_Atoms>  (665) 
nan

>  <Num_Not_Resolved_Atoms>  (665) 
nan

$$$$
CHEMBL3640743
     RDKit          3D

  0  0  0  0  0  0  0  0  0  0999 V3000
M  V30 BEGIN CTAB
M  V30 COUNTS 80 87 0 0 0
M  V30 BEGIN ATOM
M  V30 1 N -1.991338 6.090864 3.375553 0
M  V30 2 C -0.772863 5.452558 3.804216 0
M  V30 3 N -0.145793 6.094700 4.828670 0
M  V30 4 C 1.003461 5.658719 5.371492 0
M  V30 5 C 1.558436 4.507650 4.854641 0
M  V30 6 C 0.909347 3.872094 3.818379 0
M  V30 7 C -0.261824 4.300564 3.252350 0
M  V30 8 C -0.988966 3.682836 2.160959 0
M  V30 9 N -2.131858 4.194585 1.673632 0
M  V30 10 C -2.601304 3.441087 0.676651 0
M  V30 11 C -3.700215 3.501774 -0.152867 0
M  V30 12 C -3.892736 2.529730 -1.113169 0
M  V30 13 C -3.002596 1.490707 -1.262289 0
M  V30 14 C -3.168190 0.436936 -2.257299 0
M  V30 15 C -4.216837 0.384410 -3.149551 0
M  V30 16 C -4.328256 -0.643051 -4.066931 0
M  V30 17 C -3.364782 -1.643162 -4.090303 0
M  V30 18 C -2.280088 -1.636623 -3.205103 0
M  V30 19 N -1.289818 -2.667455 -3.226957 0
M  V30 20 C -1.451683 -3.617969 -4.304807 0
M  V30 21 C -0.332258 -4.655050 -4.126179 0
M  V30 22 N -0.206229 -5.003782 -2.733220 0
M  V30 23 C -0.694276 -6.264399 -2.344637 0
M  V30 24 O -1.154758 -6.852100 -3.356012 0
M  V30 25 C -1.030056 -7.400151 -1.462901 0
M  V30 26 C -1.465005 -7.049397 -0.037185 0
M  V30 27 C -0.156532 -7.699341 -0.250553 0
M  V30 28 C 0.428733 -3.920167 -2.012380 0
M  V30 29 C -0.285093 -2.620747 -2.182492 0
M  V30 30 C -2.242817 -0.579202 -2.324544 0
M  V30 31 N -1.945112 1.471667 -0.431277 0
M  V30 32 C -1.712484 2.394149 0.519649 0
M  V30 33 N -0.744072 2.580560 1.444554 0
M  V30 34 C 0.323988 1.680555 1.545224 0
M  V30 35 C 1.454815 1.926320 0.752477 0
M  V30 36 C 2.526906 1.031714 0.822956 0
M  V30 37 C 2.562337 -0.093017 1.623980 0
M  V30 38 C 3.786060 -0.854823 1.500510 0
M  V30 39 N 4.016456 -1.300117 0.115295 0
M  V30 40 C 3.840445 -2.037623 2.443243 0
M  V30 41 C 5.337068 -1.730437 2.576539 0
M  V30 42 C 5.062659 -0.316730 2.085047 0
M  V30 43 C 1.439388 -0.313262 2.394315 0
M  V30 44 C 0.358649 0.539431 2.359144 0
M  V30 45 H -2.148760 6.736664 2.570917 0
M  V30 46 H -2.766984 5.798473 4.029878 0
M  V30 47 H 1.485663 6.181940 6.185485 0
M  V30 48 H 2.479557 4.101911 5.241907 0
M  V30 49 H 1.366659 2.976262 3.432587 0
M  V30 50 H -4.388403 4.300516 -0.040763 0
M  V30 51 H -4.753609 2.606809 -1.737829 0
M  V30 52 H -4.971536 1.156997 -3.139856 0
M  V30 53 H -5.163057 -0.683353 -4.776993 0
M  V30 54 H -3.476217 -2.435510 -4.818130 0
M  V30 55 H -2.423408 -4.110630 -4.347245 0
M  V30 56 H -1.229381 -3.088110 -5.256770 0
M  V30 57 H -0.583466 -5.532314 -4.745932 0
M  V30 58 H 0.642667 -4.249554 -4.528496 0
M  V30 59 H -1.509253 -8.294519 -1.928180 0
M  V30 60 H -2.315746 -7.643663 0.326006 0
M  V30 61 H -1.520431 -5.962098 0.213559 0
M  V30 62 H -0.080754 -8.773494 0.065008 0
M  V30 63 H 0.785712 -7.137095 -0.204366 0
M  V30 64 H 1.485433 -3.842485 -2.368561 0
M  V30 65 H 0.490319 -4.229967 -0.941740 0
M  V30 66 H -0.808059 -2.415242 -1.206811 0
M  V30 67 H 0.427948 -1.819731 -2.394910 0
M  V30 68 H -1.420046 -0.534793 -1.624787 0
M  V30 69 H 1.457941 2.794187 0.117388 0
M  V30 70 H 3.340174 1.327949 0.165918 0
M  V30 71 H 4.253906 -2.303128 0.062369 0
M  V30 72 H 4.787346 -0.734136 -0.319710 0
M  V30 73 H 3.315393 -1.916425 3.409850 0
M  V30 74 H 3.596575 -3.004713 1.998286 0
M  V30 75 H 5.867028 -2.380723 1.864973 0
M  V30 76 H 5.710569 -1.837323 3.591738 0
M  V30 77 H 5.004046 0.447576 2.855526 0
M  V30 78 H 5.823024 -0.053707 1.322617 0
M  V30 79 H 1.475206 -1.195038 3.015096 0
M  V30 80 H -0.515548 0.354917 2.966958 0
M  V30 END ATOM
M  V30 BEGIN BOND
M  V30 1 1 1 2
M  V30 2 2 2 3
M  V30 3 1 3 4
M  V30 4 2 4 5
M  V30 5 1 5 6
M  V30 6 2 6 7
M  V30 7 1 7 8
M  V30 8 2 8 9
M  V30 9 1 9 10
M  V30 10 2 10 11
M  V30 11 1 11 12
M  V30 12 2 12 13
M  V30 13 1 13 14
M  V30 14 2 14 15
M  V30 15 1 15 16
M  V30 16 2 16 17
M  V30 17 1 17 18
M  V30 18 1 18 19
M  V30 19 1 19 20
M  V30 20 1 20 21
M  V30 21 1 21 22
M  V30 22 1 22 23
M  V30 23 2 23 24
M  V30 24 1 23 25
M  V30 25 1 25 26
M  V30 26 1 26 27
M  V30 27 1 22 28
M  V30 28 1 28 29
M  V30 29 2 18 30
M  V30 30 1 13 31
M  V30 31 2 31 32
M  V30 32 1 32 33
M  V30 33 1 33 34
M  V30 34 2 34 35
M  V30 35 1 35 36
M  V30 36 2 36 37
M  V30 37 1 37 38
M  V30 38 1 38 39
M  V30 39 1 38 40
M  V30 40 1 40 41
M  V30 41 1 41 42
M  V30 42 1 37 43
M  V30 43 2 43 44
M  V30 44 1 7 2
M  V30 45 1 33 8
M  V30 46 1 44 34
M  V30 47 1 32 10
M  V30 48 1 42 38
M  V30 49 1 30 14
M  V30 50 1 29 19
M  V30 51 1 27 25
M  V30 52 1 1 45
M  V30 53 1 1 46
M  V30 54 1 4 47
M  V30 55 1 5 48
M  V30 56 1 6 49
M  V30 57 1 11 50
M  V30 58 1 12 51
M  V30 59 1 15 52
M  V30 60 1 16 53
M  V30 61 1 17 54
M  V30 62 1 20 55
M  V30 63 1 20 56
M  V30 64 1 21 57
M  V30 65 1 21 58
M  V30 66 1 25 59
M  V30 67 1 26 60
M  V30 68 1 26 61
M  V30 69 1 27 62
M  V30 70 1 27 63
M  V30 71 1 28 64
M  V30 72 1 28 65
M  V30 73 1 29 66
M  V30 74 1 29 67
M  V30 75 1 30 68
M  V30 76 1 35 69
M  V30 77 1 36 70
M  V30 78 1 39 71
M  V30 79 1 39 72
M  V30 80 1 40 73
M  V30 81 1 40 74
M  V30 82 1 41 75
M  V30 83 1 41 76
M  V30 84 1 42 77
M  V30 85 1 42 78
M  V30 86 1 43 79
M  V30 87 1 44 80
M  V30 END BOND
M  V30 END CTAB
M  END
>  <Dataset>  (666) 
ChEMBL_Kinases

>  <Ligand_Instance>  (666) 
nan

>  <PDB_ID>  (666) 
nan

>  <Standardized_SMILES>  (666) 
Nc1ncccc1-c1nc2ccc(-c3cccc(N4CCN(C(=O)C5CC5)CC4)c3)nc2n1-c1ccc(C2(N)CCC2)cc1

>  <Name>  (666) 
nan

>  <Pocket>  (666) 
nan

>  <ATP_Site>  (666) 
nan

>  <Peripheral>  (666) 
nan

>  <Num_H_Atoms_ProtBoundConf>  (666) 
nan

>  <Num_Resolved_Atoms>  (666) 
nan

>  <Num_Not_Resolved_Atoms>  (666) 
nan

$$$$
CHEMBL3640744
     RDKit          3D

  0  0  0  0  0  0  0  0  0  0999 V3000
M  V30 BEGIN CTAB
M  V30 COUNTS 82 88 0 0 0
M  V30 BEGIN ATOM
M  V30 1 C -2.286849 -3.832337 -5.919551 0
M  V30 2 C -1.653387 -3.843188 -4.541450 0
M  V30 3 C -1.239445 -5.256559 -4.203762 0
M  V30 4 C -0.508735 -2.926948 -4.416861 0
M  V30 5 O 0.635562 -3.414274 -4.120290 0
M  V30 6 N -0.326007 -1.534857 -4.549391 0
M  V30 7 C 1.050446 -1.072839 -4.307936 0
M  V30 8 C 1.001209 0.073646 -3.301814 0
M  V30 9 N 0.077924 1.095181 -3.788836 0
M  V30 10 C -0.175438 2.294863 -3.067291 0
M  V30 11 C -0.519928 3.394440 -3.830862 0
M  V30 12 C -0.786287 4.582031 -3.142417 0
M  V30 13 C -0.690804 4.585312 -1.767596 0
M  V30 14 C -0.351795 3.501026 -1.008980 0
M  V30 15 C -0.251208 3.514346 0.445568 0
M  V30 16 C -0.460753 4.650419 1.194664 0
M  V30 17 C -0.359779 4.680015 2.566716 0
M  V30 18 C -0.032222 3.489289 3.178923 0
M  V30 19 N 0.134043 3.152347 4.469142 0
M  V30 20 C 0.438856 1.857871 4.591112 0
M  V30 21 C 0.658483 1.242913 5.881831 0
M  V30 22 C 0.972094 -0.058757 6.151178 0
M  V30 23 C 1.149206 -0.504324 7.448512 0
M  V30 24 C 1.025761 0.319737 8.567471 0
M  V30 25 N 0.721953 1.572357 8.278116 0
M  V30 26 C 0.550426 2.003887 7.023566 0
M  V30 27 N 0.230202 3.385644 6.967840 0
M  V30 28 N 0.463071 1.373793 3.349616 0
M  V30 29 C 0.704317 0.041905 2.954614 0
M  V30 30 C -0.528246 -0.639905 2.969114 0
M  V30 31 C -0.608075 -1.995929 2.604441 0
M  V30 32 C 0.534110 -2.711195 2.216769 0
M  V30 33 C 0.384770 -4.117489 1.852512 0
M  V30 34 N -0.696315 -4.737145 2.599140 0
M  V30 35 C 0.125262 -4.364161 0.363461 0
M  V30 36 C 1.608516 -4.668627 0.234159 0
M  V30 37 C 1.630405 -4.923084 1.733969 0
M  V30 38 C 1.722487 -2.012265 2.213869 0
M  V30 39 C 1.810226 -0.689899 2.567143 0
M  V30 40 C 0.182208 2.339430 2.459923 0
M  V30 41 N 0.068233 2.386035 1.119978 0
M  V30 42 C -0.088638 2.323253 -1.689947 0
M  V30 43 C -0.620827 0.843440 -5.057904 0
M  V30 44 C -1.289086 -0.514197 -4.881559 0
M  V30 45 H -1.519870 -3.521556 -6.679458 0
M  V30 46 H -3.130876 -3.097224 -5.981825 0
M  V30 47 H -2.672568 -4.813110 -6.233175 0
M  V30 48 H -2.443651 -3.495093 -3.826905 0
M  V30 49 H -1.873107 -6.023500 -4.711035 0
M  V30 50 H -1.348989 -5.455181 -3.119058 0
M  V30 51 H -0.177795 -5.420965 -4.488185 0
M  V30 52 H 1.731454 -1.844010 -3.971698 0
M  V30 53 H 1.386075 -0.686674 -5.310979 0
M  V30 54 H 0.703761 -0.347083 -2.325395 0
M  V30 55 H 2.032980 0.439614 -3.210234 0
M  V30 56 H -0.599114 3.410655 -4.886045 0
M  V30 57 H -1.061093 5.461432 -3.716148 0
M  V30 58 H -0.908735 5.528902 -1.293790 0
M  V30 59 H -0.726631 5.592233 0.726962 0
M  V30 60 H -0.510789 5.536195 3.197690 0
M  V30 61 H 1.081615 -0.750044 5.329506 0
M  V30 62 H 1.396114 -1.553686 7.552431 0
M  V30 63 H 1.193526 -0.182998 9.503153 0
M  V30 64 H -0.813220 3.455892 6.996507 0
M  V30 65 H 0.132075 4.415695 6.922382 0
M  V30 66 H -1.501068 -0.250685 3.243959 0
M  V30 67 H -1.548726 -2.550712 2.606573 0
M  V30 68 H -0.424718 -5.615760 3.060556 0
M  V30 69 H -1.592120 -4.776060 2.059272 0
M  V30 70 H -0.544806 -5.213401 0.143096 0
M  V30 71 H -0.222951 -3.459644 -0.139691 0
M  V30 72 H 2.243225 -3.813863 -0.095985 0
M  V30 73 H 1.754891 -5.593500 -0.344216 0
M  V30 74 H 2.470864 -4.480113 2.277497 0
M  V30 75 H 1.494576 -5.993174 2.008046 0
M  V30 76 H 2.637193 -2.499621 1.921895 0
M  V30 77 H 2.678500 -0.054420 2.595548 0
M  V30 78 H 0.184248 1.425635 -1.130491 0
M  V30 79 H 0.088037 0.747030 -5.900790 0
M  V30 80 H -1.417176 1.595634 -5.224244 0
M  V30 81 H -2.109254 -0.467505 -4.138409 0
M  V30 82 H -1.774204 -0.793695 -5.850500 0
M  V30 END ATOM
M  V30 BEGIN BOND
M  V30 1 1 1 2
M  V30 2 1 2 3
M  V30 3 1 2 4
M  V30 4 2 4 5
M  V30 5 1 4 6
M  V30 6 1 6 7
M  V30 7 1 7 8
M  V30 8 1 8 9
M  V30 9 1 9 10
M  V30 10 2 10 11
M  V30 11 1 11 12
M  V30 12 2 12 13
M  V30 13 1 13 14
M  V30 14 1 14 15
M  V30 15 2 15 16
M  V30 16 1 16 17
M  V30 17 2 17 18
M  V30 18 1 18 19
M  V30 19 2 19 20
M  V30 20 1 20 21
M  V30 21 2 21 22
M  V30 22 1 22 23
M  V30 23 2 23 24
M  V30 24 1 24 25
M  V30 25 2 25 26
M  V30 26 1 26 27
M  V30 27 1 20 28
M  V30 28 1 28 29
M  V30 29 2 29 30
M  V30 30 1 30 31
M  V30 31 2 31 32
M  V30 32 1 32 33
M  V30 33 1 33 34
M  V30 34 1 33 35
M  V30 35 1 35 36
M  V30 36 1 36 37
M  V30 37 1 32 38
M  V30 38 2 38 39
M  V30 39 1 28 40
M  V30 40 2 40 41
M  V30 41 2 14 42
M  V30 42 1 9 43
M  V30 43 1 43 44
M  V30 44 1 44 6
M  V30 45 1 42 10
M  V30 46 1 41 15
M  V30 47 1 40 18
M  V30 48 1 26 21
M  V30 49 1 39 29
M  V30 50 1 37 33
M  V30 51 1 1 45
M  V30 52 1 1 46
M  V30 53 1 1 47
M  V30 54 1 2 48
M  V30 55 1 3 49
M  V30 56 1 3 50
M  V30 57 1 3 51
M  V30 58 1 7 52
M  V30 59 1 7 53
M  V30 60 1 8 54
M  V30 61 1 8 55
M  V30 62 1 11 56
M  V30 63 1 12 57
M  V30 64 1 13 58
M  V30 65 1 16 59
M  V30 66 1 17 60
M  V30 67 1 22 61
M  V30 68 1 23 62
M  V30 69 1 24 63
M  V30 70 1 27 64
M  V30 71 1 27 65
M  V30 72 1 30 66
M  V30 73 1 31 67
M  V30 74 1 34 68
M  V30 75 1 34 69
M  V30 76 1 35 70
M  V30 77 1 35 71
M  V30 78 1 36 72
M  V30 79 1 36 73
M  V30 80 1 37 74
M  V30 81 1 37 75
M  V30 82 1 38 76
M  V30 83 1 39 77
M  V30 84 1 42 78
M  V30 85 1 43 79
M  V30 86 1 43 80
M  V30 87 1 44 81
M  V30 88 1 44 82
M  V30 END BOND
M  V30 END CTAB
M  END
>  <Dataset>  (667) 
ChEMBL_Kinases

>  <Ligand_Instance>  (667) 
nan

>  <PDB_ID>  (667) 
nan

>  <Standardized_SMILES>  (667) 
CC(C)C(=O)N1CCN(c2cccc(-c3ccc4nc(-c5cccnc5N)n(-c5ccc(C6(N)CCC6)cc5)c4n3)c2)CC1

>  <Name>  (667) 
nan

>  <Pocket>  (667) 
nan

>  <ATP_Site>  (667) 
nan

>  <Peripheral>  (667) 
nan

>  <Num_H_Atoms_ProtBoundConf>  (667) 
nan

>  <Num_Resolved_Atoms>  (667) 
nan

>  <Num_Not_Resolved_Atoms>  (667) 
nan

$$$$
CHEMBL3640745
     RDKit          3D

  0  0  0  0  0  0  0  0  0  0999 V3000
M  V30 BEGIN CTAB
M  V30 COUNTS 85 91 0 0 0
M  V30 BEGIN ATOM
M  V30 1 C -2.171096 -2.672403 -3.923791 0
M  V30 2 C -1.794689 -2.224654 -5.318611 0
M  V30 3 C -0.342157 -2.551397 -5.606170 0
M  V30 4 C -2.625631 -3.044181 -6.287730 0
M  V30 5 C -2.110049 -0.787763 -5.540763 0
M  V30 6 O -2.938309 -0.461680 -6.458073 0
M  V30 7 N -1.507071 0.252232 -4.750948 0
M  V30 8 C -0.561052 0.172996 -3.683811 0
M  V30 9 C -1.189431 0.573353 -2.398213 0
M  V30 10 N -1.863659 1.843010 -2.572824 0
M  V30 11 C -2.507180 2.372488 -1.414452 0
M  V30 12 C -3.517372 3.313048 -1.459709 0
M  V30 13 C -4.147316 3.864150 -0.363907 0
M  V30 14 C -3.752269 3.457329 0.892292 0
M  V30 15 C -2.749012 2.522271 1.019281 0
M  V30 16 C -2.280249 2.065906 2.324940 0
M  V30 17 C -2.801088 2.532600 3.508596 0
M  V30 18 C -2.324144 2.078682 4.745502 0
M  V30 19 C -1.302654 1.137339 4.783410 0
M  V30 20 N -0.630159 0.517291 5.764430 0
M  V30 21 C 0.282071 -0.310227 5.226479 0
M  V30 22 C 1.157483 -1.106379 6.031341 0
M  V30 23 C 2.134273 -1.978565 5.603190 0
M  V30 24 C 2.951043 -2.712943 6.454161 0
M  V30 25 C 2.788154 -2.571356 7.842393 0
M  V30 26 N 1.842880 -1.726600 8.264182 0
M  V30 27 C 1.080759 -1.042350 7.397433 0
M  V30 28 N 0.128451 -0.194241 8.050906 0
M  V30 29 N 0.182562 -0.211327 3.896377 0
M  V30 30 C 0.887355 -0.850232 2.874358 0
M  V30 31 C 2.020040 -0.189138 2.390931 0
M  V30 32 C 2.827249 -0.656804 1.371232 0
M  V30 33 C 2.529834 -1.843577 0.769122 0
M  V30 34 C 3.242946 -2.517131 -0.344427 0
M  V30 35 N 2.332776 -3.240386 -1.252158 0
M  V30 36 C 4.369264 -3.361700 0.175257 0
M  V30 37 C 5.353313 -2.581069 -0.673262 0
M  V30 38 C 4.212094 -1.705324 -1.127869 0
M  V30 39 C 1.413144 -2.528303 1.222405 0
M  V30 40 C 0.597475 -2.067848 2.244335 0
M  V30 41 C -0.791475 0.679326 3.575370 0
M  V30 42 N -1.306046 1.166376 2.431174 0
M  V30 43 C -2.162914 2.012716 -0.125656 0
M  V30 44 C -1.849800 2.507521 -3.840266 0
M  V30 45 C -1.872984 1.621796 -5.034143 0
M  V30 46 H -1.250172 -2.942740 -3.369174 0
M  V30 47 H -2.779238 -1.893343 -3.464260 0
M  V30 48 H -2.791824 -3.599117 -3.938723 0
M  V30 49 H -0.227305 -3.268454 -6.455261 0
M  V30 50 H 0.190880 -1.599338 -5.819063 0
M  V30 51 H 0.081849 -3.068399 -4.717746 0
M  V30 52 H -2.019512 -3.824911 -6.790497 0
M  V30 53 H -3.462189 -3.577552 -5.764443 0
M  V30 54 H -3.057202 -2.379839 -7.072157 0
M  V30 55 H -0.121257 -0.843679 -3.566500 0
M  V30 56 H 0.255032 0.922350 -3.888956 0
M  V30 57 H -0.448333 0.590355 -1.554157 0
M  V30 58 H -1.983857 -0.135620 -2.050829 0
M  V30 59 H -3.898467 3.692044 -2.395226 0
M  V30 60 H -4.934891 4.606319 -0.443756 0
M  V30 61 H -4.246970 3.888262 1.747974 0
M  V30 62 H -3.580451 3.250500 3.530384 0
M  V30 63 H -2.741197 2.451870 5.690935 0
M  V30 64 H 2.277859 -2.102053 4.542249 0
M  V30 65 H 3.701943 -3.386289 6.064233 0
M  V30 66 H 3.395678 -3.115441 8.539492 0
M  V30 67 H -0.816939 -0.493356 8.373458 0
M  V30 68 H -0.841689 -0.142297 8.485096 0
M  V30 69 H 2.363057 0.765079 2.791123 0
M  V30 70 H 3.694217 -0.154146 0.999139 0
M  V30 71 H 2.936147 -3.977524 -1.687515 0
M  V30 72 H 2.092143 -2.553586 -2.029593 0
M  V30 73 H 4.583296 -3.295806 1.250439 0
M  V30 74 H 4.256262 -4.419214 -0.139245 0
M  V30 75 H 5.839549 -3.184273 -1.466992 0
M  V30 76 H 6.145745 -2.046837 -0.109244 0
M  V30 77 H 4.109249 -1.811548 -2.247947 0
M  V30 78 H 4.323196 -0.642267 -0.884056 0
M  V30 79 H 1.066260 -3.488920 0.824359 0
M  V30 80 H -0.275385 -2.558444 2.631650 0
M  V30 81 H -1.393861 1.290180 0.048236 0
M  V30 82 H -2.729403 3.175879 -3.909136 0
M  V30 83 H -0.968877 3.198780 -3.828410 0
M  V30 84 H -1.096313 2.030723 -5.746703 0
M  V30 85 H -2.825992 1.636445 -5.598748 0
M  V30 END ATOM
M  V30 BEGIN BOND
M  V30 1 1 1 2
M  V30 2 1 2 3
M  V30 3 1 2 4
M  V30 4 1 2 5
M  V30 5 2 5 6
M  V30 6 1 5 7
M  V30 7 1 7 8
M  V30 8 1 8 9
M  V30 9 1 9 10
M  V30 10 1 10 11
M  V30 11 2 11 12
M  V30 12 1 12 13
M  V30 13 2 13 14
M  V30 14 1 14 15
M  V30 15 1 15 16
M  V30 16 2 16 17
M  V30 17 1 17 18
M  V30 18 2 18 19
M  V30 19 1 19 20
M  V30 20 2 20 21
M  V30 21 1 21 22
M  V30 22 2 22 23
M  V30 23 1 23 24
M  V30 24 2 24 25
M  V30 25 1 25 26
M  V30 26 2 26 27
M  V30 27 1 27 28
M  V30 28 1 21 29
M  V30 29 1 29 30
M  V30 30 2 30 31
M  V30 31 1 31 32
M  V30 32 2 32 33
M  V30 33 1 33 34
M  V30 34 1 34 35
M  V30 35 1 34 36
M  V30 36 1 36 37
M  V30 37 1 37 38
M  V30 38 1 33 39
M  V30 39 2 39 40
M  V30 40 1 29 41
M  V30 41 2 41 42
M  V30 42 2 15 43
M  V30 43 1 10 44
M  V30 44 1 44 45
M  V30 45 1 45 7
M  V30 46 1 43 11
M  V30 47 1 42 16
M  V30 48 1 41 19
M  V30 49 1 27 22
M  V30 50 1 40 30
M  V30 51 1 38 34
M  V30 52 1 1 46
M  V30 53 1 1 47
M  V30 54 1 1 48
M  V30 55 1 3 49
M  V30 56 1 3 50
M  V30 57 1 3 51
M  V30 58 1 4 52
M  V30 59 1 4 53
M  V30 60 1 4 54
M  V30 61 1 8 55
M  V30 62 1 8 56
M  V30 63 1 9 57
M  V30 64 1 9 58
M  V30 65 1 12 59
M  V30 66 1 13 60
M  V30 67 1 14 61
M  V30 68 1 17 62
M  V30 69 1 18 63
M  V30 70 1 23 64
M  V30 71 1 24 65
M  V30 72 1 25 66
M  V30 73 1 28 67
M  V30 74 1 28 68
M  V30 75 1 31 69
M  V30 76 1 32 70
M  V30 77 1 35 71
M  V30 78 1 35 72
M  V30 79 1 36 73
M  V30 80 1 36 74
M  V30 81 1 37 75
M  V30 82 1 37 76
M  V30 83 1 38 77
M  V30 84 1 38 78
M  V30 85 1 39 79
M  V30 86 1 40 80
M  V30 87 1 43 81
M  V30 88 1 44 82
M  V30 89 1 44 83
M  V30 90 1 45 84
M  V30 91 1 45 85
M  V30 END BOND
M  V30 END CTAB
M  END
>  <Dataset>  (668) 
ChEMBL_Kinases

>  <Ligand_Instance>  (668) 
nan

>  <PDB_ID>  (668) 
nan

>  <Standardized_SMILES>  (668) 
CC(C)(C)C(=O)N1CCN(c2cccc(-c3ccc4nc(-c5cccnc5N)n(-c5ccc(C6(N)CCC6)cc5)c4n3)c2)CC1

>  <Name>  (668) 
nan

>  <Pocket>  (668) 
nan

>  <ATP_Site>  (668) 
nan

>  <Peripheral>  (668) 
nan

>  <Num_H_Atoms_ProtBoundConf>  (668) 
nan

>  <Num_Resolved_Atoms>  (668) 
nan

>  <Num_Not_Resolved_Atoms>  (668) 
nan

$$$$
CHEMBL3640746
     RDKit          3D

  0  0  0  0  0  0  0  0  0  0999 V3000
M  V30 BEGIN CTAB
M  V30 COUNTS 76 82 0 0 0
M  V30 BEGIN ATOM
M  V30 1 C 2.448251 0.982259 6.893850 0
M  V30 2 C 3.891994 0.889656 6.480474 0 CFG=2
M  V30 3 C 4.013432 1.064477 4.987485 0
M  V30 4 N 3.815561 -0.217888 4.351404 0
M  V30 5 C 2.815105 -0.655191 3.435794 0
M  V30 6 C 2.314182 -1.969862 3.373867 0
M  V30 7 C 1.391488 -2.374220 2.470544 0
M  V30 8 C 0.890928 -1.480880 1.549228 0
M  V30 9 C 1.322870 -0.177347 1.536398 0
M  V30 10 C 0.822481 0.760315 0.527069 0
M  V30 11 C 1.272124 2.065148 0.460796 0
M  V30 12 C 0.753766 2.822193 -0.572285 0
M  V30 13 C -0.133743 2.230882 -1.418925 0
M  V30 14 N -0.739034 2.695467 -2.459220 0
M  V30 15 C -1.540966 2.007463 -3.161691 0
M  V30 16 C -2.431120 1.997920 -4.265304 0
M  V30 17 C -3.224655 1.129434 -4.904477 0
M  V30 18 C -4.037069 1.285794 -5.977629 0
M  V30 19 C -4.040753 2.579444 -6.513571 0
M  V30 20 N -3.281827 3.586620 -5.985167 0
M  V30 21 C -2.511975 3.267958 -4.893143 0
M  V30 22 N -1.804276 4.437928 -4.488068 0
M  V30 23 N -1.449889 0.836085 -2.441375 0
M  V30 24 C -2.011696 -0.502020 -2.472199 0
M  V30 25 C -3.212343 -0.844380 -1.900459 0
M  V30 26 C -3.775411 -2.105845 -1.928366 0
M  V30 27 C -3.036883 -3.078660 -2.592263 0
M  V30 28 C -3.546970 -4.452201 -2.718551 0
M  V30 29 N -3.370704 -4.998570 -4.047310 0
M  V30 30 C -4.951069 -4.696513 -2.219130 0
M  V30 31 C -4.408676 -5.161747 -0.899460 0
M  V30 32 C -3.078560 -5.386074 -1.607876 0
M  V30 33 C -1.834960 -2.730597 -3.157475 0
M  V30 34 C -1.269811 -1.483850 -3.138304 0
M  V30 35 C -0.604098 0.928159 -1.372387 0
M  V30 36 N -0.066380 0.221775 -0.339616 0
M  V30 37 C 2.251640 0.153664 2.471773 0
M  V30 38 C 4.889425 -1.095346 4.773604 0
M  V30 39 C 5.405619 -0.826888 6.135849 0 CFG=2
M  V30 40 C 6.002118 -2.088010 6.692301 0
M  V30 41 O 4.531119 -0.204949 6.998293 0
M  V30 42 H 2.043547 0.003474 7.244090 0
M  V30 43 H 2.343236 1.637415 7.815485 0
M  V30 44 H 1.804802 1.482274 6.147190 0
M  V30 45 H 4.404586 1.784519 6.931661 0
M  V30 46 H 5.017983 1.481307 4.748345 0
M  V30 47 H 3.214888 1.759953 4.699166 0
M  V30 48 H 2.695891 -2.681246 4.100657 0
M  V30 49 H 1.038922 -3.401717 2.460791 0
M  V30 50 H 0.154441 -1.862989 0.850290 0
M  V30 51 H 1.971824 2.480326 1.153848 0
M  V30 52 H 1.044828 3.867977 -0.701000 0
M  V30 53 H -3.201100 0.135075 -4.488481 0
M  V30 54 H -4.605276 0.460764 -6.355151 0
M  V30 55 H -4.670770 2.738913 -7.370263 0
M  V30 56 H -0.889161 4.454566 -5.006304 0
M  V30 57 H -1.836906 5.288269 -3.877620 0
M  V30 58 H -3.751932 -0.050093 -1.373701 0
M  V30 59 H -4.734668 -2.282973 -1.455136 0
M  V30 60 H -4.282154 -4.907422 -4.561895 0
M  V30 61 H -2.666900 -4.500415 -4.631006 0
M  V30 62 H -5.436794 -5.579058 -2.725767 0
M  V30 63 H -5.639970 -3.865502 -2.230290 0
M  V30 64 H -4.362627 -4.392561 -0.113006 0
M  V30 65 H -4.851792 -6.098432 -0.501967 0
M  V30 66 H -2.270765 -4.956477 -1.017898 0
M  V30 67 H -2.984578 -6.416567 -1.949245 0
M  V30 68 H -1.204595 -3.461810 -3.696448 0
M  V30 69 H -0.349043 -1.184795 -3.568038 0
M  V30 70 H 2.631225 1.171050 2.501306 0
M  V30 71 H 5.693161 -0.966046 3.986763 0
M  V30 72 H 4.545414 -2.134328 4.697309 0
M  V30 73 H 6.274482 -0.110396 6.019598 0
M  V30 74 H 5.296327 -2.947861 6.665238 0
M  V30 75 H 6.508119 -1.959088 7.649251 0
M  V30 76 H 6.818718 -2.377540 5.975205 0
M  V30 END ATOM
M  V30 BEGIN BOND
M  V30 1 1 1 2
M  V30 2 1 2 3
M  V30 3 1 3 4
M  V30 4 1 4 5
M  V30 5 2 5 6
M  V30 6 1 6 7
M  V30 7 2 7 8
M  V30 8 1 8 9
M  V30 9 1 9 10
M  V30 10 2 10 11
M  V30 11 1 11 12
M  V30 12 2 12 13
M  V30 13 1 13 14
M  V30 14 2 14 15
M  V30 15 1 15 16
M  V30 16 2 16 17
M  V30 17 1 17 18
M  V30 18 2 18 19
M  V30 19 1 19 20
M  V30 20 2 20 21
M  V30 21 1 21 22
M  V30 22 1 15 23
M  V30 23 1 23 24
M  V30 24 2 24 25
M  V30 25 1 25 26
M  V30 26 2 26 27
M  V30 27 1 27 28
M  V30 28 1 28 29
M  V30 29 1 28 30
M  V30 30 1 30 31
M  V30 31 1 31 32
M  V30 32 1 27 33
M  V30 33 2 33 34
M  V30 34 1 23 35
M  V30 35 2 35 36
M  V30 36 2 9 37
M  V30 37 1 4 38
M  V30 38 1 38 39
M  V30 39 1 39 40
M  V30 40 1 39 41
M  V30 41 1 41 2
M  V30 42 1 37 5
M  V30 43 1 36 10
M  V30 44 1 35 13
M  V30 45 1 21 16
M  V30 46 1 34 24
M  V30 47 1 32 28
M  V30 48 1 1 42
M  V30 49 1 1 43
M  V30 50 1 1 44
M  V30 51 1 2 45 CFG=1
M  V30 52 1 3 46
M  V30 53 1 3 47
M  V30 54 1 6 48
M  V30 55 1 7 49
M  V30 56 1 8 50
M  V30 57 1 11 51
M  V30 58 1 12 52
M  V30 59 1 17 53
M  V30 60 1 18 54
M  V30 61 1 19 55
M  V30 62 1 22 56
M  V30 63 1 22 57
M  V30 64 1 25 58
M  V30 65 1 26 59
M  V30 66 1 29 60
M  V30 67 1 29 61
M  V30 68 1 30 62
M  V30 69 1 30 63
M  V30 70 1 31 64
M  V30 71 1 31 65
M  V30 72 1 32 66
M  V30 73 1 32 67
M  V30 74 1 33 68
M  V30 75 1 34 69
M  V30 76 1 37 70
M  V30 77 1 38 71
M  V30 78 1 38 72
M  V30 79 1 39 73 CFG=3
M  V30 80 1 40 74
M  V30 81 1 40 75
M  V30 82 1 40 76
M  V30 END BOND
M  V30 END CTAB
M  END
>  <Dataset>  (669) 
ChEMBL_Kinases

>  <Ligand_Instance>  (669) 
nan

>  <PDB_ID>  (669) 
nan

>  <Standardized_SMILES>  (669) 
C[C@@H]1CN(c2cccc(-c3ccc4nc(-c5cccnc5N)n(-c5ccc(C6(N)CCC6)cc5)c4n3)c2)C[C@H](C)O1

>  <Name>  (669) 
nan

>  <Pocket>  (669) 
nan

>  <ATP_Site>  (669) 
nan

>  <Peripheral>  (669) 
nan

>  <Num_H_Atoms_ProtBoundConf>  (669) 
nan

>  <Num_Resolved_Atoms>  (669) 
nan

>  <Num_Not_Resolved_Atoms>  (669) 
nan

$$$$
CHEMBL3640747
     RDKit          3D

  0  0  0  0  0  0  0  0  0  0999 V3000
M  V30 BEGIN CTAB
M  V30 COUNTS 72 78 0 0 0
M  V30 BEGIN ATOM
M  V30 1 N 5.359650 -2.507391 2.999324 0
M  V30 2 C 4.493227 -1.912795 4.015291 0
M  V30 3 N 5.383961 -1.585325 5.005065 0
M  V30 4 C 4.809807 -0.996767 6.113949 0
M  V30 5 C 3.430037 -0.813368 6.095045 0
M  V30 6 C 2.599600 -1.184919 5.033239 0
M  V30 7 C 3.099688 -1.760533 3.922052 0
M  V30 8 C 2.744504 -2.285785 2.704896 0
M  V30 9 N 2.776385 -2.863317 1.508826 0
M  V30 10 C 1.936480 -2.637418 0.584462 0
M  V30 11 C 2.027264 -3.268651 -0.669438 0
M  V30 12 C 1.005469 -2.868843 -1.537047 0
M  V30 13 C 0.097108 -1.958502 -1.073871 0
M  V30 14 C -0.993373 -1.472995 -1.896227 0
M  V30 15 C -1.926984 -0.558571 -1.460130 0
M  V30 16 C -2.962567 -0.085958 -2.272440 0
M  V30 17 C -2.960629 -0.614629 -3.523433 0
M  V30 18 C -2.101286 -1.530190 -4.100591 0
M  V30 19 N -2.162939 -2.023839 -5.436454 0
M  V30 20 C -2.750041 -1.165308 -6.414108 0
M  V30 21 C -2.922159 -1.771790 -7.780364 0
M  V30 22 S -1.534636 -2.760671 -8.290628 0
M  V30 23 O -0.579376 -1.870998 -9.012745 0
M  V30 24 O -1.942921 -3.871931 -9.209233 0
M  V30 25 C -0.690354 -3.392753 -6.842245 0
M  V30 26 C -1.649817 -3.352002 -5.661519 0
M  V30 27 C -1.138865 -1.903696 -3.194909 0
M  V30 28 N 0.158526 -1.455541 0.155947 0
M  V30 29 C 1.064483 -1.731852 1.102870 0
M  V30 30 N 1.586999 -1.560139 2.356731 0
M  V30 31 C 0.635911 -0.555434 2.880464 0
M  V30 32 C 1.124800 0.723028 2.926906 0
M  V30 33 C 0.422908 1.829764 3.338008 0
M  V30 34 C -0.882426 1.557680 3.723514 0
M  V30 35 C -1.849575 2.577404 4.187865 0
M  V30 36 N -3.039219 2.614805 3.294568 0
M  V30 37 C -1.301955 3.948522 4.467574 0
M  V30 38 C -2.084561 3.922542 5.772776 0
M  V30 39 C -2.233283 2.413061 5.617617 0
M  V30 40 C -1.378208 0.304581 3.685348 0
M  V30 41 C -0.689094 -0.824852 3.276020 0
M  V30 42 H 6.234989 -2.093320 2.617016 0
M  V30 43 H 5.697031 -3.205802 2.306805 0
M  V30 44 H 5.190172 -0.612902 7.048099 0
M  V30 45 H 2.830654 -0.357837 6.891027 0
M  V30 46 H 1.551406 -1.077014 5.017641 0
M  V30 47 H 2.780609 -3.976698 -0.963736 0
M  V30 48 H 1.009216 -3.312705 -2.518413 0
M  V30 49 H -1.879721 -0.172565 -0.438224 0
M  V30 50 H -3.706373 0.627086 -1.945530 0
M  V30 51 H -3.791530 -0.228127 -4.143024 0
M  V30 52 H -3.720620 -0.772065 -6.066649 0
M  V30 53 H -2.063796 -0.298383 -6.543469 0
M  V30 54 H -3.798630 -2.450009 -7.758872 0
M  V30 55 H -3.117477 -0.957745 -8.497051 0
M  V30 56 H -0.448713 -4.449000 -7.031245 0
M  V30 57 H 0.249065 -2.852627 -6.629801 0
M  V30 58 H -2.554073 -3.954666 -5.992596 0
M  V30 59 H -1.166913 -3.846142 -4.822243 0
M  V30 60 H -0.410177 -2.608848 -3.549530 0
M  V30 61 H 2.149616 0.932873 2.634585 0
M  V30 62 H 0.785293 2.838691 3.376594 0
M  V30 63 H -3.297641 3.603810 3.077814 0
M  V30 64 H -2.801657 2.098790 2.414384 0
M  V30 65 H -1.778665 4.709559 3.796464 0
M  V30 66 H -0.223360 4.062711 4.591433 0
M  V30 67 H -1.521395 4.244153 6.658959 0
M  V30 68 H -3.085297 4.402202 5.714323 0
M  V30 69 H -3.283481 2.074453 5.794042 0
M  V30 70 H -1.561780 1.800891 6.256734 0
M  V30 71 H -2.407578 0.029324 3.986768 0
M  V30 72 H -0.959442 -1.860841 3.195351 0
M  V30 END ATOM
M  V30 BEGIN BOND
M  V30 1 1 1 2
M  V30 2 2 2 3
M  V30 3 1 3 4
M  V30 4 2 4 5
M  V30 5 1 5 6
M  V30 6 2 6 7
M  V30 7 1 7 8
M  V30 8 2 8 9
M  V30 9 1 9 10
M  V30 10 2 10 11
M  V30 11 1 11 12
M  V30 12 2 12 13
M  V30 13 1 13 14
M  V30 14 2 14 15
M  V30 15 1 15 16
M  V30 16 2 16 17
M  V30 17 1 17 18
M  V30 18 1 18 19
M  V30 19 1 19 20
M  V30 20 1 20 21
M  V30 21 1 21 22
M  V30 22 2 22 23
M  V30 23 2 22 24
M  V30 24 1 22 25
M  V30 25 1 25 26
M  V30 26 2 18 27
M  V30 27 1 13 28
M  V30 28 2 28 29
M  V30 29 1 29 30
M  V30 30 1 30 31
M  V30 31 2 31 32
M  V30 32 1 32 33
M  V30 33 2 33 34
M  V30 34 1 34 35
M  V30 35 1 35 36
M  V30 36 1 35 37
M  V30 37 1 37 38
M  V30 38 1 38 39
M  V30 39 1 34 40
M  V30 40 2 40 41
M  V30 41 1 7 2
M  V30 42 1 30 8
M  V30 43 1 41 31
M  V30 44 1 29 10
M  V30 45 1 39 35
M  V30 46 1 27 14
M  V30 47 1 26 19
M  V30 48 1 1 42
M  V30 49 1 1 43
M  V30 50 1 4 44
M  V30 51 1 5 45
M  V30 52 1 6 46
M  V30 53 1 11 47
M  V30 54 1 12 48
M  V30 55 1 15 49
M  V30 56 1 16 50
M  V30 57 1 17 51
M  V30 58 1 20 52
M  V30 59 1 20 53
M  V30 60 1 21 54
M  V30 61 1 21 55
M  V30 62 1 25 56
M  V30 63 1 25 57
M  V30 64 1 26 58
M  V30 65 1 26 59
M  V30 66 1 27 60
M  V30 67 1 32 61
M  V30 68 1 33 62
M  V30 69 1 36 63
M  V30 70 1 36 64
M  V30 71 1 37 65
M  V30 72 1 37 66
M  V30 73 1 38 67
M  V30 74 1 38 68
M  V30 75 1 39 69
M  V30 76 1 39 70
M  V30 77 1 40 71
M  V30 78 1 41 72
M  V30 END BOND
M  V30 END CTAB
M  END
>  <Dataset>  (670) 
ChEMBL_Kinases

>  <Ligand_Instance>  (670) 
nan

>  <PDB_ID>  (670) 
nan

>  <Standardized_SMILES>  (670) 
Nc1ncccc1-c1nc2ccc(-c3cccc(N4CCS(=O)(=O)CC4)c3)nc2n1-c1ccc(C2(N)CCC2)cc1

>  <Name>  (670) 
nan

>  <Pocket>  (670) 
nan

>  <ATP_Site>  (670) 
nan

>  <Peripheral>  (670) 
nan

>  <Num_H_Atoms_ProtBoundConf>  (670) 
nan

>  <Num_Resolved_Atoms>  (670) 
nan

>  <Num_Not_Resolved_Atoms>  (670) 
nan

$$$$
CHEMBL3640739
     RDKit          3D

  0  0  0  0  0  0  0  0  0  0999 V3000
M  V30 BEGIN CTAB
M  V30 COUNTS 88 94 0 0 0
M  V30 BEGIN ATOM
M  V30 1 C 0.617397 -3.759209 -3.417337 0
M  V30 2 C 1.688411 -2.742432 -3.642511 0
M  V30 3 N 1.550572 -1.975380 -4.857947 0
M  V30 4 C 2.233555 -2.628691 -5.992425 0
M  V30 5 C 1.308176 -3.585508 -6.679811 0
M  V30 6 C 0.890727 -0.746833 -5.182282 0
M  V30 7 O 1.012229 -0.363820 -6.405637 0
M  V30 8 C 0.068253 0.236244 -4.431654 0
M  V30 9 C 0.844636 0.731960 -3.257342 0
M  V30 10 C 0.378637 2.100352 -2.797186 0
M  V30 11 N -1.005380 2.330048 -3.102993 0
M  V30 12 C -2.192564 2.438745 -2.285582 0
M  V30 13 C -3.250879 3.107620 -2.853881 0
M  V30 14 C -4.417174 3.208487 -2.104850 0
M  V30 15 C -4.462849 2.645338 -0.849963 0
M  V30 16 C -3.425203 1.968945 -0.247900 0
M  V30 17 C -3.488470 1.356193 1.071477 0
M  V30 18 C -4.659882 1.403872 1.797924 0
M  V30 19 C -4.785190 0.817316 3.044475 0
M  V30 20 C -3.681555 0.168584 3.552701 0
M  V30 21 N -3.477514 -0.493043 4.696764 0
M  V30 22 C -2.225346 -0.973867 4.757083 0
M  V30 23 C -1.719113 -1.738451 5.877848 0
M  V30 24 C -0.502515 -2.295473 6.060895 0
M  V30 25 C -0.182030 -3.008182 7.183184 0
M  V30 26 C -1.076750 -3.206005 8.201420 0
M  V30 27 N -2.289652 -2.662536 8.040080 0
M  V30 28 C -2.576516 -1.974126 6.939561 0
M  V30 29 N -3.922169 -1.483599 6.975964 0
M  V30 30 N -1.666087 -0.583461 3.609664 0
M  V30 31 C -0.336188 -0.816335 3.175593 0
M  V30 32 C -0.006733 -1.845695 2.295590 0
M  V30 33 C 1.291456 -2.030091 1.868841 0
M  V30 34 C 2.306081 -1.203295 2.298772 0
M  V30 35 C 3.725492 -1.206399 1.950876 0
M  V30 36 N 4.631329 -1.326799 3.098903 0
M  V30 37 C 4.162284 -2.145497 0.871811 0
M  V30 38 C 3.863047 -1.041386 -0.120352 0
M  V30 39 C 4.077121 -0.057484 1.032471 0
M  V30 40 C 1.983267 -0.167791 3.183381 0
M  V30 41 C 0.673381 0.047943 3.636139 0
M  V30 42 C -2.508214 0.118040 2.832201 0
M  V30 43 N -2.435965 0.708104 1.616344 0
M  V30 44 C -2.283006 1.888321 -1.019271 0
M  V30 45 C -1.065878 2.419896 -4.520254 0
M  V30 46 C -0.252397 1.445257 -5.282565 0
M  V30 47 H 0.538343 -3.898866 -2.294369 0
M  V30 48 H -0.348965 -3.353970 -3.779525 0
M  V30 49 H 0.867498 -4.763323 -3.826185 0
M  V30 50 H 1.683600 -2.049348 -2.770493 0
M  V30 51 H 2.675050 -3.265772 -3.682504 0
M  V30 52 H 3.144444 -3.148128 -5.661575 0
M  V30 53 H 2.552381 -1.853344 -6.750509 0
M  V30 54 H 1.852659 -4.532061 -6.884230 0
M  V30 55 H 1.014349 -3.181754 -7.668369 0
M  V30 56 H 0.394617 -3.789763 -6.077299 0
M  V30 57 H -0.876918 -0.215369 -4.062757 0
M  V30 58 H 1.922003 0.722456 -3.483181 0
M  V30 59 H 0.691402 -0.002299 -2.412335 0
M  V30 60 H 1.028386 2.865452 -3.213066 0
M  V30 61 H 0.512811 2.134265 -1.692986 0
M  V30 62 H -3.311951 3.580619 -3.817224 0
M  V30 63 H -5.295851 3.724414 -2.493043 0
M  V30 64 H -5.407369 2.759368 -0.309890 0
M  V30 65 H -5.564655 1.886269 1.475559 0
M  V30 66 H -5.676130 0.841296 3.620979 0
M  V30 67 H 0.224721 -2.178795 5.299322 0
M  V30 68 H 0.797374 -3.430429 7.277316 0
M  V30 69 H -0.783608 -3.781368 9.078377 0
M  V30 70 H -4.871567 -1.267411 6.630990 0
M  V30 71 H -4.839307 -1.334354 6.466023 0
M  V30 72 H -0.789490 -2.524443 1.931385 0
M  V30 73 H 1.610575 -2.789366 1.202308 0
M  V30 74 H 4.917730 -2.329512 3.139635 0
M  V30 75 H 5.503398 -0.786148 2.814427 0
M  V30 76 H 5.252589 -2.310994 0.898439 0
M  V30 77 H 3.621879 -3.081308 0.729267 0
M  V30 78 H 2.828858 -1.069032 -0.477332 0
M  V30 79 H 4.634627 -0.872675 -0.902949 0
M  V30 80 H 3.317439 0.734153 0.997485 0
M  V30 81 H 5.115468 0.315643 1.122908 0
M  V30 82 H 2.703681 0.552818 3.595562 0
M  V30 83 H 0.442542 0.853455 4.320334 0
M  V30 84 H -1.392821 1.385923 -0.665975 0
M  V30 85 H -0.751403 3.452880 -4.801054 0
M  V30 86 H -2.129282 2.357075 -4.887626 0
M  V30 87 H 0.706676 1.934262 -5.579036 0
M  V30 88 H -0.802084 1.087747 -6.180374 0
M  V30 END ATOM
M  V30 BEGIN BOND
M  V30 1 1 1 2
M  V30 2 1 2 3
M  V30 3 1 3 4
M  V30 4 1 4 5
M  V30 5 1 3 6
M  V30 6 2 6 7
M  V30 7 1 6 8
M  V30 8 1 8 9
M  V30 9 1 9 10
M  V30 10 1 10 11
M  V30 11 1 11 12
M  V30 12 2 12 13
M  V30 13 1 13 14
M  V30 14 2 14 15
M  V30 15 1 15 16
M  V30 16 1 16 17
M  V30 17 2 17 18
M  V30 18 1 18 19
M  V30 19 2 19 20
M  V30 20 1 20 21
M  V30 21 2 21 22
M  V30 22 1 22 23
M  V30 23 2 23 24
M  V30 24 1 24 25
M  V30 25 2 25 26
M  V30 26 1 26 27
M  V30 27 2 27 28
M  V30 28 1 28 29
M  V30 29 1 22 30
M  V30 30 1 30 31
M  V30 31 2 31 32
M  V30 32 1 32 33
M  V30 33 2 33 34
M  V30 34 1 34 35
M  V30 35 1 35 36
M  V30 36 1 35 37
M  V30 37 1 37 38
M  V30 38 1 38 39
M  V30 39 1 34 40
M  V30 40 2 40 41
M  V30 41 1 30 42
M  V30 42 2 42 43
M  V30 43 2 16 44
M  V30 44 1 11 45
M  V30 45 1 45 46
M  V30 46 1 46 8
M  V30 47 1 44 12
M  V30 48 1 43 17
M  V30 49 1 42 20
M  V30 50 1 28 23
M  V30 51 1 41 31
M  V30 52 1 39 35
M  V30 53 1 1 47
M  V30 54 1 1 48
M  V30 55 1 1 49
M  V30 56 1 2 50
M  V30 57 1 2 51
M  V30 58 1 4 52
M  V30 59 1 4 53
M  V30 60 1 5 54
M  V30 61 1 5 55
M  V30 62 1 5 56
M  V30 63 1 8 57
M  V30 64 1 9 58
M  V30 65 1 9 59
M  V30 66 1 10 60
M  V30 67 1 10 61
M  V30 68 1 13 62
M  V30 69 1 14 63
M  V30 70 1 15 64
M  V30 71 1 18 65
M  V30 72 1 19 66
M  V30 73 1 24 67
M  V30 74 1 25 68
M  V30 75 1 26 69
M  V30 76 1 29 70
M  V30 77 1 29 71
M  V30 78 1 32 72
M  V30 79 1 33 73
M  V30 80 1 36 74
M  V30 81 1 36 75
M  V30 82 1 37 76
M  V30 83 1 37 77
M  V30 84 1 38 78
M  V30 85 1 38 79
M  V30 86 1 39 80
M  V30 87 1 39 81
M  V30 88 1 40 82
M  V30 89 1 41 83
M  V30 90 1 44 84
M  V30 91 1 45 85
M  V30 92 1 45 86
M  V30 93 1 46 87
M  V30 94 1 46 88
M  V30 END BOND
M  V30 END CTAB
M  END
>  <Dataset>  (671) 
ChEMBL_Kinases

>  <Ligand_Instance>  (671) 
nan

>  <PDB_ID>  (671) 
nan

>  <Standardized_SMILES>  (671) 
CCN(CC)C(=O)C1CCN(c2cccc(-c3ccc4nc(-c5cccnc5N)n(-c5ccc(C6(N)CCC6)cc5)c4n3)c2)CC1

>  <Name>  (671) 
nan

>  <Pocket>  (671) 
nan

>  <ATP_Site>  (671) 
nan

>  <Peripheral>  (671) 
nan

>  <Num_H_Atoms_ProtBoundConf>  (671) 
nan

>  <Num_Resolved_Atoms>  (671) 
nan

>  <Num_Not_Resolved_Atoms>  (671) 
nan

$$$$
CHEMBL3641812
     RDKit          3D

  0  0  0  0  0  0  0  0  0  0999 V3000
M  V30 BEGIN CTAB
M  V30 COUNTS 55 58 0 0 0
M  V30 BEGIN ATOM
M  V30 1 C -0.744099 -4.090372 4.431263 0
M  V30 2 N 0.659659 -4.368551 4.629717 0
M  V30 3 C 1.757587 -4.421516 3.720269 0
M  V30 4 N 1.629921 -4.193278 2.411150 0
M  V30 5 C 2.611825 -4.218208 1.500270 0
M  V30 6 N 2.127587 -3.936021 0.201735 0
M  V30 7 C 1.894253 -2.624709 -0.291020 0
M  V30 8 C 2.158174 -1.595688 0.611177 0
M  V30 9 C 1.936401 -0.300686 0.211048 0
M  V30 10 C 1.460632 -0.089707 -1.073079 0
M  V30 11 C 1.192245 1.294689 -1.525872 0
M  V30 12 O 1.489374 1.843395 -2.615869 0
M  V30 13 N 0.488758 2.128555 -0.577321 0
M  V30 14 C -0.015667 3.488917 -0.507995 0
M  V30 15 C -1.061792 3.007159 0.474527 0
M  V30 16 N -2.316632 2.616541 0.005124 0
M  V30 17 C -3.284607 2.180701 0.951792 0
M  V30 18 C -4.142878 1.145384 0.245460 0
M  V30 19 O -4.752880 1.735723 -0.838132 0
M  V30 20 C -4.374044 3.022624 -1.119020 0
M  V30 21 C -2.879139 3.261818 -1.121471 0
M  V30 22 C -0.039608 1.976269 0.789269 0
M  V30 23 C 1.213573 -1.131629 -1.934677 0
M  V30 24 C 1.423096 -2.448998 -1.572552 0
M  V30 25 O 1.188948 -3.529725 -2.403141 0
M  V30 26 C 0.703438 -3.379770 -3.724742 0
M  V30 27 N 3.855566 -4.507593 1.974477 0
M  V30 28 C 4.034198 -4.744952 3.283524 0
M  V30 29 C 3.012566 -4.714760 4.210290 0
M  V30 30 Cl 3.264470 -5.026052 5.905379 0
M  V30 31 H -1.395053 -4.905920 4.753184 0
M  V30 32 H -0.885615 -3.875962 3.329475 0
M  V30 33 H -1.018407 -3.145476 4.986029 0
M  V30 34 H 0.798069 -4.547883 5.633563 0
M  V30 35 H 1.991585 -4.855008 -0.268750 0
M  V30 36 H 2.532470 -1.813609 1.601897 0
M  V30 37 H 2.138381 0.490901 0.908489 0
M  V30 38 H -0.374499 3.910272 -1.450386 0
M  V30 39 H 0.754382 4.117659 0.008068 0
M  V30 40 H -1.158964 3.730813 1.337144 0
M  V30 41 H -2.890241 1.873280 1.909975 0
M  V30 42 H -3.964136 3.054320 1.115636 0
M  V30 43 H -3.412257 0.396639 -0.159434 0
M  V30 44 H -4.801916 0.587441 0.920650 0
M  V30 45 H -4.913943 3.785841 -0.527992 0
M  V30 46 H -4.704971 3.210240 -2.183998 0
M  V30 47 H -2.465222 3.015841 -2.096572 0
M  V30 48 H -2.764132 4.374427 -0.952759 0
M  V30 49 H -0.346602 0.949546 0.994143 0
M  V30 50 H 0.739384 2.333934 1.525892 0
M  V30 51 H 0.845162 -0.945135 -2.935531 0
M  V30 52 H 0.927553 -4.317813 -4.267470 0
M  V30 53 H -0.384942 -3.252317 -3.668902 0
M  V30 54 H 1.164598 -2.523542 -4.244813 0
M  V30 55 H 5.043476 -4.968987 3.588130 0
M  V30 END ATOM
M  V30 BEGIN BOND
M  V30 1 1 1 2
M  V30 2 1 2 3
M  V30 3 2 3 4
M  V30 4 1 4 5
M  V30 5 1 5 6
M  V30 6 1 6 7
M  V30 7 2 7 8
M  V30 8 1 8 9
M  V30 9 2 9 10
M  V30 10 1 10 11
M  V30 11 2 11 12
M  V30 12 1 11 13
M  V30 13 1 13 14
M  V30 14 1 14 15
M  V30 15 1 15 16
M  V30 16 1 16 17
M  V30 17 1 17 18
M  V30 18 1 18 19
M  V30 19 1 19 20
M  V30 20 1 20 21
M  V30 21 1 15 22
M  V30 22 1 10 23
M  V30 23 2 23 24
M  V30 24 1 24 25
M  V30 25 1 25 26
M  V30 26 2 5 27
M  V30 27 1 27 28
M  V30 28 2 28 29
M  V30 29 1 29 30
M  V30 30 1 29 3
M  V30 31 1 24 7
M  V30 32 1 22 13
M  V30 33 1 21 16
M  V30 34 1 1 31
M  V30 35 1 1 32
M  V30 36 1 1 33
M  V30 37 1 2 34
M  V30 38 1 6 35
M  V30 39 1 8 36
M  V30 40 1 9 37
M  V30 41 1 14 38
M  V30 42 1 14 39
M  V30 43 1 15 40
M  V30 44 1 17 41
M  V30 45 1 17 42
M  V30 46 1 18 43
M  V30 47 1 18 44
M  V30 48 1 20 45
M  V30 49 1 20 46
M  V30 50 1 21 47
M  V30 51 1 21 48
M  V30 52 1 22 49
M  V30 53 1 22 50
M  V30 54 1 23 51
M  V30 55 1 26 52
M  V30 56 1 26 53
M  V30 57 1 26 54
M  V30 58 1 28 55
M  V30 END BOND
M  V30 END CTAB
M  END
>  <Dataset>  (672) 
ChEMBL_Kinases

>  <Ligand_Instance>  (672) 
nan

>  <PDB_ID>  (672) 
nan

>  <Standardized_SMILES>  (672) 
CNc1nc(Nc2ccc(C(=O)N3CC(N4CCOCC4)C3)cc2OC)ncc1Cl

>  <Name>  (672) 
nan

>  <Pocket>  (672) 
nan

>  <ATP_Site>  (672) 
nan

>  <Peripheral>  (672) 
nan

>  <Num_H_Atoms_ProtBoundConf>  (672) 
nan

>  <Num_Resolved_Atoms>  (672) 
nan

>  <Num_Not_Resolved_Atoms>  (672) 
nan

$$$$
CHEMBL3641811
     RDKit          3D

  0  0  0  0  0  0  0  0  0  0999 V3000
M  V30 BEGIN CTAB
M  V30 COUNTS 54 57 0 0 0
M  V30 BEGIN ATOM
M  V30 1 C -1.843612 1.435034 1.588567 0
M  V30 2 O -2.070052 0.714239 0.403536 0
M  V30 3 C -1.490034 -0.501384 0.113448 0
M  V30 4 C -0.609681 -1.175362 0.934656 0
M  V30 5 C -0.056045 -2.390977 0.595270 0
M  V30 6 C 0.864934 -3.024247 1.529292 0
M  V30 7 O 0.803091 -4.204725 2.003110 0
M  V30 8 N 1.932887 -2.107059 1.890218 0
M  V30 9 C 2.536448 -0.760949 1.709179 0
M  V30 10 C 3.011238 -0.797881 3.154118 0
M  V30 11 N 2.076021 -0.462405 4.155464 0
M  V30 12 C 2.614073 -0.544219 5.487331 0
M  V30 13 C 3.483743 0.616131 5.830145 0
M  V30 14 O 3.131216 1.789100 5.177855 0
M  V30 15 C 1.776284 1.846040 4.884071 0
M  V30 16 C 1.311133 0.718730 4.023956 0
M  V30 17 C 3.033104 -2.313482 2.872953 0
M  V30 18 C -0.430023 -2.917752 -0.630546 0
M  V30 19 C -1.302472 -2.299615 -1.497123 0
M  V30 20 C -1.832202 -1.074307 -1.106774 0
M  V30 21 N -2.736382 -0.428723 -2.009283 0
M  V30 22 C -3.180776 -0.915438 -3.268607 0
M  V30 23 N -4.304596 -1.642301 -3.157043 0
M  V30 24 C -4.933782 -2.221636 -4.200562 0
M  V30 25 C -4.338226 -2.020418 -5.435955 0
M  V30 26 Br -5.184761 -2.825815 -6.950269 0
M  V30 27 C -3.180180 -1.277683 -5.591011 0
M  V30 28 O -2.580016 -1.072291 -6.816766 0
M  V30 29 C -1.404761 -0.313586 -6.960872 0
M  V30 30 N -2.616649 -0.733416 -4.498650 0
M  V30 31 H -1.718589 0.703060 2.409855 0
M  V30 32 H -2.635318 2.176537 1.797782 0
M  V30 33 H -0.892127 2.015043 1.495798 0
M  V30 34 H -0.356311 -0.721021 1.880328 0
M  V30 35 H 3.366517 -0.862848 0.977799 0
M  V30 36 H 1.858813 0.024537 1.414541 0
M  V30 37 H 4.057425 -0.453527 3.243727 0
M  V30 38 H 1.730342 -0.582582 6.189540 0
M  V30 39 H 3.118397 -1.523817 5.653366 0
M  V30 40 H 3.489961 0.749185 6.943943 0
M  V30 41 H 4.526241 0.375285 5.544047 0
M  V30 42 H 1.591228 2.799990 4.348668 0
M  V30 43 H 1.186960 1.939231 5.838875 0
M  V30 44 H 0.277716 0.459893 4.411413 0
M  V30 45 H 1.107014 1.025396 2.973424 0
M  V30 46 H 3.959873 -2.690096 2.419206 0
M  V30 47 H 2.756167 -2.872039 3.758917 0
M  V30 48 H 0.008901 -3.867015 -0.881980 0
M  V30 49 H -1.588405 -2.706234 -2.433005 0
M  V30 50 H -3.132897 0.513878 -1.736542 0
M  V30 51 H -5.839552 -2.805437 -4.096440 0
M  V30 52 H -0.544215 -0.972246 -6.834627 0
M  V30 53 H -1.466900 0.171546 -7.959051 0
M  V30 54 H -1.450205 0.486227 -6.180592 0
M  V30 END ATOM
M  V30 BEGIN BOND
M  V30 1 1 1 2
M  V30 2 1 2 3
M  V30 3 2 3 4
M  V30 4 1 4 5
M  V30 5 1 5 6
M  V30 6 2 6 7
M  V30 7 1 6 8
M  V30 8 1 8 9
M  V30 9 1 9 10
M  V30 10 1 10 11
M  V30 11 1 11 12
M  V30 12 1 12 13
M  V30 13 1 13 14
M  V30 14 1 14 15
M  V30 15 1 15 16
M  V30 16 1 10 17
M  V30 17 2 5 18
M  V30 18 1 18 19
M  V30 19 2 19 20
M  V30 20 1 20 21
M  V30 21 1 21 22
M  V30 22 2 22 23
M  V30 23 1 23 24
M  V30 24 2 24 25
M  V30 25 1 25 26
M  V30 26 1 25 27
M  V30 27 1 27 28
M  V30 28 1 28 29
M  V30 29 2 27 30
M  V30 30 1 20 3
M  V30 31 1 30 22
M  V30 32 1 17 8
M  V30 33 1 16 11
M  V30 34 1 1 31
M  V30 35 1 1 32
M  V30 36 1 1 33
M  V30 37 1 4 34
M  V30 38 1 9 35
M  V30 39 1 9 36
M  V30 40 1 10 37
M  V30 41 1 12 38
M  V30 42 1 12 39
M  V30 43 1 13 40
M  V30 44 1 13 41
M  V30 45 1 15 42
M  V30 46 1 15 43
M  V30 47 1 16 44
M  V30 48 1 16 45
M  V30 49 1 17 46
M  V30 50 1 17 47
M  V30 51 1 18 48
M  V30 52 1 19 49
M  V30 53 1 21 50
M  V30 54 1 24 51
M  V30 55 1 29 52
M  V30 56 1 29 53
M  V30 57 1 29 54
M  V30 END BOND
M  V30 END CTAB
M  END
>  <Dataset>  (673) 
ChEMBL_Kinases

>  <Ligand_Instance>  (673) 
nan

>  <PDB_ID>  (673) 
nan

>  <Standardized_SMILES>  (673) 
COc1cc(C(=O)N2CC(N3CCOCC3)C2)ccc1Nc1ncc(Br)c(OC)n1

>  <Name>  (673) 
nan

>  <Pocket>  (673) 
nan

>  <ATP_Site>  (673) 
nan

>  <Peripheral>  (673) 
nan

>  <Num_H_Atoms_ProtBoundConf>  (673) 
nan

>  <Num_Resolved_Atoms>  (673) 
nan

>  <Num_Not_Resolved_Atoms>  (673) 
nan

$$$$
CHEMBL3641810
     RDKit          3D

  0  0  0  0  0  0  0  0  0  0999 V3000
M  V30 BEGIN CTAB
M  V30 COUNTS 49 51 0 0 0
M  V30 BEGIN ATOM
M  V30 1 C -1.793022 -5.034002 4.281864 0
M  V30 2 C -1.320786 -4.517287 2.923071 0
M  V30 3 N -0.156765 -5.236293 2.461629 0
M  V30 4 C 0.454213 -4.915267 1.219262 0
M  V30 5 N -0.072755 -3.916714 0.465208 0
M  V30 6 C 0.491351 -3.586957 -0.725098 0
M  V30 7 N -0.145456 -2.532196 -1.422302 0
M  V30 8 C 0.182180 -1.167090 -1.208546 0
M  V30 9 C 1.152172 -0.885549 -0.270230 0
M  V30 10 C 1.569435 0.390302 0.047378 0
M  V30 11 F 2.517189 0.632481 0.966981 0
M  V30 12 C 0.918386 1.399140 -0.671931 0
M  V30 13 C 1.369995 2.761874 -0.319380 0
M  V30 14 O 2.235492 3.603681 -0.664241 0
M  V30 15 N 0.547986 3.263441 0.757935 0
M  V30 16 C 0.815501 4.615306 1.284056 0
M  V30 17 C 0.427740 4.555251 2.750144 0
M  V30 18 O 0.684847 3.336407 3.318420 0
M  V30 19 C -0.057866 2.292764 2.836419 0
M  V30 20 C -0.560978 2.623135 1.448868 0
M  V30 21 C -0.056855 1.177040 -1.620289 0
M  V30 22 C -0.435593 -0.119092 -1.898086 0
M  V30 23 O -1.401361 -0.444441 -2.829276 0
M  V30 24 C -2.129980 0.447713 -3.616494 0
M  V30 25 N 1.587915 -4.265387 -1.154818 0
M  V30 26 C 2.132237 -5.261625 -0.426614 0
M  V30 27 C 1.580351 -5.624967 0.796346 0
M  V30 28 Cl 2.273600 -6.913562 1.752265 0
M  V30 29 H -0.840143 -5.287114 4.834105 0
M  V30 30 H -2.242129 -4.211296 4.851282 0
M  V30 31 H -2.419741 -5.932168 4.200353 0
M  V30 32 H -2.148564 -4.545211 2.212730 0
M  V30 33 H -0.959686 -3.469431 3.143309 0
M  V30 34 H 0.227824 -5.991006 3.050156 0
M  V30 35 H -0.901586 -2.736991 -2.139684 0
M  V30 36 H 1.638612 -1.710402 0.272931 0
M  V30 37 H 0.147458 5.364971 0.811021 0
M  V30 38 H 1.878142 4.862460 1.227165 0
M  V30 39 H -0.623630 4.826734 2.935129 0
M  V30 40 H 1.057362 5.302220 3.280390 0
M  V30 41 H -0.869580 1.975005 3.518580 0
M  V30 42 H 0.626928 1.414829 2.780269 0
M  V30 43 H -1.375527 3.375886 1.529543 0
M  V30 44 H -0.904209 1.714453 0.907877 0
M  V30 45 H -0.520264 2.003183 -2.140525 0
M  V30 46 H -3.164096 0.044876 -3.780345 0
M  V30 47 H -2.144744 1.488927 -3.262610 0
M  V30 48 H -1.690981 0.499285 -4.651952 0
M  V30 49 H 3.012279 -5.774766 -0.816669 0
M  V30 END ATOM
M  V30 BEGIN BOND
M  V30 1 1 1 2
M  V30 2 1 2 3
M  V30 3 1 3 4
M  V30 4 2 4 5
M  V30 5 1 5 6
M  V30 6 1 6 7
M  V30 7 1 7 8
M  V30 8 2 8 9
M  V30 9 1 9 10
M  V30 10 1 10 11
M  V30 11 2 10 12
M  V30 12 1 12 13
M  V30 13 2 13 14
M  V30 14 1 13 15
M  V30 15 1 15 16
M  V30 16 1 16 17
M  V30 17 1 17 18
M  V30 18 1 18 19
M  V30 19 1 19 20
M  V30 20 1 12 21
M  V30 21 2 21 22
M  V30 22 1 22 23
M  V30 23 1 23 24
M  V30 24 2 6 25
M  V30 25 1 25 26
M  V30 26 2 26 27
M  V30 27 1 27 28
M  V30 28 1 27 4
M  V30 29 1 22 8
M  V30 30 1 20 15
M  V30 31 1 1 29
M  V30 32 1 1 30
M  V30 33 1 1 31
M  V30 34 1 2 32
M  V30 35 1 2 33
M  V30 36 1 3 34
M  V30 37 1 7 35
M  V30 38 1 9 36
M  V30 39 1 16 37
M  V30 40 1 16 38
M  V30 41 1 17 39
M  V30 42 1 17 40
M  V30 43 1 19 41
M  V30 44 1 19 42
M  V30 45 1 20 43
M  V30 46 1 20 44
M  V30 47 1 21 45
M  V30 48 1 24 46
M  V30 49 1 24 47
M  V30 50 1 24 48
M  V30 51 1 26 49
M  V30 END BOND
M  V30 END CTAB
M  END
>  <Dataset>  (674) 
ChEMBL_Kinases

>  <Ligand_Instance>  (674) 
nan

>  <PDB_ID>  (674) 
nan

>  <Standardized_SMILES>  (674) 
CCNc1nc(Nc2cc(F)c(C(=O)N3CCOCC3)cc2OC)ncc1Cl

>  <Name>  (674) 
nan

>  <Pocket>  (674) 
nan

>  <ATP_Site>  (674) 
nan

>  <Peripheral>  (674) 
nan

>  <Num_H_Atoms_ProtBoundConf>  (674) 
nan

>  <Num_Resolved_Atoms>  (674) 
nan

>  <Num_Not_Resolved_Atoms>  (674) 
nan

$$$$
CHEMBL3641809
     RDKit          3D

  0  0  0  0  0  0  0  0  0  0999 V3000
M  V30 BEGIN CTAB
M  V30 COUNTS 52 55 0 0 0
M  V30 BEGIN ATOM
M  V30 1 C 1.007844 -5.851601 2.741544 0
M  V30 2 O 1.743832 -6.094804 1.555393 0
M  V30 3 C 1.529004 -5.404136 0.375658 0
M  V30 4 N 0.614023 -4.437015 0.216961 0
M  V30 5 C 0.434176 -3.784539 -0.958519 0
M  V30 6 N -0.588055 -2.800363 -0.881290 0
M  V30 7 C -0.256888 -1.447132 -0.615842 0
M  V30 8 C 1.086228 -1.080685 -0.469657 0
M  V30 9 C 1.564383 0.190705 -0.221137 0
M  V30 10 C 0.590710 1.161837 -0.114042 0
M  V30 11 C 1.018407 2.533878 0.150646 0
M  V30 12 O 0.854989 3.595709 -0.472245 0
M  V30 13 N 1.771874 2.675949 1.365742 0
M  V30 14 C 2.218569 4.011281 1.676392 0
M  V30 15 C 1.577260 4.401969 3.002161 0
M  V30 16 O 1.425453 3.352359 3.872328 0
M  V30 17 C 2.256133 2.281859 3.658998 0
M  V30 18 C 2.133691 1.636511 2.310665 0
M  V30 19 C -0.756308 0.893873 -0.243564 0
M  V30 20 C -1.169796 -0.398440 -0.491617 0
M  V30 21 O -2.500809 -0.765281 -0.636873 0
M  V30 22 C -3.601328 0.084965 -0.565020 0
M  V30 23 C -4.623668 -0.292239 -1.633468 0
M  V30 24 C -4.980929 -1.462208 -0.703826 0
M  V30 25 C -4.621154 -0.493956 0.431120 0
M  V30 26 N 1.209330 -4.117490 -2.025402 0
M  V30 27 C 2.140684 -5.088829 -1.893088 0
M  V30 28 C 2.348169 -5.778735 -0.694069 0
M  V30 29 Br 3.693499 -7.126534 -0.641498 0
M  V30 30 H 0.705142 -4.788416 2.800609 0
M  V30 31 H 0.030896 -6.415108 2.743358 0
M  V30 32 H 1.594361 -6.093818 3.649551 0
M  V30 33 H -1.607975 -2.968860 -1.004738 0
M  V30 34 H 1.818936 -1.885468 -0.563345 0
M  V30 35 H 2.623783 0.346741 -0.130057 0
M  V30 36 H 1.925053 4.776102 0.944050 0
M  V30 37 H 3.301337 3.970792 1.863922 0
M  V30 38 H 0.552974 4.773019 2.758148 0
M  V30 39 H 2.112327 5.278363 3.452497 0
M  V30 40 H 1.982853 1.517861 4.438112 0
M  V30 41 H 3.311966 2.544911 3.874438 0
M  V30 42 H 1.404773 0.799416 2.304752 0
M  V30 43 H 3.153530 1.272400 2.011169 0
M  V30 44 H -1.472830 1.673098 -0.153617 0
M  V30 45 H -3.425832 1.162616 -0.423418 0
M  V30 46 H -5.491765 0.410686 -1.625685 0
M  V30 47 H -4.226163 -0.598653 -2.600535 0
M  V30 48 H -6.019911 -1.790836 -0.735192 0
M  V30 49 H -4.193284 -2.236850 -0.823782 0
M  V30 50 H -5.476170 0.174934 0.620497 0
M  V30 51 H -4.077474 -0.917897 1.270092 0
M  V30 52 H 2.718491 -5.298485 -2.783588 0
M  V30 END ATOM
M  V30 BEGIN BOND
M  V30 1 1 1 2
M  V30 2 1 2 3
M  V30 3 2 3 4
M  V30 4 1 4 5
M  V30 5 1 5 6
M  V30 6 1 6 7
M  V30 7 2 7 8
M  V30 8 1 8 9
M  V30 9 2 9 10
M  V30 10 1 10 11
M  V30 11 2 11 12
M  V30 12 1 11 13
M  V30 13 1 13 14
M  V30 14 1 14 15
M  V30 15 1 15 16
M  V30 16 1 16 17
M  V30 17 1 17 18
M  V30 18 1 10 19
M  V30 19 2 19 20
M  V30 20 1 20 21
M  V30 21 1 21 22
M  V30 22 1 22 23
M  V30 23 1 23 24
M  V30 24 1 24 25
M  V30 25 2 5 26
M  V30 26 1 26 27
M  V30 27 2 27 28
M  V30 28 1 28 29
M  V30 29 1 28 3
M  V30 30 1 20 7
M  V30 31 1 25 22
M  V30 32 1 18 13
M  V30 33 1 1 30
M  V30 34 1 1 31
M  V30 35 1 1 32
M  V30 36 1 6 33
M  V30 37 1 8 34
M  V30 38 1 9 35
M  V30 39 1 14 36
M  V30 40 1 14 37
M  V30 41 1 15 38
M  V30 42 1 15 39
M  V30 43 1 17 40
M  V30 44 1 17 41
M  V30 45 1 18 42
M  V30 46 1 18 43
M  V30 47 1 19 44
M  V30 48 1 22 45
M  V30 49 1 23 46
M  V30 50 1 23 47
M  V30 51 1 24 48
M  V30 52 1 24 49
M  V30 53 1 25 50
M  V30 54 1 25 51
M  V30 55 1 27 52
M  V30 END BOND
M  V30 END CTAB
M  END
>  <Dataset>  (675) 
ChEMBL_Kinases

>  <Ligand_Instance>  (675) 
nan

>  <PDB_ID>  (675) 
nan

>  <Standardized_SMILES>  (675) 
COc1nc(Nc2ccc(C(=O)N3CCOCC3)cc2OC2CCC2)ncc1Br

>  <Name>  (675) 
nan

>  <Pocket>  (675) 
nan

>  <ATP_Site>  (675) 
nan

>  <Peripheral>  (675) 
nan

>  <Num_H_Atoms_ProtBoundConf>  (675) 
nan

>  <Num_Resolved_Atoms>  (675) 
nan

>  <Num_Not_Resolved_Atoms>  (675) 
nan

$$$$
CHEMBL3641808
     RDKit          3D

  0  0  0  0  0  0  0  0  0  0999 V3000
M  V30 BEGIN CTAB
M  V30 COUNTS 52 54 0 0 0
M  V30 BEGIN ATOM
M  V30 1 C -4.339289 4.234495 -3.478672 0
M  V30 2 C -4.829569 2.825895 -3.295663 0
M  V30 3 N -4.292829 1.872265 -4.201276 0
M  V30 4 C -4.775128 0.529447 -4.012436 0
M  V30 5 C -4.283021 -0.060565 -2.723225 0
M  V30 6 N -2.885230 0.242561 -2.480581 0
M  V30 7 C -2.322300 -0.547494 -1.476317 0
M  V30 8 O -3.161422 -1.370815 -0.984065 0
M  V30 9 C -1.000968 -0.615271 -0.895330 0
M  V30 10 C -0.324724 -1.823226 -1.030804 0
M  V30 11 C 0.945215 -1.904987 -0.474519 0
M  V30 12 C 1.473231 -0.799979 0.179110 0
M  V30 13 N 2.776177 -0.923571 0.737858 0
M  V30 14 C 3.671051 -2.029388 0.738776 0
M  V30 15 N 4.589855 -2.191839 -0.260260 0
M  V30 16 C 5.436928 -3.256440 -0.239890 0
M  V30 17 C 5.332401 -4.156636 0.819484 0
M  V30 18 Br 6.579602 -5.607061 0.728268 0
M  V30 19 C 4.386011 -3.972929 1.831638 0
M  V30 20 O 4.471002 -4.985422 2.765479 0
M  V30 21 C 3.629857 -5.044174 3.892750 0
M  V30 22 N 3.581062 -2.899670 1.748796 0
M  V30 23 C 0.798010 0.394670 0.310054 0
M  V30 24 O 1.433199 1.426177 0.985942 0
M  V30 25 C 0.746773 2.670869 1.129743 0
M  V30 26 C -0.464367 0.491821 -0.237144 0
M  V30 27 C -2.129015 1.241667 -3.179232 0
M  V30 28 C -2.874686 1.842897 -4.342063 0
M  V30 29 H -4.929504 4.851073 -2.739407 0
M  V30 30 H -4.624329 4.628340 -4.457482 0
M  V30 31 H -3.286334 4.388483 -3.183342 0
M  V30 32 H -5.941345 2.870910 -3.492699 0
M  V30 33 H -4.757519 2.537279 -2.232496 0
M  V30 34 H -5.899966 0.495610 -3.997973 0
M  V30 35 H -4.435197 -0.086567 -4.884059 0
M  V30 36 H -4.485308 -1.139243 -2.633292 0
M  V30 37 H -4.834324 0.439135 -1.882357 0
M  V30 38 H -0.784665 -2.653258 -1.550872 0
M  V30 39 H 1.520413 -2.838614 -0.555590 0
M  V30 40 H 3.245689 -0.148068 1.246279 0
M  V30 41 H 6.150891 -3.355080 -1.045124 0
M  V30 42 H 4.178407 -4.557791 4.739354 0
M  V30 43 H 3.456269 -6.098742 4.230427 0
M  V30 44 H 2.662706 -4.544970 3.764339 0
M  V30 45 H -0.130852 2.597919 1.792166 0
M  V30 46 H 0.412953 3.084634 0.163612 0
M  V30 47 H 1.423822 3.440689 1.574429 0
M  V30 48 H -1.008680 1.421538 -0.144140 0
M  V30 49 H -1.778893 2.083733 -2.542215 0
M  V30 50 H -1.258152 0.686624 -3.638952 0
M  V30 51 H -2.505038 2.885662 -4.568541 0
M  V30 52 H -2.681181 1.295095 -5.312594 0
M  V30 END ATOM
M  V30 BEGIN BOND
M  V30 1 1 1 2
M  V30 2 1 2 3
M  V30 3 1 3 4
M  V30 4 1 4 5
M  V30 5 1 5 6
M  V30 6 1 6 7
M  V30 7 2 7 8
M  V30 8 1 7 9
M  V30 9 2 9 10
M  V30 10 1 10 11
M  V30 11 2 11 12
M  V30 12 1 12 13
M  V30 13 1 13 14
M  V30 14 2 14 15
M  V30 15 1 15 16
M  V30 16 2 16 17
M  V30 17 1 17 18
M  V30 18 1 17 19
M  V30 19 1 19 20
M  V30 20 1 20 21
M  V30 21 2 19 22
M  V30 22 1 12 23
M  V30 23 1 23 24
M  V30 24 1 24 25
M  V30 25 2 23 26
M  V30 26 1 6 27
M  V30 27 1 27 28
M  V30 28 1 28 3
M  V30 29 1 26 9
M  V30 30 1 22 14
M  V30 31 1 1 29
M  V30 32 1 1 30
M  V30 33 1 1 31
M  V30 34 1 2 32
M  V30 35 1 2 33
M  V30 36 1 4 34
M  V30 37 1 4 35
M  V30 38 1 5 36
M  V30 39 1 5 37
M  V30 40 1 10 38
M  V30 41 1 11 39
M  V30 42 1 13 40
M  V30 43 1 16 41
M  V30 44 1 21 42
M  V30 45 1 21 43
M  V30 46 1 21 44
M  V30 47 1 25 45
M  V30 48 1 25 46
M  V30 49 1 25 47
M  V30 50 1 26 48
M  V30 51 1 27 49
M  V30 52 1 27 50
M  V30 53 1 28 51
M  V30 54 1 28 52
M  V30 END BOND
M  V30 END CTAB
M  END
>  <Dataset>  (676) 
ChEMBL_Kinases

>  <Ligand_Instance>  (676) 
nan

>  <PDB_ID>  (676) 
nan

>  <Standardized_SMILES>  (676) 
CCN1CCN(C(=O)c2ccc(Nc3ncc(Br)c(OC)n3)c(OC)c2)CC1

>  <Name>  (676) 
nan

>  <Pocket>  (676) 
nan

>  <ATP_Site>  (676) 
nan

>  <Peripheral>  (676) 
nan

>  <Num_H_Atoms_ProtBoundConf>  (676) 
nan

>  <Num_Resolved_Atoms>  (676) 
nan

>  <Num_Not_Resolved_Atoms>  (676) 
nan

$$$$
CHEMBL3641807
     RDKit          3D

  0  0  0  0  0  0  0  0  0  0999 V3000
M  V30 BEGIN CTAB
M  V30 COUNTS 43 45 0 0 0
M  V30 BEGIN ATOM
M  V30 1 C -0.415604 -7.567249 2.418653 0
M  V30 2 N -1.605658 -6.853706 2.849883 0
M  V30 3 C -1.737624 -5.475310 2.526637 0
M  V30 4 N -0.802464 -4.822453 1.841255 0
M  V30 5 C -0.837457 -3.531462 1.491084 0
M  V30 6 N 0.255549 -3.002682 0.757409 0
M  V30 7 C 0.449199 -1.685236 0.273971 0
M  V30 8 C -0.429861 -0.637547 0.436589 0
M  V30 9 C -0.264707 0.650817 -0.023902 0
M  V30 10 C 0.893738 0.932790 -0.719500 0
M  V30 11 C 1.209214 2.246750 -1.266274 0
M  V30 12 O 1.400839 2.491323 -2.489616 0
M  V30 13 N 1.331787 3.397608 -0.446001 0
M  V30 14 C 1.647366 4.684272 -1.034266 0
M  V30 15 C 2.845610 5.223975 -0.289506 0
M  V30 16 O 2.691659 5.306003 1.072098 0
M  V30 17 C 1.557549 4.727742 1.596513 0
M  V30 18 C 1.165573 3.416531 0.995590 0
M  V30 19 C 1.813950 -0.075611 -0.915288 0
M  V30 20 C 1.586106 -1.341116 -0.428190 0
M  V30 21 O 2.575676 -2.307907 -0.672880 0
M  V30 22 N -1.913882 -2.840038 1.867789 0
M  V30 23 C -2.892835 -3.434014 2.559640 0
M  V30 24 C -2.847802 -4.761716 2.914961 0
M  V30 25 Cl -4.144756 -5.488803 3.814647 0
M  V30 26 H -0.388555 -7.493042 1.328227 0
M  V30 27 H 0.447424 -6.961447 2.822065 0
M  V30 28 H -0.369101 -8.582391 2.813097 0
M  V30 29 H -2.362679 -7.322262 3.387488 0
M  V30 30 H 1.053773 -3.667505 0.525341 0
M  V30 31 H -1.351459 -0.786753 0.968138 0
M  V30 32 H -0.989426 1.429764 0.134182 0
M  V30 33 H 1.958203 4.586458 -2.096999 0
M  V30 34 H 0.824594 5.421517 -0.927175 0
M  V30 35 H 3.127700 6.180888 -0.777800 0
M  V30 36 H 3.720212 4.536365 -0.473909 0
M  V30 37 H 1.731752 4.557585 2.679769 0
M  V30 38 H 0.705729 5.465447 1.561859 0
M  V30 39 H 1.736743 2.619256 1.503185 0
M  V30 40 H 0.093074 3.263742 1.233033 0
M  V30 41 H 2.723518 0.131662 -1.457492 0
M  V30 42 H 3.505498 -2.228849 -0.281958 0
M  V30 43 H -3.723199 -2.782777 2.816443 0
M  V30 END ATOM
M  V30 BEGIN BOND
M  V30 1 1 1 2
M  V30 2 1 2 3
M  V30 3 2 3 4
M  V30 4 1 4 5
M  V30 5 1 5 6
M  V30 6 1 6 7
M  V30 7 2 7 8
M  V30 8 1 8 9
M  V30 9 2 9 10
M  V30 10 1 10 11
M  V30 11 2 11 12
M  V30 12 1 11 13
M  V30 13 1 13 14
M  V30 14 1 14 15
M  V30 15 1 15 16
M  V30 16 1 16 17
M  V30 17 1 17 18
M  V30 18 1 10 19
M  V30 19 2 19 20
M  V30 20 1 20 21
M  V30 21 2 5 22
M  V30 22 1 22 23
M  V30 23 2 23 24
M  V30 24 1 24 25
M  V30 25 1 24 3
M  V30 26 1 20 7
M  V30 27 1 18 13
M  V30 28 1 1 26
M  V30 29 1 1 27
M  V30 30 1 1 28
M  V30 31 1 2 29
M  V30 32 1 6 30
M  V30 33 1 8 31
M  V30 34 1 9 32
M  V30 35 1 14 33
M  V30 36 1 14 34
M  V30 37 1 15 35
M  V30 38 1 15 36
M  V30 39 1 17 37
M  V30 40 1 17 38
M  V30 41 1 18 39
M  V30 42 1 18 40
M  V30 43 1 19 41
M  V30 44 1 21 42
M  V30 45 1 23 43
M  V30 END BOND
M  V30 END CTAB
M  END
>  <Dataset>  (677) 
ChEMBL_Kinases

>  <Ligand_Instance>  (677) 
nan

>  <PDB_ID>  (677) 
nan

>  <Standardized_SMILES>  (677) 
CNc1nc(Nc2ccc(C(=O)N3CCOCC3)cc2O)ncc1Cl

>  <Name>  (677) 
nan

>  <Pocket>  (677) 
nan

>  <ATP_Site>  (677) 
nan

>  <Peripheral>  (677) 
nan

>  <Num_H_Atoms_ProtBoundConf>  (677) 
nan

>  <Num_Resolved_Atoms>  (677) 
nan

>  <Num_Not_Resolved_Atoms>  (677) 
nan

$$$$
CHEMBL3641806
     RDKit          3D

  0  0  0  0  0  0  0  0  0  0999 V3000
M  V30 BEGIN CTAB
M  V30 COUNTS 53 56 0 0 0
M  V30 BEGIN ATOM
M  V30 1 C 1.771588 -3.227215 4.257173 0
M  V30 2 O 0.593951 -2.644249 3.720993 0
M  V30 3 C 0.601491 -1.467370 3.001356 0
M  V30 4 C 1.814093 -0.815311 2.786322 0
M  V30 5 C 1.857369 0.364061 2.070709 0
M  V30 6 C 3.123595 1.052306 1.838784 0
M  V30 7 O 4.024046 1.459854 2.628410 0
M  V30 8 N 3.491873 1.361497 0.501324 0
M  V30 9 C 4.771851 2.051776 0.304924 0
M  V30 10 C 5.557590 1.131635 -0.621455 0
M  V30 11 O 4.917270 0.919769 -1.817333 0
M  V30 12 C 3.643872 0.424087 -1.748435 0
M  V30 13 C 2.760696 1.082184 -0.718537 0
M  V30 14 C 0.715706 0.903595 1.566964 0
M  V30 15 C -0.458817 0.225277 1.804033 0
M  V30 16 C -0.591493 -0.962083 2.510840 0
M  V30 17 N -1.849902 -1.609694 2.712028 0
M  V30 18 C -2.985546 -0.936326 2.138067 0
M  V30 19 N -3.704085 -0.013537 2.816836 0
M  V30 20 C -4.764636 0.599867 2.230956 0
M  V30 21 C -5.116304 0.284926 0.937136 0
M  V30 22 Cl -6.464423 1.020046 0.099148 0
M  V30 23 C -4.384147 -0.661065 0.233455 0
M  V30 24 N -4.662310 -1.055970 -1.097285 0
M  V30 25 C -4.013667 -2.002956 -1.947806 0
M  V30 26 C -3.998376 -3.427317 -1.371242 0
M  V30 27 C -2.558764 -3.593218 -1.852017 0
M  V30 28 C -2.499649 -2.062196 -1.905962 0
M  V30 29 N -3.360438 -1.211819 0.887099 0
M  V30 30 H 1.549582 -4.333896 4.312255 0
M  V30 31 H 2.013096 -2.847622 5.271470 0
M  V30 32 H 2.633818 -3.165319 3.560521 0
M  V30 33 H 2.754769 -1.173532 3.148496 0
M  V30 34 H 4.570422 2.966903 -0.247940 0
M  V30 35 H 5.343809 2.156237 1.231086 0
M  V30 36 H 5.850725 0.193465 -0.097274 0
M  V30 37 H 6.517090 1.647552 -0.861925 0
M  V30 38 H 3.168340 0.613104 -2.744952 0
M  V30 39 H 3.581354 -0.668810 -1.601417 0
M  V30 40 H 2.437679 2.087344 -1.109664 0
M  V30 41 H 1.868112 0.462291 -0.578230 0
M  V30 42 H 0.665841 1.834872 0.989183 0
M  V30 43 H -1.377802 0.646998 1.406152 0
M  V30 44 H -1.824299 -2.498132 3.249433 0
M  V30 45 H -5.355465 1.341990 2.752145 0
M  V30 46 H -5.500400 -0.549589 -1.517829 0
M  V30 47 H -4.384739 -2.005510 -3.006178 0
M  V30 48 H -4.096680 -3.390258 -0.272762 0
M  V30 49 H -4.665919 -4.088351 -1.926849 0
M  V30 50 H -2.482743 -4.011557 -2.871839 0
M  V30 51 H -1.864959 -4.070406 -1.152399 0
M  V30 52 H -2.033963 -1.660633 -2.843236 0
M  V30 53 H -2.014034 -1.691679 -0.987125 0
M  V30 END ATOM
M  V30 BEGIN BOND
M  V30 1 1 1 2
M  V30 2 1 2 3
M  V30 3 2 3 4
M  V30 4 1 4 5
M  V30 5 1 5 6
M  V30 6 2 6 7
M  V30 7 1 6 8
M  V30 8 1 8 9
M  V30 9 1 9 10
M  V30 10 1 10 11
M  V30 11 1 11 12
M  V30 12 1 12 13
M  V30 13 2 5 14
M  V30 14 1 14 15
M  V30 15 2 15 16
M  V30 16 1 16 17
M  V30 17 1 17 18
M  V30 18 2 18 19
M  V30 19 1 19 20
M  V30 20 2 20 21
M  V30 21 1 21 22
M  V30 22 1 21 23
M  V30 23 1 23 24
M  V30 24 1 24 25
M  V30 25 1 25 26
M  V30 26 1 26 27
M  V30 27 1 27 28
M  V30 28 2 23 29
M  V30 29 1 16 3
M  V30 30 1 29 18
M  V30 31 1 13 8
M  V30 32 1 28 25
M  V30 33 1 1 30
M  V30 34 1 1 31
M  V30 35 1 1 32
M  V30 36 1 4 33
M  V30 37 1 9 34
M  V30 38 1 9 35
M  V30 39 1 10 36
M  V30 40 1 10 37
M  V30 41 1 12 38
M  V30 42 1 12 39
M  V30 43 1 13 40
M  V30 44 1 13 41
M  V30 45 1 14 42
M  V30 46 1 15 43
M  V30 47 1 17 44
M  V30 48 1 20 45
M  V30 49 1 24 46
M  V30 50 1 25 47
M  V30 51 1 26 48
M  V30 52 1 26 49
M  V30 53 1 27 50
M  V30 54 1 27 51
M  V30 55 1 28 52
M  V30 56 1 28 53
M  V30 END BOND
M  V30 END CTAB
M  END
>  <Dataset>  (678) 
ChEMBL_Kinases

>  <Ligand_Instance>  (678) 
nan

>  <PDB_ID>  (678) 
nan

>  <Standardized_SMILES>  (678) 
COc1cc(C(=O)N2CCOCC2)ccc1Nc1ncc(Cl)c(NC2CCC2)n1

>  <Name>  (678) 
nan

>  <Pocket>  (678) 
nan

>  <ATP_Site>  (678) 
nan

>  <Peripheral>  (678) 
nan

>  <Num_H_Atoms_ProtBoundConf>  (678) 
nan

>  <Num_Resolved_Atoms>  (678) 
nan

>  <Num_Not_Resolved_Atoms>  (678) 
nan

$$$$
CHEMBL3641805
     RDKit          3D

  0  0  0  0  0  0  0  0  0  0999 V3000
M  V30 BEGIN CTAB
M  V30 COUNTS 53 56 0 0 0
M  V30 BEGIN ATOM
M  V30 1 C 0.045649 -5.415605 3.081350 0
M  V30 2 O -0.351998 -4.074547 3.053568 0
M  V30 3 C 0.361982 -3.012880 2.544332 0
M  V30 4 C 1.624998 -3.117947 1.949921 0
M  V30 5 C 2.334461 -2.053343 1.437071 0
M  V30 6 C 3.659297 -2.254002 0.829024 0
M  V30 7 O 4.700762 -2.767234 1.301214 0
M  V30 8 N 3.893085 -1.822165 -0.526448 0
M  V30 9 C 5.253741 -2.081544 -1.014026 0
M  V30 10 C 5.530017 -1.034368 -2.071524 0
M  V30 11 O 5.000108 0.186458 -1.657848 0
M  V30 12 C 3.611601 0.200249 -1.741492 0
M  V30 13 C 3.025502 -1.182186 -1.486622 0
M  V30 14 C 1.736831 -0.812000 1.528516 0
M  V30 15 C 0.493903 -0.665466 2.107071 0
M  V30 16 C -0.192302 -1.749880 2.612056 0
M  V30 17 N -1.460137 -1.490139 3.202623 0
M  V30 18 C -2.030150 -0.164433 3.213218 0
M  V30 19 N -1.913869 0.889925 4.004515 0
M  V30 20 C -2.563699 2.037022 3.798871 0
M  V30 21 C -3.411572 2.120077 2.684227 0
M  V30 22 Cl -4.165457 3.723141 2.606942 0
M  V30 23 C -3.541099 1.007104 1.840644 0
M  V30 24 N -4.440274 1.426763 0.856513 0
M  V30 25 C -5.337830 1.842309 -0.127831 0
M  V30 26 C -4.767946 1.797245 -1.543300 0
M  V30 27 C -4.304340 0.488370 -2.054805 0
M  V30 28 C -3.298450 1.530917 -1.601942 0
M  V30 29 N -2.839841 -0.083892 2.149967 0
M  V30 30 H -0.762455 -6.087494 2.670793 0
M  V30 31 H 0.209641 -5.779173 4.138206 0
M  V30 32 H 0.958107 -5.621636 2.514259 0
M  V30 33 H 2.086747 -4.074687 1.879430 0
M  V30 34 H 5.957922 -1.865029 -0.175358 0
M  V30 35 H 5.360434 -3.099646 -1.418224 0
M  V30 36 H 6.600418 -0.909670 -2.305610 0
M  V30 37 H 4.979559 -1.304806 -2.989027 0
M  V30 38 H 3.227887 0.882341 -0.948633 0
M  V30 39 H 3.280577 0.549842 -2.740647 0
M  V30 40 H 2.022320 -1.031942 -1.028726 0
M  V30 41 H 2.872807 -1.738445 -2.416894 0
M  V30 42 H 2.239920 0.059540 1.145357 0
M  V30 43 H 0.067179 0.324998 2.155164 0
M  V30 44 H -2.134466 -2.114954 3.679874 0
M  V30 45 H -2.324613 2.760243 4.560317 0
M  V30 46 H -4.415880 0.470314 0.373623 0
M  V30 47 H -5.597279 2.949794 0.033546 0
M  V30 48 H -6.332095 1.335321 -0.170958 0
M  V30 49 H -5.221019 2.525979 -2.275056 0
M  V30 50 H -4.230996 0.285108 -3.144811 0
M  V30 51 H -4.502175 -0.402716 -1.429601 0
M  V30 52 H -2.673420 2.047567 -2.367085 0
M  V30 53 H -2.736025 1.357217 -0.648143 0
M  V30 END ATOM
M  V30 BEGIN BOND
M  V30 1 1 1 2
M  V30 2 1 2 3
M  V30 3 2 3 4
M  V30 4 1 4 5
M  V30 5 1 5 6
M  V30 6 2 6 7
M  V30 7 1 6 8
M  V30 8 1 8 9
M  V30 9 1 9 10
M  V30 10 1 10 11
M  V30 11 1 11 12
M  V30 12 1 12 13
M  V30 13 2 5 14
M  V30 14 1 14 15
M  V30 15 2 15 16
M  V30 16 1 16 17
M  V30 17 1 17 18
M  V30 18 2 18 19
M  V30 19 1 19 20
M  V30 20 2 20 21
M  V30 21 1 21 22
M  V30 22 1 21 23
M  V30 23 1 23 24
M  V30 24 1 24 25
M  V30 25 1 25 26
M  V30 26 1 26 27
M  V30 27 1 27 28
M  V30 28 2 23 29
M  V30 29 1 16 3
M  V30 30 1 29 18
M  V30 31 1 13 8
M  V30 32 1 28 26
M  V30 33 1 1 30
M  V30 34 1 1 31
M  V30 35 1 1 32
M  V30 36 1 4 33
M  V30 37 1 9 34
M  V30 38 1 9 35
M  V30 39 1 10 36
M  V30 40 1 10 37
M  V30 41 1 12 38
M  V30 42 1 12 39
M  V30 43 1 13 40
M  V30 44 1 13 41
M  V30 45 1 14 42
M  V30 46 1 15 43
M  V30 47 1 17 44
M  V30 48 1 20 45
M  V30 49 1 24 46
M  V30 50 1 25 47
M  V30 51 1 25 48
M  V30 52 1 26 49
M  V30 53 1 27 50
M  V30 54 1 27 51
M  V30 55 1 28 52
M  V30 56 1 28 53
M  V30 END BOND
M  V30 END CTAB
M  END
>  <Dataset>  (679) 
ChEMBL_Kinases

>  <Ligand_Instance>  (679) 
nan

>  <PDB_ID>  (679) 
nan

>  <Standardized_SMILES>  (679) 
COc1cc(C(=O)N2CCOCC2)ccc1Nc1ncc(Cl)c(NCC2CC2)n1

>  <Name>  (679) 
nan

>  <Pocket>  (679) 
nan

>  <ATP_Site>  (679) 
nan

>  <Peripheral>  (679) 
nan

>  <Num_H_Atoms_ProtBoundConf>  (679) 
nan

>  <Num_Resolved_Atoms>  (679) 
nan

>  <Num_Not_Resolved_Atoms>  (679) 
nan

$$$$
CHEMBL3641804
     RDKit          3D

  0  0  0  0  0  0  0  0  0  0999 V3000
M  V30 BEGIN CTAB
M  V30 COUNTS 52 54 0 0 0
M  V30 BEGIN ATOM
M  V30 1 C 0.846891 -4.552081 2.782034 0
M  V30 2 N 1.444570 -5.360524 1.720977 0
M  V30 3 C 1.059805 -5.063337 0.363004 0
M  V30 4 N 0.188303 -4.078136 0.062414 0
M  V30 5 C -0.183311 -3.781472 -1.221576 0
M  V30 6 N -1.097043 -2.677158 -1.101903 0
M  V30 7 C -0.573904 -1.377221 -0.787618 0
M  V30 8 C 0.814894 -1.314595 -0.623908 0
M  V30 9 C 1.426748 -0.126070 -0.304238 0
M  V30 10 C 0.708095 1.026746 -0.134778 0
M  V30 11 C 1.286401 2.332434 0.211605 0
M  V30 12 O 1.266725 3.431029 -0.354028 0
M  V30 13 N 1.997737 2.268973 1.448753 0
M  V30 14 C 2.622796 3.493695 1.910871 0
M  V30 15 C 2.006860 3.818369 3.273944 0
M  V30 16 O 2.199894 2.760103 4.159538 0
M  V30 17 C 1.562970 1.617170 3.706763 0
M  V30 18 C 2.242593 1.201263 2.393332 0
M  V30 19 C -0.673643 0.973943 -0.297091 0
M  V30 20 C -1.319180 -0.202676 -0.619300 0
M  V30 21 O -2.656088 -0.446519 -0.816098 0
M  V30 22 C -3.704579 0.476316 -0.717975 0
M  V30 23 C -4.412370 0.656221 -2.059302 0
M  V30 24 C -4.729538 -0.177309 0.219487 0
M  V30 25 N 0.315764 -4.476638 -2.261792 0
M  V30 26 C 1.197370 -5.479468 -2.017670 0
M  V30 27 C 1.568493 -5.773607 -0.719711 0
M  V30 28 Cl 2.705232 -7.062825 -0.441320 0
M  V30 29 H -0.065003 -5.057200 3.118793 0
M  V30 30 H 1.514692 -4.477257 3.672919 0
M  V30 31 H 0.554566 -3.564202 2.368925 0
M  V30 32 H 2.131047 -6.133867 1.836347 0
M  V30 33 H -2.071897 -2.994828 -1.276050 0
M  V30 34 H 1.507612 -2.161861 -0.725323 0
M  V30 35 H 2.508507 -0.071345 -0.183441 0
M  V30 36 H 3.708101 3.276140 2.123955 0
M  V30 37 H 2.460962 4.341203 1.241413 0
M  V30 38 H 0.924936 4.026555 3.111720 0
M  V30 39 H 2.524765 4.697285 3.657014 0
M  V30 40 H 0.515413 1.764572 3.453725 0
M  V30 41 H 1.737371 0.799412 4.424205 0
M  V30 42 H 3.354562 1.103570 2.576278 0
M  V30 43 H 1.869268 0.217352 2.083167 0
M  V30 44 H -1.352554 1.814919 -0.191832 0
M  V30 45 H -3.421343 1.471450 -0.357289 0
M  V30 46 H -5.501381 0.665109 -1.872806 0
M  V30 47 H -4.115583 1.581375 -2.562725 0
M  V30 48 H -4.194519 -0.216534 -2.715436 0
M  V30 49 H -5.710876 0.293996 0.159875 0
M  V30 50 H -4.837698 -1.263903 -0.077222 0
M  V30 51 H -4.339647 -0.129765 1.241899 0
M  V30 52 H 1.550554 -5.985346 -2.898838 0
M  V30 END ATOM
M  V30 BEGIN BOND
M  V30 1 1 1 2
M  V30 2 1 2 3
M  V30 3 2 3 4
M  V30 4 1 4 5
M  V30 5 1 5 6
M  V30 6 1 6 7
M  V30 7 2 7 8
M  V30 8 1 8 9
M  V30 9 2 9 10
M  V30 10 1 10 11
M  V30 11 2 11 12
M  V30 12 1 11 13
M  V30 13 1 13 14
M  V30 14 1 14 15
M  V30 15 1 15 16
M  V30 16 1 16 17
M  V30 17 1 17 18
M  V30 18 1 10 19
M  V30 19 2 19 20
M  V30 20 1 20 21
M  V30 21 1 21 22
M  V30 22 1 22 23
M  V30 23 1 22 24
M  V30 24 2 5 25
M  V30 25 1 25 26
M  V30 26 2 26 27
M  V30 27 1 27 28
M  V30 28 1 27 3
M  V30 29 1 20 7
M  V30 30 1 18 13
M  V30 31 1 1 29
M  V30 32 1 1 30
M  V30 33 1 1 31
M  V30 34 1 2 32
M  V30 35 1 6 33
M  V30 36 1 8 34
M  V30 37 1 9 35
M  V30 38 1 14 36
M  V30 39 1 14 37
M  V30 40 1 15 38
M  V30 41 1 15 39
M  V30 42 1 17 40
M  V30 43 1 17 41
M  V30 44 1 18 42
M  V30 45 1 18 43
M  V30 46 1 19 44
M  V30 47 1 22 45
M  V30 48 1 23 46
M  V30 49 1 23 47
M  V30 50 1 23 48
M  V30 51 1 24 49
M  V30 52 1 24 50
M  V30 53 1 24 51
M  V30 54 1 26 52
M  V30 END BOND
M  V30 END CTAB
M  END
>  <Dataset>  (680) 
ChEMBL_Kinases

>  <Ligand_Instance>  (680) 
nan

>  <PDB_ID>  (680) 
nan

>  <Standardized_SMILES>  (680) 
CNc1nc(Nc2ccc(C(=O)N3CCOCC3)cc2OC(C)C)ncc1Cl

>  <Name>  (680) 
nan

>  <Pocket>  (680) 
nan

>  <ATP_Site>  (680) 
nan

>  <Peripheral>  (680) 
nan

>  <Num_H_Atoms_ProtBoundConf>  (680) 
nan

>  <Num_Resolved_Atoms>  (680) 
nan

>  <Num_Not_Resolved_Atoms>  (680) 
nan

$$$$
CHEMBL3641803
     RDKit          3D

  0  0  0  0  0  0  0  0  0  0999 V3000
M  V30 BEGIN CTAB
M  V30 COUNTS 55 58 0 0 0
M  V30 BEGIN ATOM
M  V30 1 C -0.877600 -3.578591 5.128891 0
M  V30 2 N 0.439916 -4.078168 5.484968 0
M  V30 3 C 1.459295 -4.251544 4.494179 0
M  V30 4 N 1.231909 -3.957686 3.208749 0
M  V30 5 C 2.126680 -4.089083 2.243777 0
M  V30 6 N 1.656782 -3.722480 0.956968 0
M  V30 7 C 1.602854 -2.413076 0.402870 0
M  V30 8 C 2.020854 -1.347366 1.170728 0
M  V30 9 C 1.969464 -0.065653 0.665521 0
M  V30 10 C 1.489860 0.094435 -0.618131 0
M  V30 11 C 1.351079 1.379100 -1.329777 0
M  V30 12 O 2.013643 1.549109 -2.394391 0
M  V30 13 N 0.436736 2.261238 -0.651286 0
M  V30 14 C -0.353942 2.143358 0.559893 0
M  V30 15 C -1.836742 2.169797 0.267263 0
M  V30 16 N -2.166301 2.832053 -0.917399 0
M  V30 17 C -3.161510 2.345447 -1.769653 0
M  V30 18 C -3.040657 1.000336 -2.386444 0
M  V30 19 O -4.420537 0.833162 -2.241518 0
M  V30 20 C -4.361117 1.692321 -1.145949 0
M  V30 21 C -1.283457 3.781650 -1.464170 0
M  V30 22 C 0.166194 3.575504 -1.191312 0
M  V30 23 C 1.062427 -0.966140 -1.413441 0
M  V30 24 C 1.124435 -2.246346 -0.880884 0
M  V30 25 O 0.732153 -3.369375 -1.566951 0
M  V30 26 C 0.227452 -3.432748 -2.856496 0
M  V30 27 N 3.338390 -4.554056 2.621588 0
M  V30 28 C 3.605914 -4.858117 3.884544 0
M  V30 29 C 2.697944 -4.732054 4.906568 0
M  V30 30 Br 3.060268 -5.161846 6.721198 0
M  V30 31 H -1.028205 -2.520069 5.478615 0
M  V30 32 H -1.002938 -3.585503 4.004923 0
M  V30 33 H -1.686533 -4.187735 5.572359 0
M  V30 34 H 0.615355 -4.303905 6.480002 0
M  V30 35 H 1.337694 -4.564929 0.430064 0
M  V30 36 H 2.399676 -1.445813 2.176059 0
M  V30 37 H 2.271287 0.834775 1.180900 0
M  V30 38 H -0.149858 2.990781 1.268238 0
M  V30 39 H -0.091062 1.232080 1.149998 0
M  V30 40 H -2.358785 2.690654 1.126389 0
M  V30 41 H -2.184608 1.121200 0.353634 0
M  V30 42 H -3.483386 3.102387 -2.503011 0
M  V30 43 H -2.511796 0.282436 -1.755551 0
M  V30 44 H -2.757467 0.984302 -3.470433 0
M  V30 45 H -5.281371 2.281117 -1.056977 0
M  V30 46 H -4.189828 1.137516 -0.206896 0
M  V30 47 H -1.572908 4.785247 -1.021461 0
M  V30 48 H -1.455527 3.843971 -2.564585 0
M  V30 49 H 0.545141 4.325540 -0.442693 0
M  V30 50 H 0.793930 3.725454 -2.111580 0
M  V30 51 H 0.685499 -0.908516 -2.404951 0
M  V30 52 H 0.082594 -4.501772 -3.128459 0
M  V30 53 H -0.781222 -2.969959 -2.869267 0
M  V30 54 H 0.838064 -2.892999 -3.608565 0
M  V30 55 H 4.598947 -5.230377 4.140590 0
M  V30 END ATOM
M  V30 BEGIN BOND
M  V30 1 1 1 2
M  V30 2 1 2 3
M  V30 3 2 3 4
M  V30 4 1 4 5
M  V30 5 1 5 6
M  V30 6 1 6 7
M  V30 7 2 7 8
M  V30 8 1 8 9
M  V30 9 2 9 10
M  V30 10 1 10 11
M  V30 11 2 11 12
M  V30 12 1 11 13
M  V30 13 1 13 14
M  V30 14 1 14 15
M  V30 15 1 15 16
M  V30 16 1 16 17
M  V30 17 1 17 18
M  V30 18 1 18 19
M  V30 19 1 19 20
M  V30 20 1 16 21
M  V30 21 1 21 22
M  V30 22 1 10 23
M  V30 23 2 23 24
M  V30 24 1 24 25
M  V30 25 1 25 26
M  V30 26 2 5 27
M  V30 27 1 27 28
M  V30 28 2 28 29
M  V30 29 1 29 30
M  V30 30 1 29 3
M  V30 31 1 24 7
M  V30 32 1 22 13
M  V30 33 1 20 17
M  V30 34 1 1 31
M  V30 35 1 1 32
M  V30 36 1 1 33
M  V30 37 1 2 34
M  V30 38 1 6 35
M  V30 39 1 8 36
M  V30 40 1 9 37
M  V30 41 1 14 38
M  V30 42 1 14 39
M  V30 43 1 15 40
M  V30 44 1 15 41
M  V30 45 1 17 42
M  V30 46 1 18 43
M  V30 47 1 18 44
M  V30 48 1 20 45
M  V30 49 1 20 46
M  V30 50 1 21 47
M  V30 51 1 21 48
M  V30 52 1 22 49
M  V30 53 1 22 50
M  V30 54 1 23 51
M  V30 55 1 26 52
M  V30 56 1 26 53
M  V30 57 1 26 54
M  V30 58 1 28 55
M  V30 END BOND
M  V30 END CTAB
M  END
>  <Dataset>  (681) 
ChEMBL_Kinases

>  <Ligand_Instance>  (681) 
nan

>  <PDB_ID>  (681) 
nan

>  <Standardized_SMILES>  (681) 
CNc1nc(Nc2ccc(C(=O)N3CCN(C4COC4)CC3)cc2OC)ncc1Br

>  <Name>  (681) 
nan

>  <Pocket>  (681) 
nan

>  <ATP_Site>  (681) 
nan

>  <Peripheral>  (681) 
nan

>  <Num_H_Atoms_ProtBoundConf>  (681) 
nan

>  <Num_Resolved_Atoms>  (681) 
nan

>  <Num_Not_Resolved_Atoms>  (681) 
nan

$$$$
CHEMBL3641802
     RDKit          3D

  0  0  0  0  0  0  0  0  0  0999 V3000
M  V30 BEGIN CTAB
M  V30 COUNTS 46 48 0 0 0
M  V30 BEGIN ATOM
M  V30 1 C -2.268695 -1.471278 4.984769 0
M  V30 2 N -3.495080 -2.109422 4.544201 0
M  V30 3 C -3.886113 -2.228779 3.183880 0
M  V30 4 N -3.172390 -1.770169 2.159001 0
M  V30 5 C -3.493311 -1.856152 0.864386 0
M  V30 6 N -2.708293 -1.346595 -0.204240 0
M  V30 7 C -1.474291 -0.650680 -0.195290 0
M  V30 8 C -0.812514 -0.373358 0.989829 0
M  V30 9 C 0.387151 0.301159 1.073000 0
M  V30 10 C 0.997881 0.743703 -0.079072 0
M  V30 11 C 2.258358 1.461637 -0.092025 0
M  V30 12 O 2.348905 2.595363 -0.650857 0
M  V30 13 N 3.522152 1.100565 0.451858 0
M  V30 14 C 4.652070 1.995498 0.310875 0
M  V30 15 C 5.737559 1.013182 -0.095081 0
M  V30 16 C 5.327917 -0.332156 0.434412 0 CFG=1
M  V30 17 O 6.291240 -0.897181 1.268490 0
M  V30 18 C 4.054462 -0.045961 1.195036 0
M  V30 19 C 0.350603 0.474495 -1.265102 0
M  V30 20 C -0.846229 -0.197187 -1.364096 0
M  V30 21 O -1.503470 -0.472206 -2.533555 0
M  V30 22 C -1.141770 -0.160308 -3.834433 0
M  V30 23 N -4.649436 -2.464914 0.565336 0
M  V30 24 C -5.449206 -2.965081 1.516553 0
M  V30 25 C -5.065951 -2.846654 2.832583 0
M  V30 26 Br -6.199486 -3.555671 4.188523 0
M  V30 27 H -1.410849 -1.975700 4.460168 0
M  V30 28 H -2.170737 -1.487373 6.068053 0
M  V30 29 H -2.276296 -0.425194 4.585007 0
M  V30 30 H -4.126292 -2.504957 5.275167 0
M  V30 31 H -3.086627 -1.501637 -1.183597 0
M  V30 32 H -1.166817 -0.654343 1.956538 0
M  V30 33 H 0.912573 0.522621 1.991814 0
M  V30 34 H 4.888325 2.361815 1.323555 0
M  V30 35 H 4.516937 2.779686 -0.431126 0
M  V30 36 H 6.709741 1.262541 0.382478 0
M  V30 37 H 5.838254 0.967008 -1.206659 0
M  V30 38 H 5.040856 -1.058943 -0.364344 0
M  V30 39 H 6.526484 -1.797710 0.919036 0
M  V30 40 H 3.356898 -0.892190 1.239663 0
M  V30 41 H 4.292248 0.362686 2.209911 0
M  V30 42 H 0.819234 0.815969 -2.176570 0
M  V30 43 H -1.880899 0.541503 -4.294949 0
M  V30 44 H -1.172571 -1.058023 -4.519753 0
M  V30 45 H -0.111591 0.204022 -3.872738 0
M  V30 46 H -6.372637 -3.450099 1.277269 0
M  V30 END ATOM
M  V30 BEGIN BOND
M  V30 1 1 1 2
M  V30 2 1 2 3
M  V30 3 2 3 4
M  V30 4 1 4 5
M  V30 5 1 5 6
M  V30 6 1 6 7
M  V30 7 2 7 8
M  V30 8 1 8 9
M  V30 9 2 9 10
M  V30 10 1 10 11
M  V30 11 2 11 12
M  V30 12 1 11 13
M  V30 13 1 13 14
M  V30 14 1 14 15
M  V30 15 1 15 16
M  V30 16 1 16 17
M  V30 17 1 16 18
M  V30 18 1 10 19
M  V30 19 2 19 20
M  V30 20 1 20 21
M  V30 21 1 21 22
M  V30 22 2 5 23
M  V30 23 1 23 24
M  V30 24 2 24 25
M  V30 25 1 25 26
M  V30 26 1 25 3
M  V30 27 1 20 7
M  V30 28 1 18 13
M  V30 29 1 1 27
M  V30 30 1 1 28
M  V30 31 1 1 29
M  V30 32 1 2 30
M  V30 33 1 6 31
M  V30 34 1 8 32
M  V30 35 1 9 33
M  V30 36 1 14 34
M  V30 37 1 14 35
M  V30 38 1 15 36
M  V30 39 1 15 37
M  V30 40 1 16 38 CFG=3
M  V30 41 1 17 39
M  V30 42 1 18 40
M  V30 43 1 18 41
M  V30 44 1 19 42
M  V30 45 1 22 43
M  V30 46 1 22 44
M  V30 47 1 22 45
M  V30 48 1 24 46
M  V30 END BOND
M  V30 END CTAB
M  END
>  <Dataset>  (682) 
ChEMBL_Kinases

>  <Ligand_Instance>  (682) 
nan

>  <PDB_ID>  (682) 
nan

>  <Standardized_SMILES>  (682) 
CNc1nc(Nc2ccc(C(=O)N3CC[C@@H](O)C3)cc2OC)ncc1Br

>  <Name>  (682) 
nan

>  <Pocket>  (682) 
nan

>  <ATP_Site>  (682) 
nan

>  <Peripheral>  (682) 
nan

>  <Num_H_Atoms_ProtBoundConf>  (682) 
nan

>  <Num_Resolved_Atoms>  (682) 
nan

>  <Num_Not_Resolved_Atoms>  (682) 
nan

$$$$
CHEMBL3641801
     RDKit          3D

  0  0  0  0  0  0  0  0  0  0999 V3000
M  V30 BEGIN CTAB
M  V30 COUNTS 52 54 0 0 0
M  V30 BEGIN ATOM
M  V30 1 C 0.173282 -4.375982 3.505465 0
M  V30 2 N 0.953639 -5.513459 3.039354 0
M  V30 3 C 1.515657 -5.582756 1.731811 0
M  V30 4 N 1.320057 -4.556085 0.890299 0
M  V30 5 C 1.801296 -4.514784 -0.353248 0
M  V30 6 N 1.626269 -3.459332 -1.288162 0
M  V30 7 C 0.906592 -2.248070 -1.129714 0
M  V30 8 C 0.212486 -1.879556 0.000911 0
M  V30 9 C -0.500991 -0.693799 0.167614 0
M  V30 10 C -0.512803 0.201721 -0.909387 0
M  V30 11 C -1.283757 1.412186 -0.654274 0
M  V30 12 O -2.311175 1.114626 -1.354483 0
M  V30 13 N -1.044580 2.584257 0.110327 0
M  V30 14 C 0.022914 3.102622 0.942718 0
M  V30 15 C -0.523582 3.971091 2.055784 0
M  V30 16 C -1.806735 3.284247 2.549287 0
M  V30 17 O -1.493977 1.934759 2.632393 0
M  V30 18 C -1.629274 1.402795 3.894161 0
M  V30 19 C -2.867610 3.456597 1.454245 0
M  V30 20 C -2.148106 3.539353 0.091526 0
M  V30 21 C 0.170791 -0.135330 -2.053612 0
M  V30 22 C 0.854951 -1.319387 -2.155646 0
M  V30 23 O 1.527727 -1.581002 -3.363946 0
M  V30 24 C 1.519277 -0.679047 -4.456605 0
M  V30 25 N 2.515261 -5.578897 -0.748361 0
M  V30 26 C 2.772774 -6.653843 0.002174 0
M  V30 27 C 2.254671 -6.644711 1.273044 0
M  V30 28 Br 2.523164 -8.107808 2.491691 0
M  V30 29 H 0.869071 -3.516958 3.675263 0
M  V30 30 H -0.575308 -4.076953 2.754784 0
M  V30 31 H -0.288251 -4.648187 4.462381 0
M  V30 32 H 1.131963 -6.341967 3.670296 0
M  V30 33 H 2.087367 -3.573307 -2.241325 0
M  V30 34 H 0.195991 -2.535054 0.841888 0
M  V30 35 H -1.020579 -0.486983 1.098327 0
M  V30 36 H 0.772890 3.667233 0.335729 0
M  V30 37 H 0.566574 2.261235 1.458287 0
M  V30 38 H -0.739503 4.999904 1.698808 0
M  V30 39 H 0.205299 3.955012 2.894358 0
M  V30 40 H -2.112253 3.691379 3.510017 0
M  V30 41 H -0.938641 1.968826 4.584063 0
M  V30 42 H -2.653023 1.314991 4.257390 0
M  V30 43 H -1.181975 0.371604 3.853355 0
M  V30 44 H -3.399499 4.393953 1.623890 0
M  V30 45 H -3.564831 2.612851 1.408767 0
M  V30 46 H -1.815523 4.584178 -0.019011 0
M  V30 47 H -2.889116 3.341696 -0.677864 0
M  V30 48 H 0.129678 0.580985 -2.844542 0
M  V30 49 H 0.562240 -0.719437 -5.020525 0
M  V30 50 H 2.296331 -1.085151 -5.168684 0
M  V30 51 H 1.833684 0.344370 -4.191423 0
M  V30 52 H 3.343537 -7.481166 -0.345902 0
M  V30 END ATOM
M  V30 BEGIN BOND
M  V30 1 1 1 2
M  V30 2 1 2 3
M  V30 3 2 3 4
M  V30 4 1 4 5
M  V30 5 1 5 6
M  V30 6 1 6 7
M  V30 7 2 7 8
M  V30 8 1 8 9
M  V30 9 2 9 10
M  V30 10 1 10 11
M  V30 11 2 11 12
M  V30 12 1 11 13
M  V30 13 1 13 14
M  V30 14 1 14 15
M  V30 15 1 15 16
M  V30 16 1 16 17
M  V30 17 1 17 18
M  V30 18 1 16 19
M  V30 19 1 19 20
M  V30 20 1 10 21
M  V30 21 2 21 22
M  V30 22 1 22 23
M  V30 23 1 23 24
M  V30 24 2 5 25
M  V30 25 1 25 26
M  V30 26 2 26 27
M  V30 27 1 27 28
M  V30 28 1 27 3
M  V30 29 1 22 7
M  V30 30 1 20 13
M  V30 31 1 1 29
M  V30 32 1 1 30
M  V30 33 1 1 31
M  V30 34 1 2 32
M  V30 35 1 6 33
M  V30 36 1 8 34
M  V30 37 1 9 35
M  V30 38 1 14 36
M  V30 39 1 14 37
M  V30 40 1 15 38
M  V30 41 1 15 39
M  V30 42 1 16 40
M  V30 43 1 18 41
M  V30 44 1 18 42
M  V30 45 1 18 43
M  V30 46 1 19 44
M  V30 47 1 19 45
M  V30 48 1 20 46
M  V30 49 1 20 47
M  V30 50 1 21 48
M  V30 51 1 24 49
M  V30 52 1 24 50
M  V30 53 1 24 51
M  V30 54 1 26 52
M  V30 END BOND
M  V30 END CTAB
M  END
>  <Dataset>  (683) 
ChEMBL_Kinases

>  <Ligand_Instance>  (683) 
nan

>  <PDB_ID>  (683) 
nan

>  <Standardized_SMILES>  (683) 
CNc1nc(Nc2ccc(C(=O)N3CCC(OC)CC3)cc2OC)ncc1Br

>  <Name>  (683) 
nan

>  <Pocket>  (683) 
nan

>  <ATP_Site>  (683) 
nan

>  <Peripheral>  (683) 
nan

>  <Num_H_Atoms_ProtBoundConf>  (683) 
nan

>  <Num_Resolved_Atoms>  (683) 
nan

>  <Num_Not_Resolved_Atoms>  (683) 
nan

$$$$
CHEMBL3641800
     RDKit          3D

  0  0  0  0  0  0  0  0  0  0999 V3000
M  V30 BEGIN CTAB
M  V30 COUNTS 53 55 0 0 0
M  V30 BEGIN ATOM
M  V30 1 C -0.645473 -1.862716 5.378482 0
M  V30 2 N -0.080468 -3.159873 5.653343 0
M  V30 3 C 0.627599 -4.079529 4.823719 0
M  V30 4 N 0.852666 -3.762975 3.556072 0
M  V30 5 C 1.505348 -4.530216 2.672861 0
M  V30 6 N 1.765650 -4.238832 1.308934 0
M  V30 7 C 1.341812 -3.108584 0.571576 0
M  V30 8 C 0.542029 -2.098516 1.042340 0
M  V30 9 C 0.145330 -1.032564 0.307216 0
M  V30 10 C 0.518874 -0.874240 -0.990276 0
M  V30 11 C 0.121754 0.251197 -1.826904 0
M  V30 12 O -0.176298 -0.154549 -3.004414 0
M  V30 13 N 0.047286 1.631579 -1.469456 0
M  V30 14 C 0.311256 2.356384 -0.240157 0
M  V30 15 C -0.987052 3.006206 0.179605 0
M  V30 16 N -2.046065 2.829103 -0.756976 0
M  V30 17 C -3.175545 3.628873 -0.361293 0
M  V30 18 C -4.367255 3.514881 -1.277262 0
M  V30 19 F -5.389458 4.318163 -0.783288 0
M  V30 20 F -4.086599 4.024393 -2.534728 0
M  V30 21 F -4.850726 2.245280 -1.400574 0
M  V30 22 C -1.728429 3.064722 -2.114808 0
M  V30 23 C -0.373122 2.532086 -2.527519 0
M  V30 24 C 1.330608 -1.880621 -1.500163 0
M  V30 25 C 1.729147 -2.955318 -0.755703 0
M  V30 26 O 2.537055 -3.919346 -1.329272 0
M  V30 27 C 2.956861 -3.816663 -2.663880 0
M  V30 28 N 1.928205 -5.682594 3.190830 0
M  V30 29 C 1.759066 -6.102065 4.445153 0
M  V30 30 C 1.082103 -5.273750 5.304494 0
M  V30 31 Br 0.796313 -5.791096 7.105629 0
M  V30 32 H -0.326260 -1.544514 4.364412 0
M  V30 33 H -0.193859 -1.121357 6.095704 0
M  V30 34 H -1.736200 -1.892108 5.503300 0
M  V30 35 H -0.247472 -3.409585 6.639808 0
M  V30 36 H 2.343655 -4.947473 0.781307 0
M  V30 37 H 0.188542 -2.126543 2.052200 0
M  V30 38 H -0.491671 -0.260862 0.730985 0
M  V30 39 H 1.022756 3.176223 -0.497518 0
M  V30 40 H 0.776106 1.739861 0.531240 0
M  V30 41 H -0.811690 4.055713 0.470238 0
M  V30 42 H -1.282308 2.469123 1.115177 0
M  V30 43 H -3.477572 3.420586 0.694165 0
M  V30 44 H -2.918206 4.729180 -0.336823 0
M  V30 45 H -1.805903 4.100719 -2.453179 0
M  V30 46 H -2.454717 2.463266 -2.729936 0
M  V30 47 H 0.376372 3.345171 -2.582611 0
M  V30 48 H -0.384046 2.056323 -3.518003 0
M  V30 49 H 1.632406 -1.760981 -2.544372 0
M  V30 50 H 3.820437 -3.131899 -2.749098 0
M  V30 51 H 2.124647 -3.555430 -3.356146 0
M  V30 52 H 3.313089 -4.844099 -2.957784 0
M  V30 53 H 2.125486 -7.054113 4.810956 0
M  V30 END ATOM
M  V30 BEGIN BOND
M  V30 1 1 1 2
M  V30 2 1 2 3
M  V30 3 2 3 4
M  V30 4 1 4 5
M  V30 5 1 5 6
M  V30 6 1 6 7
M  V30 7 2 7 8
M  V30 8 1 8 9
M  V30 9 2 9 10
M  V30 10 1 10 11
M  V30 11 2 11 12
M  V30 12 1 11 13
M  V30 13 1 13 14
M  V30 14 1 14 15
M  V30 15 1 15 16
M  V30 16 1 16 17
M  V30 17 1 17 18
M  V30 18 1 18 19
M  V30 19 1 18 20
M  V30 20 1 18 21
M  V30 21 1 16 22
M  V30 22 1 22 23
M  V30 23 1 10 24
M  V30 24 2 24 25
M  V30 25 1 25 26
M  V30 26 1 26 27
M  V30 27 2 5 28
M  V30 28 1 28 29
M  V30 29 2 29 30
M  V30 30 1 30 31
M  V30 31 1 30 3
M  V30 32 1 25 7
M  V30 33 1 23 13
M  V30 34 1 1 32
M  V30 35 1 1 33
M  V30 36 1 1 34
M  V30 37 1 2 35
M  V30 38 1 6 36
M  V30 39 1 8 37
M  V30 40 1 9 38
M  V30 41 1 14 39
M  V30 42 1 14 40
M  V30 43 1 15 41
M  V30 44 1 15 42
M  V30 45 1 17 43
M  V30 46 1 17 44
M  V30 47 1 22 45
M  V30 48 1 22 46
M  V30 49 1 23 47
M  V30 50 1 23 48
M  V30 51 1 24 49
M  V30 52 1 27 50
M  V30 53 1 27 51
M  V30 54 1 27 52
M  V30 55 1 29 53
M  V30 END BOND
M  V30 END CTAB
M  END
>  <Dataset>  (684) 
ChEMBL_Kinases

>  <Ligand_Instance>  (684) 
nan

>  <PDB_ID>  (684) 
nan

>  <Standardized_SMILES>  (684) 
CNc1nc(Nc2ccc(C(=O)N3CCN(CC(F)(F)F)CC3)cc2OC)ncc1Br

>  <Name>  (684) 
nan

>  <Pocket>  (684) 
nan

>  <ATP_Site>  (684) 
nan

>  <Peripheral>  (684) 
nan

>  <Num_H_Atoms_ProtBoundConf>  (684) 
nan

>  <Num_Resolved_Atoms>  (684) 
nan

>  <Num_Not_Resolved_Atoms>  (684) 
nan

$$$$
CHEMBL3641799
     RDKit          3D

  0  0  0  0  0  0  0  0  0  0999 V3000
M  V30 BEGIN CTAB
M  V30 COUNTS 57 60 0 0 0
M  V30 BEGIN ATOM
M  V30 1 C 1.198835 -3.548211 5.228461 0
M  V30 2 N 0.988902 -4.668574 4.325141 0
M  V30 3 C 1.429149 -4.822496 2.958912 0
M  V30 4 N 2.131182 -3.918719 2.262372 0
M  V30 5 C 2.471257 -4.181566 0.963368 0
M  V30 6 N 3.224947 -3.066531 0.486001 0
M  V30 7 C 2.664369 -1.801969 0.062057 0
M  V30 8 C 1.297489 -1.706941 0.172503 0
M  V30 9 C 0.573992 -0.535822 -0.157095 0
M  V30 10 C 1.415836 0.510248 -0.607908 0
M  V30 11 C 0.509011 1.653534 -0.850434 0
M  V30 12 O 0.604525 2.774912 -0.272766 0
M  V30 13 N -0.631506 1.807093 -1.715980 0
M  V30 14 C -1.279741 3.122671 -1.573717 0
M  V30 15 C -2.798345 2.879818 -1.522061 0
M  V30 16 N -3.066949 1.565103 -1.131289 0
M  V30 17 C -3.497039 1.239461 0.147243 0
M  V30 18 C -3.797930 -0.245986 0.355675 0
M  V30 19 C -4.926394 0.169851 1.281131 0
M  V30 20 C -4.871292 1.545221 0.625150 0
M  V30 21 C -2.630764 0.533437 -2.018142 0
M  V30 22 C -1.378512 1.048506 -2.726239 0
M  V30 23 C 2.765505 0.424994 -0.722349 0
M  V30 24 C 3.405946 -0.728238 -0.389761 0
M  V30 25 O 4.754592 -0.907618 -0.469870 0
M  V30 26 C 5.744708 -0.025984 -0.875561 0
M  V30 27 N 2.080001 -5.350032 0.439107 0
M  V30 28 C 1.380310 -6.257576 1.125776 0
M  V30 29 C 1.005986 -6.051370 2.445429 0
M  V30 30 Br 0.015044 -7.352523 3.406806 0
M  V30 31 H 1.964117 -2.895308 4.786152 0
M  V30 32 H 0.253455 -2.951484 5.246006 0
M  V30 33 H 1.438855 -3.869622 6.269569 0
M  V30 34 H 0.444920 -5.370814 4.859751 0
M  V30 35 H 4.268629 -3.100958 0.419252 0
M  V30 36 H 0.740355 -2.581325 0.528747 0
M  V30 37 H -0.480626 -0.599556 -0.020006 0
M  V30 38 H -1.033039 3.776111 -2.432488 0
M  V30 39 H -1.012213 3.606284 -0.619185 0
M  V30 40 H -3.203290 3.594013 -0.784914 0
M  V30 41 H -3.202249 3.176141 -2.513306 0
M  V30 42 H -2.756870 1.586761 0.913539 0
M  V30 43 H -2.998563 -0.760188 0.879386 0
M  V30 44 H -4.147246 -0.787443 -0.546795 0
M  V30 45 H -4.651685 0.158064 2.355131 0
M  V30 46 H -5.867596 -0.381718 1.126419 0
M  V30 47 H -4.923575 2.324390 1.440802 0
M  V30 48 H -5.648105 1.701405 -0.141594 0
M  V30 49 H -3.428994 0.295810 -2.732808 0
M  V30 50 H -2.380076 -0.361319 -1.419644 0
M  V30 51 H -1.723386 1.679832 -3.555151 0
M  V30 52 H -0.764931 0.233631 -3.148455 0
M  V30 53 H 3.249259 1.295463 -1.078642 0
M  V30 54 H 6.188549 -0.354009 -1.830653 0
M  V30 55 H 6.526095 0.138829 -0.095843 0
M  V30 56 H 5.304254 0.992918 -1.067313 0
M  V30 57 H 1.122857 -7.164350 0.601176 0
M  V30 END ATOM
M  V30 BEGIN BOND
M  V30 1 1 1 2
M  V30 2 1 2 3
M  V30 3 2 3 4
M  V30 4 1 4 5
M  V30 5 1 5 6
M  V30 6 1 6 7
M  V30 7 2 7 8
M  V30 8 1 8 9
M  V30 9 2 9 10
M  V30 10 1 10 11
M  V30 11 2 11 12
M  V30 12 1 11 13
M  V30 13 1 13 14
M  V30 14 1 14 15
M  V30 15 1 15 16
M  V30 16 1 16 17
M  V30 17 1 17 18
M  V30 18 1 18 19
M  V30 19 1 19 20
M  V30 20 1 16 21
M  V30 21 1 21 22
M  V30 22 1 10 23
M  V30 23 2 23 24
M  V30 24 1 24 25
M  V30 25 1 25 26
M  V30 26 2 5 27
M  V30 27 1 27 28
M  V30 28 2 28 29
M  V30 29 1 29 30
M  V30 30 1 29 3
M  V30 31 1 24 7
M  V30 32 1 22 13
M  V30 33 1 20 17
M  V30 34 1 1 31
M  V30 35 1 1 32
M  V30 36 1 1 33
M  V30 37 1 2 34
M  V30 38 1 6 35
M  V30 39 1 8 36
M  V30 40 1 9 37
M  V30 41 1 14 38
M  V30 42 1 14 39
M  V30 43 1 15 40
M  V30 44 1 15 41
M  V30 45 1 17 42
M  V30 46 1 18 43
M  V30 47 1 18 44
M  V30 48 1 19 45
M  V30 49 1 19 46
M  V30 50 1 20 47
M  V30 51 1 20 48
M  V30 52 1 21 49
M  V30 53 1 21 50
M  V30 54 1 22 51
M  V30 55 1 22 52
M  V30 56 1 23 53
M  V30 57 1 26 54
M  V30 58 1 26 55
M  V30 59 1 26 56
M  V30 60 1 28 57
M  V30 END BOND
M  V30 END CTAB
M  END
>  <Dataset>  (685) 
ChEMBL_Kinases

>  <Ligand_Instance>  (685) 
nan

>  <PDB_ID>  (685) 
nan

>  <Standardized_SMILES>  (685) 
CNc1nc(Nc2ccc(C(=O)N3CCN(C4CCC4)CC3)cc2OC)ncc1Br

>  <Name>  (685) 
nan

>  <Pocket>  (685) 
nan

>  <ATP_Site>  (685) 
nan

>  <Peripheral>  (685) 
nan

>  <Num_H_Atoms_ProtBoundConf>  (685) 
nan

>  <Num_Resolved_Atoms>  (685) 
nan

>  <Num_Not_Resolved_Atoms>  (685) 
nan

$$$$
CHEMBL3641798
     RDKit          3D

  0  0  0  0  0  0  0  0  0  0999 V3000
M  V30 BEGIN CTAB
M  V30 COUNTS 49 51 0 0 0
M  V30 BEGIN ATOM
M  V30 1 C 1.770790 -4.143114 3.179156 0
M  V30 2 N 1.680993 -5.434020 2.502735 0
M  V30 3 C 1.234827 -5.524317 1.156349 0
M  V30 4 N 0.889344 -4.419667 0.484437 0
M  V30 5 C 0.461862 -4.419766 -0.776394 0
M  V30 6 N 0.090143 -3.294743 -1.536601 0
M  V30 7 C 0.096284 -1.938590 -1.200927 0
M  V30 8 C 0.520934 -1.478822 0.025862 0
M  V30 9 C 0.546995 -0.150209 0.389952 0
M  V30 10 C 0.133334 0.826275 -0.486960 0
M  V30 11 C 0.160661 2.231822 -0.106971 0
M  V30 12 O 0.801257 2.999839 -0.863410 0
M  V30 13 N -0.495164 2.723972 1.053381 0
M  V30 14 C -0.464362 4.101826 1.420059 0
M  V30 15 C -0.164574 4.364748 2.850536 0
M  V30 16 C -0.692078 3.372632 3.825925 0
M  V30 17 C -2.138965 3.515292 4.050444 0
M  V30 18 N -3.290110 3.620137 4.237182 0
M  V30 19 C -0.473732 1.970400 3.297978 0
M  V30 20 C -1.243865 1.930758 1.971161 0
M  V30 21 C -0.296677 0.391030 -1.721992 0
M  V30 22 C -0.321970 -0.934993 -2.084408 0
M  V30 23 O -0.763213 -1.329964 -3.338475 0
M  V30 24 C -1.195019 -0.352164 -4.262828 0
M  V30 25 N 0.402097 -5.635464 -1.335685 0
M  V30 26 C 0.715034 -6.788233 -0.776324 0
M  V30 27 C 1.146277 -6.734209 0.513924 0
M  V30 28 Br 1.645507 -8.280289 1.496611 0
M  V30 29 H 2.732364 -3.677677 2.895145 0
M  V30 30 H 0.960867 -3.522681 2.764226 0
M  V30 31 H 1.724657 -4.244910 4.281059 0
M  V30 32 H 1.954973 -6.284478 3.040113 0
M  V30 33 H -0.254031 -3.476567 -2.528100 0
M  V30 34 H 0.872133 -2.122562 0.809941 0
M  V30 35 H 0.883826 0.204289 1.359862 0
M  V30 36 H -1.471989 4.566015 1.208284 0
M  V30 37 H 0.222400 4.626907 0.724602 0
M  V30 38 H -0.472269 5.397388 3.162644 0
M  V30 39 H 0.944212 4.362741 2.958054 0
M  V30 40 H -0.201742 3.446265 4.812494 0
M  V30 41 H 0.585626 1.728620 3.182300 0
M  V30 42 H -0.991370 1.230866 3.958665 0
M  V30 43 H -2.250256 2.351121 2.194259 0
M  V30 44 H -1.386560 0.884231 1.718563 0
M  V30 45 H -0.630686 1.133330 -2.439113 0
M  V30 46 H -0.379578 0.369657 -4.540779 0
M  V30 47 H -1.999215 0.293499 -3.818506 0
M  V30 48 H -1.645349 -0.823271 -5.159957 0
M  V30 49 H 0.638278 -7.740400 -1.302874 0
M  V30 END ATOM
M  V30 BEGIN BOND
M  V30 1 1 1 2
M  V30 2 1 2 3
M  V30 3 2 3 4
M  V30 4 1 4 5
M  V30 5 1 5 6
M  V30 6 1 6 7
M  V30 7 2 7 8
M  V30 8 1 8 9
M  V30 9 2 9 10
M  V30 10 1 10 11
M  V30 11 2 11 12
M  V30 12 1 11 13
M  V30 13 1 13 14
M  V30 14 1 14 15
M  V30 15 1 15 16
M  V30 16 1 16 17
M  V30 17 3 17 18
M  V30 18 1 16 19
M  V30 19 1 19 20
M  V30 20 1 10 21
M  V30 21 2 21 22
M  V30 22 1 22 23
M  V30 23 1 23 24
M  V30 24 2 5 25
M  V30 25 1 25 26
M  V30 26 2 26 27
M  V30 27 1 27 28
M  V30 28 1 27 3
M  V30 29 1 22 7
M  V30 30 1 20 13
M  V30 31 1 1 29
M  V30 32 1 1 30
M  V30 33 1 1 31
M  V30 34 1 2 32
M  V30 35 1 6 33
M  V30 36 1 8 34
M  V30 37 1 9 35
M  V30 38 1 14 36
M  V30 39 1 14 37
M  V30 40 1 15 38
M  V30 41 1 15 39
M  V30 42 1 16 40
M  V30 43 1 19 41
M  V30 44 1 19 42
M  V30 45 1 20 43
M  V30 46 1 20 44
M  V30 47 1 21 45
M  V30 48 1 24 46
M  V30 49 1 24 47
M  V30 50 1 24 48
M  V30 51 1 26 49
M  V30 END BOND
M  V30 END CTAB
M  END
>  <Dataset>  (686) 
ChEMBL_Kinases

>  <Ligand_Instance>  (686) 
nan

>  <PDB_ID>  (686) 
nan

>  <Standardized_SMILES>  (686) 
CNc1nc(Nc2ccc(C(=O)N3CCC(C#N)CC3)cc2OC)ncc1Br

>  <Name>  (686) 
nan

>  <Pocket>  (686) 
nan

>  <ATP_Site>  (686) 
nan

>  <Peripheral>  (686) 
nan

>  <Num_H_Atoms_ProtBoundConf>  (686) 
nan

>  <Num_Resolved_Atoms>  (686) 
nan

>  <Num_Not_Resolved_Atoms>  (686) 
nan

$$$$
CHEMBL3641780
     RDKit          3D

  0  0  0  0  0  0  0  0  0  0999 V3000
M  V30 BEGIN CTAB
M  V30 COUNTS 45 47 0 0 0
M  V30 BEGIN ATOM
M  V30 1 C 0.643935 -6.825139 0.266348 0
M  V30 2 N -0.022423 -6.505032 1.492531 0
M  V30 3 C -0.779201 -5.414075 1.959164 0
M  V30 4 N -0.941397 -4.407761 1.098979 0
M  V30 5 C -1.637842 -3.289950 1.404933 0
M  V30 6 N -1.932805 -2.125342 0.641034 0
M  V30 7 C -1.005352 -1.057287 0.357143 0
M  V30 8 C 0.276741 -1.323380 0.838605 0
M  V30 9 C 1.269312 -0.400804 0.604664 0
M  V30 10 C 1.033603 0.760957 -0.082658 0
M  V30 11 C 2.086867 1.706236 -0.334263 0
M  V30 12 O 3.138626 1.445112 -1.017703 0
M  V30 13 N 2.186160 3.023917 0.082244 0
M  V30 14 C 3.227098 4.007617 -0.151315 0
M  V30 15 C 3.570989 4.346139 1.301218 0
M  V30 16 C 2.199659 4.264175 1.984994 0
M  V30 17 C 1.256145 3.781405 0.882795 0
M  V30 18 C -0.256839 1.013855 -0.558615 0
M  V30 19 C -1.273708 0.118331 -0.344637 0
M  V30 20 O -2.596852 0.137972 -0.702474 0
M  V30 21 C -3.150313 1.197890 -1.417551 0
M  V30 22 N -2.188515 -3.196454 2.631277 0
M  V30 23 C -2.061956 -4.181776 3.549285 0
M  V30 24 C -1.349872 -5.310653 3.221212 0
M  V30 25 Cl -1.094175 -6.673294 4.285677 0
M  V30 26 H -0.025637 -6.664185 -0.581907 0
M  V30 27 H 1.556748 -6.162417 0.180621 0
M  V30 28 H 1.019700 -7.887940 0.254356 0
M  V30 29 H 0.066082 -7.263886 2.235816 0
M  V30 30 H -2.920603 -2.077756 0.264803 0
M  V30 31 H 0.535357 -2.231666 1.398441 0
M  V30 32 H 2.293241 -0.547216 0.952816 0
M  V30 33 H 2.749134 4.873533 -0.642781 0
M  V30 34 H 4.096838 3.618741 -0.693794 0
M  V30 35 H 4.019592 5.358329 1.401601 0
M  V30 36 H 4.236641 3.526987 1.653554 0
M  V30 37 H 2.293765 3.531081 2.788635 0
M  V30 38 H 1.915056 5.253132 2.351658 0
M  V30 39 H 0.393781 3.231419 1.234348 0
M  V30 40 H 0.899477 4.713226 0.373912 0
M  V30 41 H -0.494344 1.906675 -1.101999 0
M  V30 42 H -3.491808 0.874343 -2.444597 0
M  V30 43 H -2.396365 1.994834 -1.528546 0
M  V30 44 H -4.036619 1.652761 -0.914587 0
M  V30 45 H -2.479090 -4.165659 4.544907 0
M  V30 END ATOM
M  V30 BEGIN BOND
M  V30 1 1 1 2
M  V30 2 1 2 3
M  V30 3 2 3 4
M  V30 4 1 4 5
M  V30 5 1 5 6
M  V30 6 1 6 7
M  V30 7 2 7 8
M  V30 8 1 8 9
M  V30 9 2 9 10
M  V30 10 1 10 11
M  V30 11 2 11 12
M  V30 12 1 11 13
M  V30 13 1 13 14
M  V30 14 1 14 15
M  V30 15 1 15 16
M  V30 16 1 16 17
M  V30 17 1 10 18
M  V30 18 2 18 19
M  V30 19 1 19 20
M  V30 20 1 20 21
M  V30 21 2 5 22
M  V30 22 1 22 23
M  V30 23 2 23 24
M  V30 24 1 24 25
M  V30 25 1 24 3
M  V30 26 1 19 7
M  V30 27 1 17 13
M  V30 28 1 1 26
M  V30 29 1 1 27
M  V30 30 1 1 28
M  V30 31 1 2 29
M  V30 32 1 6 30
M  V30 33 1 8 31
M  V30 34 1 9 32
M  V30 35 1 14 33
M  V30 36 1 14 34
M  V30 37 1 15 35
M  V30 38 1 15 36
M  V30 39 1 16 37
M  V30 40 1 16 38
M  V30 41 1 17 39
M  V30 42 1 17 40
M  V30 43 1 18 41
M  V30 44 1 21 42
M  V30 45 1 21 43
M  V30 46 1 21 44
M  V30 47 1 23 45
M  V30 END BOND
M  V30 END CTAB
M  END
>  <Dataset>  (687) 
ChEMBL_Kinases

>  <Ligand_Instance>  (687) 
nan

>  <PDB_ID>  (687) 
nan

>  <Standardized_SMILES>  (687) 
CNc1nc(Nc2ccc(C(=O)N3CCCC3)cc2OC)ncc1Cl

>  <Name>  (687) 
nan

>  <Pocket>  (687) 
nan

>  <ATP_Site>  (687) 
nan

>  <Peripheral>  (687) 
nan

>  <Num_H_Atoms_ProtBoundConf>  (687) 
nan

>  <Num_Resolved_Atoms>  (687) 
nan

>  <Num_Not_Resolved_Atoms>  (687) 
nan

$$$$
CHEMBL3641781
     RDKit          3D

  0  0  0  0  0  0  0  0  0  0999 V3000
M  V30 BEGIN CTAB
M  V30 COUNTS 53 55 0 0 0
M  V30 BEGIN ATOM
M  V30 1 C -1.073001 -5.907881 3.581467 0
M  V30 2 N 0.358511 -6.033309 3.832741 0
M  V30 3 C 1.414614 -5.530621 3.006378 0
M  V30 4 N 1.105551 -4.871634 1.877863 0
M  V30 5 C 2.050808 -4.372116 1.052769 0
M  V30 6 N 1.587001 -3.692202 -0.111306 0
M  V30 7 C 1.362573 -2.307081 -0.123578 0
M  V30 8 C 1.596018 -1.529213 0.988330 0
M  V30 9 C 1.367067 -0.170208 0.941247 0
M  V30 10 C 0.901671 0.474778 -0.196561 0
M  V30 11 C 0.644297 1.896058 -0.320782 0
M  V30 12 O 1.144503 2.330353 -1.414323 0
M  V30 13 N -0.059063 2.753842 0.601503 0
M  V30 14 C -0.715281 2.561869 1.884335 0
M  V30 15 C -2.196778 2.746099 1.778736 0
M  V30 16 N -2.516914 3.506636 0.630736 0
M  V30 17 S -3.434800 2.759629 -0.572987 0
M  V30 18 C -2.686223 1.354189 -1.305350 0
M  V30 19 O -4.828873 2.408505 -0.090728 0
M  V30 20 O -3.650607 3.788115 -1.678710 0
M  V30 21 C -1.619644 4.519874 0.222338 0
M  V30 22 C -0.161349 4.142937 0.198689 0
M  V30 23 C 0.689657 -0.383653 -1.281442 0
M  V30 24 C 0.899837 -1.746077 -1.294196 0
M  V30 25 O 0.628055 -2.431217 -2.485144 0
M  V30 26 C 0.149793 -1.763814 -3.635302 0
M  V30 27 N 3.348976 -4.542616 1.376412 0
M  V30 28 C 3.715643 -5.201874 2.507024 0
M  V30 29 C 2.748920 -5.712492 3.350051 0
M  V30 30 Cl 3.157891 -6.574246 4.824173 0
M  V30 31 H -1.469849 -5.099724 4.242533 0
M  V30 32 H -1.212296 -5.533986 2.528977 0
M  V30 33 H -1.619965 -6.860980 3.746900 0
M  V30 34 H 0.580980 -6.545240 4.711280 0
M  V30 35 H 1.435191 -4.312070 -0.934486 0
M  V30 36 H 1.955678 -2.007547 1.874539 0
M  V30 37 H 1.549062 0.435514 1.804034 0
M  V30 38 H -0.283711 3.321658 2.579512 0
M  V30 39 H -0.480923 1.587617 2.354750 0
M  V30 40 H -2.526918 3.327665 2.689922 0
M  V30 41 H -2.759354 1.793046 1.863388 0
M  V30 42 H -3.512189 0.660717 -1.627487 0
M  V30 43 H -2.074239 0.749407 -0.608673 0
M  V30 44 H -2.172932 1.633696 -2.232191 0
M  V30 45 H -1.801085 5.426072 0.836968 0
M  V30 46 H -1.930476 4.828265 -0.817600 0
M  V30 47 H 0.343898 4.775449 0.987450 0
M  V30 48 H 0.282177 4.346414 -0.797523 0
M  V30 49 H 0.327210 0.097619 -2.182195 0
M  V30 50 H 1.012546 -1.135332 -3.986030 0
M  V30 51 H -0.710329 -1.121065 -3.447397 0
M  V30 52 H -0.017364 -2.512853 -4.432202 0
M  V30 53 H 4.742099 -5.340953 2.768751 0
M  V30 END ATOM
M  V30 BEGIN BOND
M  V30 1 1 1 2
M  V30 2 1 2 3
M  V30 3 2 3 4
M  V30 4 1 4 5
M  V30 5 1 5 6
M  V30 6 1 6 7
M  V30 7 2 7 8
M  V30 8 1 8 9
M  V30 9 2 9 10
M  V30 10 1 10 11
M  V30 11 2 11 12
M  V30 12 1 11 13
M  V30 13 1 13 14
M  V30 14 1 14 15
M  V30 15 1 15 16
M  V30 16 1 16 17
M  V30 17 1 17 18
M  V30 18 2 17 19
M  V30 19 2 17 20
M  V30 20 1 16 21
M  V30 21 1 21 22
M  V30 22 1 10 23
M  V30 23 2 23 24
M  V30 24 1 24 25
M  V30 25 1 25 26
M  V30 26 2 5 27
M  V30 27 1 27 28
M  V30 28 2 28 29
M  V30 29 1 29 30
M  V30 30 1 29 3
M  V30 31 1 24 7
M  V30 32 1 22 13
M  V30 33 1 1 31
M  V30 34 1 1 32
M  V30 35 1 1 33
M  V30 36 1 2 34
M  V30 37 1 6 35
M  V30 38 1 8 36
M  V30 39 1 9 37
M  V30 40 1 14 38
M  V30 41 1 14 39
M  V30 42 1 15 40
M  V30 43 1 15 41
M  V30 44 1 18 42
M  V30 45 1 18 43
M  V30 46 1 18 44
M  V30 47 1 21 45
M  V30 48 1 21 46
M  V30 49 1 22 47
M  V30 50 1 22 48
M  V30 51 1 23 49
M  V30 52 1 26 50
M  V30 53 1 26 51
M  V30 54 1 26 52
M  V30 55 1 28 53
M  V30 END BOND
M  V30 END CTAB
M  END
>  <Dataset>  (688) 
ChEMBL_Kinases

>  <Ligand_Instance>  (688) 
nan

>  <PDB_ID>  (688) 
nan

>  <Standardized_SMILES>  (688) 
CNc1nc(Nc2ccc(C(=O)N3CCN(S(C)(=O)=O)CC3)cc2OC)ncc1Cl

>  <Name>  (688) 
nan

>  <Pocket>  (688) 
nan

>  <ATP_Site>  (688) 
nan

>  <Peripheral>  (688) 
nan

>  <Num_H_Atoms_ProtBoundConf>  (688) 
nan

>  <Num_Resolved_Atoms>  (688) 
nan

>  <Num_Not_Resolved_Atoms>  (688) 
nan

$$$$
CHEMBL3641782
     RDKit          3D

  0  0  0  0  0  0  0  0  0  0999 V3000
M  V30 BEGIN CTAB
M  V30 COUNTS 58 60 0 0 0
M  V30 BEGIN ATOM
M  V30 1 C 3.293667 -2.905368 4.796075 0
M  V30 2 C 3.807532 -2.764625 3.400273 0
M  V30 3 C 3.426471 -1.497080 2.761162 0
M  V30 4 C 3.949385 -0.297200 3.442678 0
M  V30 5 C 3.555864 0.011494 4.831450 0
M  V30 6 C 3.880613 -1.404177 1.301761 0
M  V30 7 N 2.724697 -1.160103 0.444105 0
M  V30 8 C 2.460502 0.033522 -0.319490 0
M  V30 9 O 3.440440 0.834785 -0.113950 0
M  V30 10 C 1.212942 -0.032987 -1.058555 0
M  V30 11 C 0.141271 -0.020005 -0.170353 0
M  V30 12 C -1.187357 -0.081269 -0.608449 0
M  V30 13 C -1.322942 -0.153435 -1.986852 0
M  V30 14 N -2.645728 -0.252828 -2.505651 0
M  V30 15 C -3.835874 -0.243191 -1.720853 0
M  V30 16 N -3.824653 -1.378225 -1.025139 0
M  V30 17 C -4.809777 -1.700965 -0.194130 0
M  V30 18 C -5.903105 -0.886687 0.002059 0
M  V30 19 Cl -7.320063 -1.034198 1.006314 0
M  V30 20 C -5.906200 0.286405 -0.724221 0
M  V30 21 N -6.785063 1.378485 -0.880852 0
M  V30 22 C -7.544843 2.550589 -1.154077 0
M  V30 23 N -4.876885 0.574421 -1.561504 0
M  V30 24 C -0.320164 -0.169772 -2.923703 0
M  V30 25 O -0.442531 -0.236546 -4.279005 0
M  V30 26 C 0.582233 -0.258892 -5.221580 0
M  V30 27 C 0.965683 -0.106462 -2.399540 0
M  V30 28 C 1.857350 -2.350335 0.499252 0
M  V30 29 C 1.488178 -2.458027 1.975060 0
M  V30 30 O 2.014063 -1.447821 2.723252 0
M  V30 31 H 2.849831 -3.945797 4.956240 0
M  V30 32 H 2.493086 -2.235314 5.093056 0
M  V30 33 H 4.106733 -2.863657 5.559143 0
M  V30 34 H 4.929047 -2.787121 3.471450 0
M  V30 35 H 3.567823 -3.675262 2.796873 0
M  V30 36 H 3.760850 0.645731 2.829177 0
M  V30 37 H 5.095015 -0.313747 3.445461 0
M  V30 38 H 3.867476 1.096342 5.065484 0
M  V30 39 H 4.092743 -0.552676 5.609959 0
M  V30 40 H 2.462540 0.052425 5.023655 0
M  V30 41 H 4.643964 -0.585179 1.177268 0
M  V30 42 H 4.296561 -2.381627 1.026405 0
M  V30 43 H 0.181802 0.035111 0.928610 0
M  V30 44 H -2.051297 -0.073497 0.033184 0
M  V30 45 H -2.888035 -0.345395 -3.513579 0
M  V30 46 H -4.970213 -2.575046 0.454660 0
M  V30 47 H -7.562908 0.990827 -0.250628 0
M  V30 48 H -6.882791 3.354601 -1.613025 0
M  V30 49 H -8.277282 2.332939 -1.991415 0
M  V30 50 H -8.040037 3.051419 -0.321637 0
M  V30 51 H 0.785651 -1.269560 -5.640129 0
M  V30 52 H 1.535640 0.201207 -4.882423 0
M  V30 53 H 0.260743 0.367185 -6.113054 0
M  V30 54 H 1.896033 -0.107020 -2.929730 0
M  V30 55 H 1.015873 -2.309889 -0.180099 0
M  V30 56 H 2.512129 -3.205678 0.195884 0
M  V30 57 H 0.367740 -2.290618 1.976175 0
M  V30 58 H 1.620182 -3.478059 2.344762 0
M  V30 END ATOM
M  V30 BEGIN BOND
M  V30 1 1 1 2
M  V30 2 1 2 3
M  V30 3 1 3 4
M  V30 4 1 4 5
M  V30 5 1 3 6
M  V30 6 1 6 7
M  V30 7 1 7 8
M  V30 8 2 8 9
M  V30 9 1 8 10
M  V30 10 2 10 11
M  V30 11 1 11 12
M  V30 12 2 12 13
M  V30 13 1 13 14
M  V30 14 1 14 15
M  V30 15 2 15 16
M  V30 16 1 16 17
M  V30 17 2 17 18
M  V30 18 1 18 19
M  V30 19 1 18 20
M  V30 20 1 20 21
M  V30 21 1 21 22
M  V30 22 2 20 23
M  V30 23 1 13 24
M  V30 24 1 24 25
M  V30 25 1 25 26
M  V30 26 2 24 27
M  V30 27 1 7 28
M  V30 28 1 28 29
M  V30 29 1 29 30
M  V30 30 1 30 3
M  V30 31 1 27 10
M  V30 32 1 23 15
M  V30 33 1 1 31
M  V30 34 1 1 32
M  V30 35 1 1 33
M  V30 36 1 2 34
M  V30 37 1 2 35
M  V30 38 1 4 36
M  V30 39 1 4 37
M  V30 40 1 5 38
M  V30 41 1 5 39
M  V30 42 1 5 40
M  V30 43 1 6 41
M  V30 44 1 6 42
M  V30 45 1 11 43
M  V30 46 1 12 44
M  V30 47 1 14 45
M  V30 48 1 17 46
M  V30 49 1 21 47
M  V30 50 1 22 48
M  V30 51 1 22 49
M  V30 52 1 22 50
M  V30 53 1 26 51
M  V30 54 1 26 52
M  V30 55 1 26 53
M  V30 56 1 27 54
M  V30 57 1 28 55
M  V30 58 1 28 56
M  V30 59 1 29 57
M  V30 60 1 29 58
M  V30 END BOND
M  V30 END CTAB
M  END
>  <Dataset>  (689) 
ChEMBL_Kinases

>  <Ligand_Instance>  (689) 
nan

>  <PDB_ID>  (689) 
nan

>  <Standardized_SMILES>  (689) 
CCC1(CC)CN(C(=O)c2ccc(Nc3ncc(Cl)c(NC)n3)c(OC)c2)CCO1

>  <Name>  (689) 
nan

>  <Pocket>  (689) 
nan

>  <ATP_Site>  (689) 
nan

>  <Peripheral>  (689) 
nan

>  <Num_H_Atoms_ProtBoundConf>  (689) 
nan

>  <Num_Resolved_Atoms>  (689) 
nan

>  <Num_Not_Resolved_Atoms>  (689) 
nan

$$$$
CHEMBL3641783
     RDKit          3D

  0  0  0  0  0  0  0  0  0  0999 V3000
M  V30 BEGIN CTAB
M  V30 COUNTS 50 52 0 0 0
M  V30 BEGIN ATOM
M  V30 1 C 0.080836 -4.400454 2.935097 0
M  V30 2 N 1.175382 -5.212864 2.394023 0
M  V30 3 C 1.643879 -5.047764 1.051431 0
M  V30 4 N 1.039626 -4.110796 0.290336 0
M  V30 5 C 1.444459 -3.903944 -0.998271 0
M  V30 6 N 0.711128 -2.885517 -1.696836 0
M  V30 7 C 0.662968 -1.503948 -1.336198 0
M  V30 8 C 1.352978 -1.176150 -0.187891 0
M  V30 9 C 1.348166 0.134282 0.246219 0
M  V30 10 C 0.652695 1.088951 -0.479665 0
M  V30 11 C 0.662376 2.463813 0.004962 0
M  V30 12 O 1.201594 3.577115 -0.271065 0
M  V30 13 N -0.198745 2.640921 1.151061 0
M  V30 14 C -0.414068 3.887838 1.872930 0
M  V30 15 C -0.030168 3.721927 3.334436 0
M  V30 16 O -0.902419 2.815961 3.909460 0
M  V30 17 C -0.698707 1.576914 3.298615 0
M  V30 18 C -1.016072 1.649757 1.818998 0
M  V30 19 C -2.501668 1.926715 1.702157 0
M  V30 20 O -3.228348 0.919564 2.375768 0
M  V30 21 C -0.027080 0.729933 -1.623987 0
M  V30 22 C -0.035458 -0.570942 -2.074237 0
M  V30 23 O -0.709869 -0.944213 -3.217182 0
M  V30 24 C -1.449498 -0.087917 -4.046576 0
M  V30 25 N 2.449677 -4.616109 -1.557509 0
M  V30 26 C 3.061167 -5.564848 -0.787509 0
M  V30 27 C 2.686895 -5.808330 0.515902 0
M  V30 28 Cl 3.440977 -7.009253 1.538977 0
M  V30 29 H 0.487942 -3.779429 3.770232 0
M  V30 30 H -0.704088 -5.040215 3.411749 0
M  V30 31 H -0.418171 -3.807697 2.158315 0
M  V30 32 H 1.599769 -5.919769 3.034225 0
M  V30 33 H 0.154330 -3.174377 -2.554433 0
M  V30 34 H 1.917370 -1.851795 0.435531 0
M  V30 35 H 1.875846 0.456101 1.148619 0
M  V30 36 H -1.411423 4.305802 1.760934 0
M  V30 37 H 0.314341 4.609611 1.453147 0
M  V30 38 H 0.983140 3.295175 3.438948 0
M  V30 39 H -0.074510 4.670065 3.872445 0
M  V30 40 H 0.355138 1.240764 3.454097 0
M  V30 41 H -1.343277 0.855599 3.826090 0
M  V30 42 H -0.788844 0.665170 1.363563 0
M  V30 43 H -2.780564 2.872277 2.213957 0
M  V30 44 H -2.866406 1.929393 0.671831 0
M  V30 45 H -3.220095 0.075506 1.874274 0
M  V30 46 H -0.536978 1.508796 -2.131940 0
M  V30 47 H -2.530106 -0.217592 -3.892956 0
M  V30 48 H -1.137298 0.963210 -4.008136 0
M  V30 49 H -1.248235 -0.426045 -5.104778 0
M  V30 50 H 3.870938 -6.162630 -1.189893 0
M  V30 END ATOM
M  V30 BEGIN BOND
M  V30 1 1 1 2
M  V30 2 1 2 3
M  V30 3 2 3 4
M  V30 4 1 4 5
M  V30 5 1 5 6
M  V30 6 1 6 7
M  V30 7 2 7 8
M  V30 8 1 8 9
M  V30 9 2 9 10
M  V30 10 1 10 11
M  V30 11 2 11 12
M  V30 12 1 11 13
M  V30 13 1 13 14
M  V30 14 1 14 15
M  V30 15 1 15 16
M  V30 16 1 16 17
M  V30 17 1 17 18
M  V30 18 1 18 19
M  V30 19 1 19 20
M  V30 20 1 10 21
M  V30 21 2 21 22
M  V30 22 1 22 23
M  V30 23 1 23 24
M  V30 24 2 5 25
M  V30 25 1 25 26
M  V30 26 2 26 27
M  V30 27 1 27 28
M  V30 28 1 27 3
M  V30 29 1 22 7
M  V30 30 1 18 13
M  V30 31 1 1 29
M  V30 32 1 1 30
M  V30 33 1 1 31
M  V30 34 1 2 32
M  V30 35 1 6 33
M  V30 36 1 8 34
M  V30 37 1 9 35
M  V30 38 1 14 36
M  V30 39 1 14 37
M  V30 40 1 15 38
M  V30 41 1 15 39
M  V30 42 1 17 40
M  V30 43 1 17 41
M  V30 44 1 18 42
M  V30 45 1 19 43
M  V30 46 1 19 44
M  V30 47 1 20 45
M  V30 48 1 21 46
M  V30 49 1 24 47
M  V30 50 1 24 48
M  V30 51 1 24 49
M  V30 52 1 26 50
M  V30 END BOND
M  V30 END CTAB
M  END
>  <Dataset>  (690) 
ChEMBL_Kinases

>  <Ligand_Instance>  (690) 
nan

>  <PDB_ID>  (690) 
nan

>  <Standardized_SMILES>  (690) 
CNc1nc(Nc2ccc(C(=O)N3CCOCC3CO)cc2OC)ncc1Cl

>  <Name>  (690) 
nan

>  <Pocket>  (690) 
nan

>  <ATP_Site>  (690) 
nan

>  <Peripheral>  (690) 
nan

>  <Num_H_Atoms_ProtBoundConf>  (690) 
nan

>  <Num_Resolved_Atoms>  (690) 
nan

>  <Num_Not_Resolved_Atoms>  (690) 
nan

$$$$
CHEMBL3641784
     RDKit          3D

  0  0  0  0  0  0  0  0  0  0999 V3000
M  V30 BEGIN CTAB
M  V30 COUNTS 58 60 0 0 0
M  V30 BEGIN ATOM
M  V30 1 C -0.518735 -4.990284 4.501368 0
M  V30 2 N 0.602399 -4.601494 3.759207 0
M  V30 3 C 1.667476 -4.202798 2.936010 0
M  V30 4 N 1.855947 -3.846726 1.662685 0
M  V30 5 C 3.037019 -3.500593 1.167152 0
M  V30 6 N 2.851075 -3.186777 -0.215824 0
M  V30 7 C 2.455253 -1.871295 -0.575067 0
M  V30 8 C 2.266469 -0.900713 0.415915 0
M  V30 9 C 1.870607 0.408966 0.110442 0
M  V30 10 C 1.662520 0.736212 -1.237651 0
M  V30 11 C 1.254778 2.129710 -1.352325 0
M  V30 12 O 1.871726 3.219917 -1.357587 0
M  V30 13 N -0.161385 2.287288 -1.487763 0
M  V30 14 C -0.670295 3.662685 -1.605718 0
M  V30 15 C -1.547345 3.855986 -0.369977 0
M  V30 16 O -1.788058 2.690469 0.318390 0
M  V30 17 C -2.199940 1.619491 -0.442844 0
M  V30 18 C -2.302803 0.414386 0.464773 0
M  V30 19 C -3.280248 0.595402 1.590087 0
M  V30 20 C -4.667754 0.859541 1.058285 0
M  V30 21 C -3.371674 -0.726066 2.348265 0
M  V30 22 C -1.195569 1.265316 -1.528847 0
M  V30 23 C 1.847121 -0.215720 -2.214959 0
M  V30 24 C 2.236918 -1.498629 -1.892320 0
M  V30 25 O 2.411693 -2.421463 -2.884805 0
M  V30 26 C 2.244281 -2.248265 -4.257165 0
M  V30 27 N 4.069459 -3.514469 1.990803 0
M  V30 28 C 4.050081 -3.840649 3.271747 0
M  V30 29 C 2.795430 -4.199409 3.762262 0
M  V30 30 Cl 2.910099 -4.615826 5.478251 0
M  V30 31 H -1.379227 -4.266967 4.567430 0
M  V30 32 H -0.978866 -5.985241 4.257983 0
M  V30 33 H -0.236800 -5.126766 5.613643 0
M  V30 34 H -0.080470 -4.531426 2.932240 0
M  V30 35 H 2.998472 -3.892638 -0.967096 0
M  V30 36 H 2.442775 -1.213627 1.441094 0
M  V30 37 H 1.763261 1.049678 0.974203 0
M  V30 38 H 0.136236 4.410746 -1.662791 0
M  V30 39 H -1.356386 3.654236 -2.474022 0
M  V30 40 H -0.951248 4.522387 0.314535 0
M  V30 41 H -2.443841 4.451260 -0.621780 0
M  V30 42 H -3.200004 1.813975 -0.904198 0
M  V30 43 H -1.323520 0.138848 0.893927 0
M  V30 44 H -2.630703 -0.501548 -0.094708 0
M  V30 45 H -2.960833 1.355872 2.325587 0
M  V30 46 H -5.404520 0.464647 1.806299 0
M  V30 47 H -4.837147 1.933785 0.831609 0
M  V30 48 H -4.794677 0.259173 0.125536 0
M  V30 49 H -3.408072 -1.533318 1.573062 0
M  V30 50 H -2.390980 -0.843013 2.858849 0
M  V30 51 H -4.227047 -0.760266 3.036389 0
M  V30 52 H -0.726179 0.286924 -1.403812 0
M  V30 53 H -1.695187 1.345625 -2.539509 0
M  V30 54 H 1.657142 0.152264 -3.200036 0
M  V30 55 H 2.206636 -1.215965 -4.605334 0
M  V30 56 H 3.030155 -2.818887 -4.831786 0
M  V30 57 H 1.288730 -2.758151 -4.555602 0
M  V30 58 H 4.990359 -3.793653 3.782763 0
M  V30 END ATOM
M  V30 BEGIN BOND
M  V30 1 1 1 2
M  V30 2 1 2 3
M  V30 3 2 3 4
M  V30 4 1 4 5
M  V30 5 1 5 6
M  V30 6 1 6 7
M  V30 7 2 7 8
M  V30 8 1 8 9
M  V30 9 2 9 10
M  V30 10 1 10 11
M  V30 11 2 11 12
M  V30 12 1 11 13
M  V30 13 1 13 14
M  V30 14 1 14 15
M  V30 15 1 15 16
M  V30 16 1 16 17
M  V30 17 1 17 18
M  V30 18 1 18 19
M  V30 19 1 19 20
M  V30 20 1 19 21
M  V30 21 1 17 22
M  V30 22 1 10 23
M  V30 23 2 23 24
M  V30 24 1 24 25
M  V30 25 1 25 26
M  V30 26 2 5 27
M  V30 27 1 27 28
M  V30 28 2 28 29
M  V30 29 1 29 30
M  V30 30 1 29 3
M  V30 31 1 24 7
M  V30 32 1 22 13
M  V30 33 1 1 31
M  V30 34 1 1 32
M  V30 35 1 1 33
M  V30 36 1 2 34
M  V30 37 1 6 35
M  V30 38 1 8 36
M  V30 39 1 9 37
M  V30 40 1 14 38
M  V30 41 1 14 39
M  V30 42 1 15 40
M  V30 43 1 15 41
M  V30 44 1 17 42
M  V30 45 1 18 43
M  V30 46 1 18 44
M  V30 47 1 19 45
M  V30 48 1 20 46
M  V30 49 1 20 47
M  V30 50 1 20 48
M  V30 51 1 21 49
M  V30 52 1 21 50
M  V30 53 1 21 51
M  V30 54 1 22 52
M  V30 55 1 22 53
M  V30 56 1 23 54
M  V30 57 1 26 55
M  V30 58 1 26 56
M  V30 59 1 26 57
M  V30 60 1 28 58
M  V30 END BOND
M  V30 END CTAB
M  END
>  <Dataset>  (691) 
ChEMBL_Kinases

>  <Ligand_Instance>  (691) 
nan

>  <PDB_ID>  (691) 
nan

>  <Standardized_SMILES>  (691) 
CNc1nc(Nc2ccc(C(=O)N3CCOC(CC(C)C)C3)cc2OC)ncc1Cl

>  <Name>  (691) 
nan

>  <Pocket>  (691) 
nan

>  <ATP_Site>  (691) 
nan

>  <Peripheral>  (691) 
nan

>  <Num_H_Atoms_ProtBoundConf>  (691) 
nan

>  <Num_Resolved_Atoms>  (691) 
nan

>  <Num_Not_Resolved_Atoms>  (691) 
nan

$$$$
CHEMBL3641785
     RDKit          3D

  0  0  0  0  0  0  0  0  0  0999 V3000
M  V30 BEGIN CTAB
M  V30 COUNTS 47 49 0 0 0
M  V30 BEGIN ATOM
M  V30 1 C -0.735931 -4.511777 3.784947 0
M  V30 2 N 0.486790 -5.124781 3.374692 0
M  V30 3 C 1.032848 -5.012595 2.043184 0
M  V30 4 N 0.303056 -4.254295 1.185212 0
M  V30 5 C 0.735430 -4.080097 -0.086358 0
M  V30 6 N -0.156563 -3.246380 -0.835699 0
M  V30 7 C 0.082275 -1.856292 -0.719781 0
M  V30 8 C 1.091555 -1.307885 0.038704 0
M  V30 9 C 1.369108 0.028341 0.193021 0
M  V30 10 C 0.528411 0.868376 -0.498025 0
M  V30 11 C 0.707012 2.301114 -0.424878 0
M  V30 12 O 0.994534 3.277281 -1.141852 0
M  V30 13 N 0.510400 2.912748 0.866700 0
M  V30 14 C 0.693664 4.344304 0.913904 0
M  V30 15 C -0.163226 4.986614 1.962856 0
M  V30 16 N -0.239079 4.198502 3.187899 0
M  V30 17 C -0.894905 2.948230 2.808329 0
M  V30 18 C 0.149510 2.137638 2.059119 0
M  V30 19 C -0.501847 0.386790 -1.276092 0
M  V30 20 C -0.756740 -0.978898 -1.411548 0
M  V30 21 O -1.813374 -1.377802 -2.213857 0
M  V30 22 C -2.618786 -0.416186 -2.883144 0
M  V30 23 N 1.882353 -4.620562 -0.599534 0
M  V30 24 C 2.584213 -5.369642 0.281411 0
M  V30 25 C 2.180441 -5.568105 1.572413 0
M  V30 26 Cl 3.090998 -6.538171 2.706128 0
M  V30 27 H -0.905105 -3.554688 3.234067 0
M  V30 28 H -0.768784 -4.286618 4.867807 0
M  V30 29 H -1.600625 -5.199076 3.534346 0
M  V30 30 H 0.999624 -5.681758 4.094674 0
M  V30 31 H -0.911414 -3.624551 -1.412390 0
M  V30 32 H 1.737181 -2.015281 0.571566 0
M  V30 33 H 2.184169 0.366225 0.810372 0
M  V30 34 H 0.379014 4.788572 -0.067068 0
M  V30 35 H 1.758827 4.603829 1.028547 0
M  V30 36 H -1.198842 5.028608 1.554562 0
M  V30 37 H 0.195506 6.013622 2.172558 0
M  V30 38 H 0.693505 4.015508 3.585693 0
M  V30 39 H -1.757638 3.156535 2.163863 0
M  V30 40 H -1.277212 2.392265 3.688981 0
M  V30 41 H 1.032555 1.980567 2.705377 0
M  V30 42 H -0.308724 1.188458 1.719084 0
M  V30 43 H -1.149335 1.087795 -1.811640 0
M  V30 44 H -3.024963 0.283495 -2.108785 0
M  V30 45 H -2.049087 0.133505 -3.660131 0
M  V30 46 H -3.474277 -0.933922 -3.350894 0
M  V30 47 H 3.493562 -5.813830 -0.086747 0
M  V30 END ATOM
M  V30 BEGIN BOND
M  V30 1 1 1 2
M  V30 2 1 2 3
M  V30 3 2 3 4
M  V30 4 1 4 5
M  V30 5 1 5 6
M  V30 6 1 6 7
M  V30 7 2 7 8
M  V30 8 1 8 9
M  V30 9 2 9 10
M  V30 10 1 10 11
M  V30 11 2 11 12
M  V30 12 1 11 13
M  V30 13 1 13 14
M  V30 14 1 14 15
M  V30 15 1 15 16
M  V30 16 1 16 17
M  V30 17 1 17 18
M  V30 18 1 10 19
M  V30 19 2 19 20
M  V30 20 1 20 21
M  V30 21 1 21 22
M  V30 22 2 5 23
M  V30 23 1 23 24
M  V30 24 2 24 25
M  V30 25 1 25 26
M  V30 26 1 25 3
M  V30 27 1 20 7
M  V30 28 1 18 13
M  V30 29 1 1 27
M  V30 30 1 1 28
M  V30 31 1 1 29
M  V30 32 1 2 30
M  V30 33 1 6 31
M  V30 34 1 8 32
M  V30 35 1 9 33
M  V30 36 1 14 34
M  V30 37 1 14 35
M  V30 38 1 15 36
M  V30 39 1 15 37
M  V30 40 1 16 38
M  V30 41 1 17 39
M  V30 42 1 17 40
M  V30 43 1 18 41
M  V30 44 1 18 42
M  V30 45 1 19 43
M  V30 46 1 22 44
M  V30 47 1 22 45
M  V30 48 1 22 46
M  V30 49 1 24 47
M  V30 END BOND
M  V30 END CTAB
M  END
>  <Dataset>  (692) 
ChEMBL_Kinases

>  <Ligand_Instance>  (692) 
nan

>  <PDB_ID>  (692) 
nan

>  <Standardized_SMILES>  (692) 
CNc1nc(Nc2ccc(C(=O)N3CCNCC3)cc2OC)ncc1Cl

>  <Name>  (692) 
nan

>  <Pocket>  (692) 
nan

>  <ATP_Site>  (692) 
nan

>  <Peripheral>  (692) 
nan

>  <Num_H_Atoms_ProtBoundConf>  (692) 
nan

>  <Num_Resolved_Atoms>  (692) 
nan

>  <Num_Not_Resolved_Atoms>  (692) 
nan

$$$$
CHEMBL3641786
     RDKit          3D

  0  0  0  0  0  0  0  0  0  0999 V3000
M  V30 BEGIN CTAB
M  V30 COUNTS 49 51 0 0 0
M  V30 BEGIN ATOM
M  V30 1 C 2.526850 -3.865417 2.145472 0
M  V30 2 C 1.732821 -3.954128 0.886147 0
M  V30 3 O 0.570978 -3.191315 0.841071 0
M  V30 4 C 0.445338 -1.833031 0.955349 0
M  V30 5 C 1.578217 -1.075065 1.138950 0
M  V30 6 C 1.499789 0.295143 1.258438 0
M  V30 7 C 2.747801 1.008645 1.451411 0
M  V30 8 O 3.641201 0.540780 2.213817 0
M  V30 9 N 3.250282 2.231634 0.932970 0
M  V30 10 C 4.575343 2.575994 1.403448 0
M  V30 11 C 5.464298 2.642396 0.158105 0
M  V30 12 O 4.755041 2.386467 -1.009439 0
M  V30 13 C 3.680211 3.261498 -1.179494 0
M  V30 14 C 2.754827 3.263762 0.017637 0
M  V30 15 C 0.271439 0.915456 1.193398 0
M  V30 16 C -0.830886 0.110565 1.008779 0
M  V30 17 C -0.830873 -1.260445 0.881408 0
M  V30 18 N -1.974804 -2.060875 0.699740 0
M  V30 19 C -3.318854 -1.669268 0.596667 0
M  V30 20 N -3.806346 -0.423938 0.631917 0
M  V30 21 C -5.073105 -0.054787 0.538916 0
M  V30 22 C -5.994057 -1.056197 0.389773 0
M  V30 23 Cl -7.693181 -0.658374 0.259446 0
M  V30 24 C -5.581596 -2.356262 0.344205 0
M  V30 25 N -6.498014 -3.436348 0.190788 0
M  V30 26 C -6.243659 -4.858516 0.123221 0
M  V30 27 N -4.280190 -2.595550 0.448557 0
M  V30 28 H 3.597699 -3.576475 1.975593 0
M  V30 29 H 2.585242 -4.886710 2.625178 0
M  V30 30 H 2.128149 -3.188467 2.913704 0
M  V30 31 H 2.392657 -3.679556 0.033634 0
M  V30 32 H 1.411553 -5.020873 0.705259 0
M  V30 33 H 2.533408 -1.575749 1.186324 0
M  V30 34 H 4.494181 3.597026 1.856211 0
M  V30 35 H 4.987090 1.916303 2.164517 0
M  V30 36 H 5.978587 3.620668 0.159728 0
M  V30 37 H 6.197497 1.817192 0.264555 0
M  V30 38 H 4.032948 4.293998 -1.436000 0
M  V30 39 H 3.097338 2.867372 -2.038319 0
M  V30 40 H 2.844582 4.244001 0.541776 0
M  V30 41 H 1.707467 3.039617 -0.266142 0
M  V30 42 H 0.203829 1.989170 1.286464 0
M  V30 43 H -1.760170 0.651004 0.966944 0
M  V30 44 H -1.781144 -3.104949 0.632130 0
M  V30 45 H -5.363164 0.982657 0.579770 0
M  V30 46 H -7.519797 -3.245980 0.108955 0
M  V30 47 H -6.588564 -5.306598 1.101255 0
M  V30 48 H -6.782043 -5.366544 -0.684561 0
M  V30 49 H -5.173315 -5.057382 0.047927 0
M  V30 END ATOM
M  V30 BEGIN BOND
M  V30 1 1 1 2
M  V30 2 1 2 3
M  V30 3 1 3 4
M  V30 4 2 4 5
M  V30 5 1 5 6
M  V30 6 1 6 7
M  V30 7 2 7 8
M  V30 8 1 7 9
M  V30 9 1 9 10
M  V30 10 1 10 11
M  V30 11 1 11 12
M  V30 12 1 12 13
M  V30 13 1 13 14
M  V30 14 2 6 15
M  V30 15 1 15 16
M  V30 16 2 16 17
M  V30 17 1 17 18
M  V30 18 1 18 19
M  V30 19 2 19 20
M  V30 20 1 20 21
M  V30 21 2 21 22
M  V30 22 1 22 23
M  V30 23 1 22 24
M  V30 24 1 24 25
M  V30 25 1 25 26
M  V30 26 2 24 27
M  V30 27 1 17 4
M  V30 28 1 27 19
M  V30 29 1 14 9
M  V30 30 1 1 28
M  V30 31 1 1 29
M  V30 32 1 1 30
M  V30 33 1 2 31
M  V30 34 1 2 32
M  V30 35 1 5 33
M  V30 36 1 10 34
M  V30 37 1 10 35
M  V30 38 1 11 36
M  V30 39 1 11 37
M  V30 40 1 13 38
M  V30 41 1 13 39
M  V30 42 1 14 40
M  V30 43 1 14 41
M  V30 44 1 15 42
M  V30 45 1 16 43
M  V30 46 1 18 44
M  V30 47 1 21 45
M  V30 48 1 25 46
M  V30 49 1 26 47
M  V30 50 1 26 48
M  V30 51 1 26 49
M  V30 END BOND
M  V30 END CTAB
M  END
>  <Dataset>  (693) 
ChEMBL_Kinases

>  <Ligand_Instance>  (693) 
nan

>  <PDB_ID>  (693) 
nan

>  <Standardized_SMILES>  (693) 
CCOc1cc(C(=O)N2CCOCC2)ccc1Nc1ncc(Cl)c(NC)n1

>  <Name>  (693) 
nan

>  <Pocket>  (693) 
nan

>  <ATP_Site>  (693) 
nan

>  <Peripheral>  (693) 
nan

>  <Num_H_Atoms_ProtBoundConf>  (693) 
nan

>  <Num_Resolved_Atoms>  (693) 
nan

>  <Num_Not_Resolved_Atoms>  (693) 
nan

$$$$
CHEMBL3641787
     RDKit          3D

  0  0  0  0  0  0  0  0  0  0999 V3000
M  V30 BEGIN CTAB
M  V30 COUNTS 35 36 0 0 0
M  V30 BEGIN ATOM
M  V30 1 C 0.947433 -0.603232 6.603598 0
M  V30 2 N 0.359064 -0.908754 5.331255 0
M  V30 3 C -0.132276 -1.202207 4.064061 0
M  V30 4 N 0.421788 -1.353569 2.829027 0
M  V30 5 C -0.384769 -1.650564 1.776203 0
M  V30 6 N 0.381953 -1.754051 0.585577 0
M  V30 7 C 0.256900 -0.811919 -0.498696 0
M  V30 8 C -0.724208 0.172170 -0.331007 0
M  V30 9 C -0.911390 1.100929 -1.349857 0
M  V30 10 C -0.158387 1.059540 -2.492446 0
M  V30 11 C -0.268747 1.954882 -3.662317 0
M  V30 12 N -1.331642 2.934090 -3.589350 0
M  V30 13 O 0.486900 1.900697 -4.670291 0
M  V30 14 C 0.797645 0.076912 -2.618296 0
M  V30 15 C 1.034560 -0.870300 -1.651450 0
M  V30 16 O 1.949642 -1.908792 -1.628866 0
M  V30 17 C 2.846622 -2.154479 -2.690280 0
M  V30 18 N -1.700004 -1.784521 1.986799 0
M  V30 19 C -2.315303 -1.652030 3.154601 0
M  V30 20 C -1.507319 -1.351840 4.226700 0
M  V30 21 Cl -2.461597 -1.206208 5.694879 0
M  V30 22 H 1.310136 -1.516464 7.148726 0
M  V30 23 H 0.095303 -0.198863 7.259224 0
M  V30 24 H 1.700924 0.175217 6.596218 0
M  V30 25 H 1.371926 -0.920669 4.978467 0
M  V30 26 H 1.044305 -2.552535 0.541470 0
M  V30 27 H -1.344314 0.242469 0.553501 0
M  V30 28 H -1.650552 1.903140 -1.290063 0
M  V30 29 H -1.916072 2.762878 -4.466762 0
M  V30 30 H -1.537850 3.666852 -2.865446 0
M  V30 31 H 1.434865 -0.018672 -3.491743 0
M  V30 32 H 3.715112 -1.471100 -2.613958 0
M  V30 33 H 3.132880 -3.224736 -2.786093 0
M  V30 34 H 2.321959 -1.891949 -3.635929 0
M  V30 35 H -3.371325 -1.813776 3.031838 0
M  V30 END ATOM
M  V30 BEGIN BOND
M  V30 1 1 1 2
M  V30 2 1 2 3
M  V30 3 2 3 4
M  V30 4 1 4 5
M  V30 5 1 5 6
M  V30 6 1 6 7
M  V30 7 2 7 8
M  V30 8 1 8 9
M  V30 9 2 9 10
M  V30 10 1 10 11
M  V30 11 1 11 12
M  V30 12 2 11 13
M  V30 13 1 10 14
M  V30 14 2 14 15
M  V30 15 1 15 16
M  V30 16 1 16 17
M  V30 17 2 5 18
M  V30 18 1 18 19
M  V30 19 2 19 20
M  V30 20 1 20 21
M  V30 21 1 20 3
M  V30 22 1 15 7
M  V30 23 1 1 22
M  V30 24 1 1 23
M  V30 25 1 1 24
M  V30 26 1 2 25
M  V30 27 1 6 26
M  V30 28 1 8 27
M  V30 29 1 9 28
M  V30 30 1 12 29
M  V30 31 1 12 30
M  V30 32 1 14 31
M  V30 33 1 17 32
M  V30 34 1 17 33
M  V30 35 1 17 34
M  V30 36 1 19 35
M  V30 END BOND
M  V30 END CTAB
M  END
>  <Dataset>  (694) 
ChEMBL_Kinases

>  <Ligand_Instance>  (694) 
nan

>  <PDB_ID>  (694) 
nan

>  <Standardized_SMILES>  (694) 
CNc1nc(Nc2ccc(C(N)=O)cc2OC)ncc1Cl

>  <Name>  (694) 
nan

>  <Pocket>  (694) 
nan

>  <ATP_Site>  (694) 
nan

>  <Peripheral>  (694) 
nan

>  <Num_H_Atoms_ProtBoundConf>  (694) 
nan

>  <Num_Resolved_Atoms>  (694) 
nan

>  <Num_Not_Resolved_Atoms>  (694) 
nan

$$$$
CHEMBL3641797
     RDKit          3D

  0  0  0  0  0  0  0  0  0  0999 V3000
M  V30 BEGIN CTAB
M  V30 COUNTS 48 50 0 0 0
M  V30 BEGIN ATOM
M  V30 1 C -2.573873 -3.066311 -2.921331 0
M  V30 2 N -1.993681 -4.374117 -3.044736 0
M  V30 3 C -0.909614 -5.024982 -2.417265 0
M  V30 4 N -0.411108 -4.172049 -1.496961 0
M  V30 5 C 0.633094 -4.482158 -0.672797 0
M  V30 6 N 1.208999 -3.648521 0.309787 0
M  V30 7 C 1.049913 -2.256264 0.536545 0
M  V30 8 C 0.454763 -1.516210 -0.505849 0
M  V30 9 C 0.293947 -0.148933 -0.403893 0
M  V30 10 C 0.727172 0.461564 0.734945 0
M  V30 11 C 0.576558 1.896967 0.855396 0
M  V30 12 O 0.426910 2.558878 -0.201668 0
M  V30 13 N 0.528511 2.938308 1.784185 0
M  V30 14 C 0.349143 4.289047 1.319328 0
M  V30 15 C -0.726745 4.930724 2.171040 0
M  V30 16 C -0.698570 4.037359 3.396593 0
M  V30 17 C -1.925024 3.155709 3.301518 0
M  V30 18 F -1.899379 2.405577 2.156646 0
M  V30 19 F -2.085166 2.325193 4.389572 0
M  V30 20 F -3.024268 4.014494 3.228070 0
M  V30 21 C 0.590513 3.275881 3.198728 0
M  V30 22 C 1.312131 -0.228758 1.774575 0
M  V30 23 C 1.483891 -1.599938 1.694713 0
M  V30 24 O 2.037283 -2.473947 2.615326 0
M  V30 25 C 2.514322 -1.991522 3.857736 0
M  V30 26 N 1.119545 -5.710912 -0.862955 0
M  V30 27 C 0.713410 -6.616065 -1.724383 0
M  V30 28 C -0.340078 -6.253944 -2.526087 0
M  V30 29 Br -1.169047 -7.329723 -3.865629 0
M  V30 30 H -1.796362 -2.258787 -3.096606 0
M  V30 31 H -3.330518 -2.923332 -3.703901 0
M  V30 32 H -2.968197 -2.878554 -1.895574 0
M  V30 33 H -2.429996 -5.051763 -3.747355 0
M  V30 34 H 1.850326 -4.096277 0.986036 0
M  V30 35 H 0.088414 -1.911877 -1.455935 0
M  V30 36 H -0.160507 0.467330 -1.188004 0
M  V30 37 H 1.294093 4.876505 1.476890 0
M  V30 38 H 0.130712 4.396745 0.243034 0
M  V30 39 H -0.454351 5.954952 2.479838 0
M  V30 40 H -1.712974 4.913722 1.668564 0
M  V30 41 H -0.709956 4.602004 4.353279 0
M  V30 42 H 1.427788 3.994416 3.305554 0
M  V30 43 H 0.665302 2.393093 3.853528 0
M  V30 44 H 1.663713 0.192161 2.683528 0
M  V30 45 H 2.618208 -2.867931 4.561367 0
M  V30 46 H 1.738583 -1.330595 4.350894 0
M  V30 47 H 3.458503 -1.429179 3.809369 0
M  V30 48 H 1.107691 -7.605193 -1.870930 0
M  V30 END ATOM
M  V30 BEGIN BOND
M  V30 1 1 1 2
M  V30 2 1 2 3
M  V30 3 2 3 4
M  V30 4 1 4 5
M  V30 5 1 5 6
M  V30 6 1 6 7
M  V30 7 2 7 8
M  V30 8 1 8 9
M  V30 9 2 9 10
M  V30 10 1 10 11
M  V30 11 2 11 12
M  V30 12 1 11 13
M  V30 13 1 13 14
M  V30 14 1 14 15
M  V30 15 1 15 16
M  V30 16 1 16 17
M  V30 17 1 17 18
M  V30 18 1 17 19
M  V30 19 1 17 20
M  V30 20 1 16 21
M  V30 21 1 10 22
M  V30 22 2 22 23
M  V30 23 1 23 24
M  V30 24 1 24 25
M  V30 25 2 5 26
M  V30 26 1 26 27
M  V30 27 2 27 28
M  V30 28 1 28 29
M  V30 29 1 28 3
M  V30 30 1 23 7
M  V30 31 1 21 13
M  V30 32 1 1 30
M  V30 33 1 1 31
M  V30 34 1 1 32
M  V30 35 1 2 33
M  V30 36 1 6 34
M  V30 37 1 8 35
M  V30 38 1 9 36
M  V30 39 1 14 37
M  V30 40 1 14 38
M  V30 41 1 15 39
M  V30 42 1 15 40
M  V30 43 1 16 41
M  V30 44 1 21 42
M  V30 45 1 21 43
M  V30 46 1 22 44
M  V30 47 1 25 45
M  V30 48 1 25 46
M  V30 49 1 25 47
M  V30 50 1 27 48
M  V30 END BOND
M  V30 END CTAB
M  END
>  <Dataset>  (695) 
ChEMBL_Kinases

>  <Ligand_Instance>  (695) 
nan

>  <PDB_ID>  (695) 
nan

>  <Standardized_SMILES>  (695) 
CNc1nc(Nc2ccc(C(=O)N3CCC(C(F)(F)F)C3)cc2OC)ncc1Br

>  <Name>  (695) 
nan

>  <Pocket>  (695) 
nan

>  <ATP_Site>  (695) 
nan

>  <Peripheral>  (695) 
nan

>  <Num_H_Atoms_ProtBoundConf>  (695) 
nan

>  <Num_Resolved_Atoms>  (695) 
nan

>  <Num_Not_Resolved_Atoms>  (695) 
nan

$$$$
CHEMBL3641789
     RDKit          3D

  0  0  0  0  0  0  0  0  0  0999 V3000
M  V30 BEGIN CTAB
M  V30 COUNTS 51 53 0 0 0
M  V30 BEGIN ATOM
M  V30 1 C 2.643429 -2.552595 4.703722 0
M  V30 2 O 1.632832 -1.707601 4.177952 0
M  V30 3 C 1.679162 -1.108370 2.940339 0
M  V30 4 C 2.644623 -1.167433 1.959230 0
M  V30 5 C 2.499754 -0.482602 0.770841 0
M  V30 6 C 3.551657 -0.586776 -0.232702 0
M  V30 7 O 4.792605 -0.708113 0.038769 0
M  V30 8 N 3.403273 -0.573743 -1.646480 0
M  V30 9 C 4.657479 -0.699733 -2.371475 0
M  V30 10 C 4.482128 0.080151 -3.653101 0
M  V30 11 O 3.574951 -0.527960 -4.512402 0
M  V30 12 C 2.552983 -1.175929 -3.826882 0
M  V30 13 C 2.236373 -0.458019 -2.513186 0
M  V30 14 C 1.383229 0.285477 0.523493 0
M  V30 15 C 0.399871 0.363943 1.486165 0
M  V30 16 C 0.539609 -0.329186 2.695941 0
M  V30 17 N -0.569659 -0.165664 3.607716 0
M  V30 18 C -1.703297 0.649434 3.323203 0
M  V30 19 N -1.957470 1.948093 3.664387 0
M  V30 20 C -3.093815 2.529311 3.277376 0
M  V30 21 C -4.055943 1.909018 2.542606 0
M  V30 22 Cl -5.533156 2.686037 2.047214 0
M  V30 23 C -3.794648 0.600742 2.201862 0
M  V30 24 O -4.711213 -0.129261 1.449527 0
M  V30 25 C -4.486491 -1.471742 1.082655 0
M  V30 26 C -5.640381 -2.296400 1.600841 0
M  V30 27 C -4.407314 -1.626271 -0.429455 0
M  V30 28 N -2.631001 0.000935 2.596562 0
M  V30 29 H 3.351478 -1.880428 5.253257 0
M  V30 30 H 2.225870 -3.301441 5.406610 0
M  V30 31 H 3.243002 -3.016336 3.895375 0
M  V30 32 H 3.479683 -1.782034 2.221654 0
M  V30 33 H 5.505341 -0.283217 -1.823649 0
M  V30 34 H 4.760100 -1.766344 -2.622530 0
M  V30 35 H 5.457779 0.152313 -4.176013 0
M  V30 36 H 4.052943 1.064704 -3.377064 0
M  V30 37 H 2.772409 -2.217210 -3.580122 0
M  V30 38 H 1.639058 -1.106876 -4.457386 0
M  V30 39 H 1.964403 0.604775 -2.689815 0
M  V30 40 H 1.359463 -0.992026 -2.095993 0
M  V30 41 H 1.235791 0.830177 -0.385629 0
M  V30 42 H -0.475062 0.967217 1.288007 0
M  V30 43 H -0.628084 -0.628152 4.541740 0
M  V30 44 H -3.208436 3.544066 3.587888 0
M  V30 45 H -3.544582 -1.869533 1.515575 0
M  V30 46 H -6.081344 -1.906027 2.540458 0
M  V30 47 H -5.339325 -3.366009 1.751791 0
M  V30 48 H -6.476119 -2.343711 0.865199 0
M  V30 49 H -5.082930 -2.437930 -0.756287 0
M  V30 50 H -4.670309 -0.702170 -0.968301 0
M  V30 51 H -3.382998 -1.976255 -0.714823 0
M  V30 END ATOM
M  V30 BEGIN BOND
M  V30 1 1 1 2
M  V30 2 1 2 3
M  V30 3 2 3 4
M  V30 4 1 4 5
M  V30 5 1 5 6
M  V30 6 2 6 7
M  V30 7 1 6 8
M  V30 8 1 8 9
M  V30 9 1 9 10
M  V30 10 1 10 11
M  V30 11 1 11 12
M  V30 12 1 12 13
M  V30 13 2 5 14
M  V30 14 1 14 15
M  V30 15 2 15 16
M  V30 16 1 16 17
M  V30 17 1 17 18
M  V30 18 2 18 19
M  V30 19 1 19 20
M  V30 20 2 20 21
M  V30 21 1 21 22
M  V30 22 1 21 23
M  V30 23 1 23 24
M  V30 24 1 24 25
M  V30 25 1 25 26
M  V30 26 1 25 27
M  V30 27 2 23 28
M  V30 28 1 16 3
M  V30 29 1 28 18
M  V30 30 1 13 8
M  V30 31 1 1 29
M  V30 32 1 1 30
M  V30 33 1 1 31
M  V30 34 1 4 32
M  V30 35 1 9 33
M  V30 36 1 9 34
M  V30 37 1 10 35
M  V30 38 1 10 36
M  V30 39 1 12 37
M  V30 40 1 12 38
M  V30 41 1 13 39
M  V30 42 1 13 40
M  V30 43 1 14 41
M  V30 44 1 15 42
M  V30 45 1 17 43
M  V30 46 1 20 44
M  V30 47 1 25 45
M  V30 48 1 26 46
M  V30 49 1 26 47
M  V30 50 1 26 48
M  V30 51 1 27 49
M  V30 52 1 27 50
M  V30 53 1 27 51
M  V30 END BOND
M  V30 END CTAB
M  END
>  <Dataset>  (696) 
ChEMBL_Kinases

>  <Ligand_Instance>  (696) 
nan

>  <PDB_ID>  (696) 
nan

>  <Standardized_SMILES>  (696) 
COc1cc(C(=O)N2CCOCC2)ccc1Nc1ncc(Cl)c(OC(C)C)n1

>  <Name>  (696) 
nan

>  <Pocket>  (696) 
nan

>  <ATP_Site>  (696) 
nan

>  <Peripheral>  (696) 
nan

>  <Num_H_Atoms_ProtBoundConf>  (696) 
nan

>  <Num_Resolved_Atoms>  (696) 
nan

>  <Num_Not_Resolved_Atoms>  (696) 
nan

$$$$
CHEMBL3641790
     RDKit          3D

  0  0  0  0  0  0  0  0  0  0999 V3000
M  V30 BEGIN CTAB
M  V30 COUNTS 47 50 0 0 0
M  V30 BEGIN ATOM
M  V30 1 C -0.548968 -1.654198 5.500936 0
M  V30 2 N -1.862132 -2.292156 5.681108 0
M  V30 3 C -2.782140 -2.365672 4.621491 0
M  V30 4 N -2.516030 -1.867322 3.412916 0
M  V30 5 C -3.334634 -1.896487 2.354474 0
M  V30 6 N -3.088499 -1.381694 1.058216 0
M  V30 7 C -1.936054 -0.725393 0.581305 0
M  V30 8 C -0.811317 -0.459783 1.326644 0
M  V30 9 C 0.330564 0.177008 0.891021 0
M  V30 10 C 0.369277 0.599124 -0.424451 0
M  V30 11 C 1.513307 1.287738 -1.037040 0
M  V30 12 O 1.174916 2.234439 -1.830616 0
M  V30 13 N 2.887511 0.925804 -0.766590 0
M  V30 14 C 3.477826 -0.104289 0.100474 0
M  V30 15 C 4.919298 -0.087073 -0.413685 0
M  V30 16 C 5.082073 1.445345 -0.418560 0
M  V30 17 C 3.963697 1.639612 -1.424317 0
M  V30 18 C 4.486940 0.694751 -2.483516 0
M  V30 19 O 4.870591 -0.436775 -1.735828 0
M  V30 20 C -0.734410 0.356414 -1.214258 0
M  V30 21 C -1.856156 -0.282968 -0.740161 0
M  V30 22 O -2.914498 -0.480769 -1.608393 0
M  V30 23 C -2.879824 -0.048405 -2.959423 0
M  V30 24 N -4.506140 -2.496267 2.611622 0
M  V30 25 C -4.896356 -3.028126 3.753799 0
M  V30 26 C -4.010122 -2.960504 4.784523 0
M  V30 27 Cl -4.442689 -3.641340 6.342539 0
M  V30 28 H 0.067635 -1.802548 6.409683 0
M  V30 29 H -0.067615 -2.204706 4.676596 0
M  V30 30 H -0.665875 -0.572576 5.272839 0
M  V30 31 H -2.107004 -2.690964 6.606796 0
M  V30 32 H -3.866626 -1.498085 0.343316 0
M  V30 33 H -0.764761 -0.757239 2.358057 0
M  V30 34 H 1.187010 0.360527 1.523302 0
M  V30 35 H 2.994355 -1.072593 0.030174 0
M  V30 36 H 3.539042 0.337733 1.120188 0
M  V30 37 H 5.632225 -0.586808 0.203366 0
M  V30 38 H 4.847445 1.855623 0.569608 0
M  V30 39 H 6.063885 1.756376 -0.807770 0
M  V30 40 H 3.774417 2.648826 -1.731864 0
M  V30 41 H 5.431440 1.130484 -2.870611 0
M  V30 42 H 3.754073 0.437592 -3.263559 0
M  V30 43 H -0.719283 0.681905 -2.250437 0
M  V30 44 H -3.851975 -0.224060 -3.428124 0
M  V30 45 H -2.714886 1.068454 -2.953783 0
M  V30 46 H -2.021669 -0.467348 -3.510644 0
M  V30 47 H -5.877778 -3.495875 3.860232 0
M  V30 END ATOM
M  V30 BEGIN BOND
M  V30 1 1 1 2
M  V30 2 1 2 3
M  V30 3 2 3 4
M  V30 4 1 4 5
M  V30 5 1 5 6
M  V30 6 1 6 7
M  V30 7 2 7 8
M  V30 8 1 8 9
M  V30 9 2 9 10
M  V30 10 1 10 11
M  V30 11 2 11 12
M  V30 12 1 11 13
M  V30 13 1 13 14
M  V30 14 1 14 15
M  V30 15 1 15 16
M  V30 16 1 16 17
M  V30 17 1 17 18
M  V30 18 1 18 19
M  V30 19 1 10 20
M  V30 20 2 20 21
M  V30 21 1 21 22
M  V30 22 1 22 23
M  V30 23 2 5 24
M  V30 24 1 24 25
M  V30 25 2 25 26
M  V30 26 1 26 27
M  V30 27 1 26 3
M  V30 28 1 21 7
M  V30 29 1 17 13
M  V30 30 1 19 15
M  V30 31 1 1 28
M  V30 32 1 1 29
M  V30 33 1 1 30
M  V30 34 1 2 31
M  V30 35 1 6 32
M  V30 36 1 8 33
M  V30 37 1 9 34
M  V30 38 1 14 35
M  V30 39 1 14 36
M  V30 40 1 15 37
M  V30 41 1 16 38
M  V30 42 1 16 39
M  V30 43 1 17 40
M  V30 44 1 18 41
M  V30 45 1 18 42
M  V30 46 1 20 43
M  V30 47 1 23 44
M  V30 48 1 23 45
M  V30 49 1 23 46
M  V30 50 1 25 47
M  V30 END BOND
M  V30 END CTAB
M  END
>  <Dataset>  (697) 
ChEMBL_Kinases

>  <Ligand_Instance>  (697) 
nan

>  <PDB_ID>  (697) 
nan

>  <Standardized_SMILES>  (697) 
CNc1nc(Nc2ccc(C(=O)N3CC4CC3CO4)cc2OC)ncc1Cl

>  <Name>  (697) 
nan

>  <Pocket>  (697) 
nan

>  <ATP_Site>  (697) 
nan

>  <Peripheral>  (697) 
nan

>  <Num_H_Atoms_ProtBoundConf>  (697) 
nan

>  <Num_Resolved_Atoms>  (697) 
nan

>  <Num_Not_Resolved_Atoms>  (697) 
nan

$$$$
CHEMBL3641791
     RDKit          3D

  0  0  0  0  0  0  0  0  0  0999 V3000
M  V30 BEGIN CTAB
M  V30 COUNTS 50 53 0 0 0
M  V30 BEGIN ATOM
M  V30 1 C -0.426239 -5.324305 2.082942 0
M  V30 2 N 0.833279 -5.731525 1.497216 0
M  V30 3 C 1.224570 -5.189800 0.246495 0
M  V30 4 N 0.505616 -4.308344 -0.456546 0
M  V30 5 C 0.851577 -3.776288 -1.637985 0
M  V30 6 N -0.140654 -2.877052 -2.114152 0
M  V30 7 C -0.131345 -1.521063 -1.621492 0
M  V30 8 C 0.817236 -1.131665 -0.686070 0
M  V30 9 C 0.924815 0.127032 -0.130301 0
M  V30 10 C -0.008331 1.068695 -0.560110 0
M  V30 11 C 0.144385 2.378815 0.058803 0
M  V30 12 O 0.721458 3.173830 -0.720229 0
M  V30 13 N -0.330288 2.625128 1.375454 0
M  V30 14 C -0.193960 3.915508 2.018205 0
M  V30 15 C 0.013635 3.711883 3.505353 0
M  V30 16 C 1.313395 3.005594 3.796211 0
M  V30 17 C 0.949390 1.555390 3.720273 0
M  V30 18 C -0.555334 1.598048 3.585710 0
M  V30 19 C -0.979115 1.564975 2.113645 0
M  V30 20 O -0.937879 2.860767 4.054420 0
M  V30 21 C -0.971553 0.732380 -1.489142 0
M  V30 22 C -1.046738 -0.541476 -2.023763 0
M  V30 23 O -1.999082 -0.902696 -2.953903 0
M  V30 24 C -2.948121 0.052720 -3.399163 0
M  V30 25 N 2.044794 -4.177468 -2.158574 0
M  V30 26 C 2.833529 -5.053082 -1.532773 0
M  V30 27 C 2.423728 -5.560685 -0.328288 0
M  V30 28 Cl 3.514999 -6.703604 0.427467 0
M  V30 29 H -0.445667 -5.594245 3.169592 0
M  V30 30 H -0.443080 -4.205144 1.990848 0
M  V30 31 H -1.312630 -5.791724 1.642861 0
M  V30 32 H 1.452511 -6.412156 1.978631 0
M  V30 33 H -0.903224 -3.082643 -2.801626 0
M  V30 34 H 1.530615 -1.892352 -0.370857 0
M  V30 35 H 1.711700 0.295406 0.588449 0
M  V30 36 H 0.776731 4.342052 1.649377 0
M  V30 37 H -1.018756 4.607059 1.804522 0
M  V30 38 H -0.045729 4.676745 4.068852 0
M  V30 39 H 1.642107 3.257111 4.826559 0
M  V30 40 H 2.092469 3.280692 3.043079 0
M  V30 41 H 1.260153 0.987134 4.626451 0
M  V30 42 H 1.416345 1.121235 2.818997 0
M  V30 43 H -1.045437 0.765629 4.094096 0
M  V30 44 H -0.604581 0.601259 1.717812 0
M  V30 45 H -2.084139 1.615979 2.030386 0
M  V30 46 H -1.670473 1.496929 -1.787344 0
M  V30 47 H -3.360803 0.594456 -2.521020 0
M  V30 48 H -3.785887 -0.454272 -3.934485 0
M  V30 49 H -2.444295 0.829000 -4.041616 0
M  V30 50 H 3.735824 -5.251299 -2.094002 0
M  V30 END ATOM
M  V30 BEGIN BOND
M  V30 1 1 1 2
M  V30 2 1 2 3
M  V30 3 2 3 4
M  V30 4 1 4 5
M  V30 5 1 5 6
M  V30 6 1 6 7
M  V30 7 2 7 8
M  V30 8 1 8 9
M  V30 9 2 9 10
M  V30 10 1 10 11
M  V30 11 2 11 12
M  V30 12 1 11 13
M  V30 13 1 13 14
M  V30 14 1 14 15
M  V30 15 1 15 16
M  V30 16 1 16 17
M  V30 17 1 17 18
M  V30 18 1 18 19
M  V30 19 1 18 20
M  V30 20 1 10 21
M  V30 21 2 21 22
M  V30 22 1 22 23
M  V30 23 1 23 24
M  V30 24 2 5 25
M  V30 25 1 25 26
M  V30 26 2 26 27
M  V30 27 1 27 28
M  V30 28 1 27 3
M  V30 29 1 22 7
M  V30 30 1 19 13
M  V30 31 1 20 15
M  V30 32 1 1 29
M  V30 33 1 1 30
M  V30 34 1 1 31
M  V30 35 1 2 32
M  V30 36 1 6 33
M  V30 37 1 8 34
M  V30 38 1 9 35
M  V30 39 1 14 36
M  V30 40 1 14 37
M  V30 41 1 15 38
M  V30 42 1 16 39
M  V30 43 1 16 40
M  V30 44 1 17 41
M  V30 45 1 17 42
M  V30 46 1 18 43
M  V30 47 1 19 44
M  V30 48 1 19 45
M  V30 49 1 21 46
M  V30 50 1 24 47
M  V30 51 1 24 48
M  V30 52 1 24 49
M  V30 53 1 26 50
M  V30 END BOND
M  V30 END CTAB
M  END
>  <Dataset>  (698) 
ChEMBL_Kinases

>  <Ligand_Instance>  (698) 
nan

>  <PDB_ID>  (698) 
nan

>  <Standardized_SMILES>  (698) 
CNc1nc(Nc2ccc(C(=O)N3CC4CCC(C3)O4)cc2OC)ncc1Cl

>  <Name>  (698) 
nan

>  <Pocket>  (698) 
nan

>  <ATP_Site>  (698) 
nan

>  <Peripheral>  (698) 
nan

>  <Num_H_Atoms_ProtBoundConf>  (698) 
nan

>  <Num_Resolved_Atoms>  (698) 
nan

>  <Num_Not_Resolved_Atoms>  (698) 
nan

$$$$
CHEMBL3641792
     RDKit          3D

  0  0  0  0  0  0  0  0  0  0999 V3000
M  V30 BEGIN CTAB
M  V30 COUNTS 46 47 0 0 0
M  V30 BEGIN ATOM
M  V30 1 C 0.151778 -6.399519 4.076756 0
M  V30 2 N -1.063240 -5.658795 3.808614 0
M  V30 3 C -1.532565 -4.859329 2.749901 0
M  V30 4 N -0.770231 -4.655913 1.656773 0
M  V30 5 C -1.199211 -3.907031 0.628758 0
M  V30 6 N -0.748030 -3.433545 -0.633415 0
M  V30 7 C -0.367719 -2.041191 -0.769291 0
M  V30 8 C -0.381801 -1.293529 0.379495 0
M  V30 9 C -0.056416 0.042068 0.346307 0
M  V30 10 C 0.275005 0.554277 -0.903701 0
M  V30 11 C 0.595096 1.967886 -0.885226 0
M  V30 12 O 0.595833 3.086728 -1.515261 0
M  V30 13 N 1.184774 2.525014 0.316171 0
M  V30 14 C 1.501842 3.968588 0.396245 0
M  V30 15 C 2.110952 4.272929 1.741807 0
M  V30 16 C 2.409731 5.713856 1.987701 0
M  V30 17 N 2.995801 5.795288 3.340341 0
M  V30 18 C 0.297170 -0.176846 -2.074909 0
M  V30 19 C -0.029650 -1.512255 -2.026343 0
M  V30 20 O -0.077717 -2.420604 -3.034203 0
M  V30 21 C 0.218851 -2.119422 -4.366874 0
M  V30 22 N -2.426225 -3.375936 0.754619 0
M  V30 23 C -3.249295 -3.522908 1.797391 0
M  V30 24 C -2.793346 -4.289427 2.833762 0
M  V30 25 Cl -3.776837 -4.558868 4.267488 0
M  V30 26 H -0.120659 -7.481068 4.140505 0
M  V30 27 H 0.920362 -6.205678 3.298964 0
M  V30 28 H 0.605907 -6.095759 5.036575 0
M  V30 29 H -1.673981 -5.796931 4.631373 0
M  V30 30 H -0.684667 -4.079355 -1.478610 0
M  V30 31 H -0.646065 -1.728386 1.350058 0
M  V30 32 H -0.077802 0.613080 1.261333 0
M  V30 33 H 1.424367 1.946651 1.193801 0
M  V30 34 H 0.530372 4.495024 0.263839 0
M  V30 35 H 2.145591 4.216994 -0.461314 0
M  V30 36 H 3.055270 3.701924 1.906471 0
M  V30 37 H 1.418961 3.917920 2.530429 0
M  V30 38 H 1.480963 6.328412 2.013708 0
M  V30 39 H 3.162620 6.071698 1.274275 0
M  V30 40 H 3.847952 6.381792 3.330878 0
M  V30 41 H 2.274440 6.106471 4.044443 0
M  V30 42 H 0.558864 0.224725 -3.035064 0
M  V30 43 H -0.142439 -2.963093 -5.027103 0
M  V30 44 H -0.131554 -1.130674 -4.711565 0
M  V30 45 H 1.334026 -2.167505 -4.493214 0
M  V30 46 H -4.258781 -3.104225 1.945217 0
M  V30 END ATOM
M  V30 BEGIN BOND
M  V30 1 1 1 2
M  V30 2 1 2 3
M  V30 3 2 3 4
M  V30 4 1 4 5
M  V30 5 1 5 6
M  V30 6 1 6 7
M  V30 7 2 7 8
M  V30 8 1 8 9
M  V30 9 2 9 10
M  V30 10 1 10 11
M  V30 11 2 11 12
M  V30 12 1 11 13
M  V30 13 1 13 14
M  V30 14 1 14 15
M  V30 15 1 15 16
M  V30 16 1 16 17
M  V30 17 1 10 18
M  V30 18 2 18 19
M  V30 19 1 19 20
M  V30 20 1 20 21
M  V30 21 2 5 22
M  V30 22 1 22 23
M  V30 23 2 23 24
M  V30 24 1 24 25
M  V30 25 1 24 3
M  V30 26 1 19 7
M  V30 27 1 1 26
M  V30 28 1 1 27
M  V30 29 1 1 28
M  V30 30 1 2 29
M  V30 31 1 6 30
M  V30 32 1 8 31
M  V30 33 1 9 32
M  V30 34 1 13 33
M  V30 35 1 14 34
M  V30 36 1 14 35
M  V30 37 1 15 36
M  V30 38 1 15 37
M  V30 39 1 16 38
M  V30 40 1 16 39
M  V30 41 1 17 40
M  V30 42 1 17 41
M  V30 43 1 18 42
M  V30 44 1 21 43
M  V30 45 1 21 44
M  V30 46 1 21 45
M  V30 47 1 23 46
M  V30 END BOND
M  V30 END CTAB
M  END
>  <Dataset>  (699) 
ChEMBL_Kinases

>  <Ligand_Instance>  (699) 
nan

>  <PDB_ID>  (699) 
nan

>  <Standardized_SMILES>  (699) 
CNc1nc(Nc2ccc(C(=O)NCCCN)cc2OC)ncc1Cl

>  <Name>  (699) 
nan

>  <Pocket>  (699) 
nan

>  <ATP_Site>  (699) 
nan

>  <Peripheral>  (699) 
nan

>  <Num_H_Atoms_ProtBoundConf>  (699) 
nan

>  <Num_Resolved_Atoms>  (699) 
nan

>  <Num_Not_Resolved_Atoms>  (699) 
nan

$$$$
CHEMBL3641793
     RDKit          3D

  0  0  0  0  0  0  0  0  0  0999 V3000
M  V30 BEGIN CTAB
M  V30 COUNTS 53 56 0 0 0
M  V30 BEGIN ATOM
M  V30 1 C 1.837363 3.100356 -1.531921 0
M  V30 2 N 1.874553 3.536921 -0.114766 0
M  V30 3 C 1.993333 2.466532 0.839205 0
M  V30 4 N 2.055263 1.179791 0.549994 0
M  V30 5 C 2.156605 0.157084 1.410559 0
M  V30 6 N 2.151040 -1.059245 0.609460 0
M  V30 7 C 0.875798 -1.382845 -0.011321 0
M  V30 8 C -0.185363 -0.538440 0.227482 0
M  V30 9 C -1.373664 -0.812928 -0.376267 0
M  V30 10 C -1.544090 -1.870207 -1.192617 0
M  V30 11 C -2.826502 -2.082354 -1.812198 0
M  V30 12 O -3.804672 -1.529465 -1.229731 0
M  V30 13 N -3.486868 -2.706326 -2.888774 0
M  V30 14 C -4.919553 -2.540218 -3.003395 0
M  V30 15 C -5.295857 -2.189257 -4.432072 0
M  V30 16 O -4.181014 -1.816638 -5.196955 0
M  V30 17 C -3.295457 -2.892700 -5.324762 0
M  V30 18 C -3.024180 -3.519034 -3.970633 0
M  V30 19 C -0.450327 -2.708950 -1.413798 0
M  V30 20 C 0.807816 -2.522967 -0.846269 0
M  V30 21 O 1.948711 -3.240173 -0.966180 0
M  V30 22 C 2.167357 -4.401821 -1.725660 0
M  V30 23 N 2.205295 0.436770 2.721617 0
M  V30 24 C 2.148164 1.701455 3.087574 0
M  V30 25 C 2.041125 2.764664 2.213062 0
M  V30 26 C 1.947561 4.207427 2.504866 0
M  V30 27 C 0.649356 4.875500 2.690871 0
M  V30 28 C 1.454990 4.540646 3.915737 0
M  V30 29 H 0.874251 2.619896 -1.776536 0
M  V30 30 H 2.699092 2.498465 -1.814402 0
M  V30 31 H 1.825282 4.069805 -2.115797 0
M  V30 32 H 1.820781 4.535567 0.162898 0
M  V30 33 H 2.970382 -1.667262 0.473607 0
M  V30 34 H -0.123162 0.320409 0.868442 0
M  V30 35 H -2.208406 -0.130246 -0.177067 0
M  V30 36 H -5.440211 -3.467857 -2.717124 0
M  V30 37 H -5.288464 -1.764494 -2.301759 0
M  V30 38 H -5.761121 -3.038317 -4.955800 0
M  V30 39 H -5.985673 -1.335288 -4.429501 0
M  V30 40 H -2.328110 -2.473218 -5.659728 0
M  V30 41 H -3.634612 -3.619880 -6.082150 0
M  V30 42 H -3.605422 -4.468231 -3.968753 0
M  V30 43 H -1.956067 -3.816373 -3.862312 0
M  V30 44 H -0.498063 -3.575687 -2.054093 0
M  V30 45 H 1.973645 -4.139385 -2.805676 0
M  V30 46 H 1.507963 -5.245007 -1.487681 0
M  V30 47 H 3.238036 -4.702521 -1.682310 0
M  V30 48 H 2.182898 1.960902 4.126454 0
M  V30 49 H 2.780555 4.815881 2.127123 0
M  V30 50 H -0.313517 4.378878 2.644664 0
M  V30 51 H 0.598633 5.950464 2.434494 0
M  V30 52 H 1.156003 3.740706 4.594357 0
M  V30 53 H 1.931298 5.394670 4.455951 0
M  V30 END ATOM
M  V30 BEGIN BOND
M  V30 1 1 1 2
M  V30 2 1 2 3
M  V30 3 2 3 4
M  V30 4 1 4 5
M  V30 5 1 5 6
M  V30 6 1 6 7
M  V30 7 2 7 8
M  V30 8 1 8 9
M  V30 9 2 9 10
M  V30 10 1 10 11
M  V30 11 2 11 12
M  V30 12 1 11 13
M  V30 13 1 13 14
M  V30 14 1 14 15
M  V30 15 1 15 16
M  V30 16 1 16 17
M  V30 17 1 17 18
M  V30 18 1 10 19
M  V30 19 2 19 20
M  V30 20 1 20 21
M  V30 21 1 21 22
M  V30 22 2 5 23
M  V30 23 1 23 24
M  V30 24 2 24 25
M  V30 25 1 25 26
M  V30 26 1 26 27
M  V30 27 1 27 28
M  V30 28 1 25 3
M  V30 29 1 28 26
M  V30 30 1 20 7
M  V30 31 1 18 13
M  V30 32 1 1 29
M  V30 33 1 1 30
M  V30 34 1 1 31
M  V30 35 1 2 32
M  V30 36 1 6 33
M  V30 37 1 8 34
M  V30 38 1 9 35
M  V30 39 1 14 36
M  V30 40 1 14 37
M  V30 41 1 15 38
M  V30 42 1 15 39
M  V30 43 1 17 40
M  V30 44 1 17 41
M  V30 45 1 18 42
M  V30 46 1 18 43
M  V30 47 1 19 44
M  V30 48 1 22 45
M  V30 49 1 22 46
M  V30 50 1 22 47
M  V30 51 1 24 48
M  V30 52 1 26 49
M  V30 53 1 27 50
M  V30 54 1 27 51
M  V30 55 1 28 52
M  V30 56 1 28 53
M  V30 END BOND
M  V30 END CTAB
M  END
>  <Dataset>  (700) 
ChEMBL_Kinases

>  <Ligand_Instance>  (700) 
nan

>  <PDB_ID>  (700) 
nan

>  <Standardized_SMILES>  (700) 
CNc1nc(Nc2ccc(C(=O)N3CCOCC3)cc2OC)ncc1C1CC1

>  <Name>  (700) 
nan

>  <Pocket>  (700) 
nan

>  <ATP_Site>  (700) 
nan

>  <Peripheral>  (700) 
nan

>  <Num_H_Atoms_ProtBoundConf>  (700) 
nan

>  <Num_Resolved_Atoms>  (700) 
nan

>  <Num_Not_Resolved_Atoms>  (700) 
nan

$$$$
CHEMBL3641794
     RDKit          3D

  0  0  0  0  0  0  0  0  0  0999 V3000
M  V30 BEGIN CTAB
M  V30 COUNTS 55 57 0 0 0
M  V30 BEGIN ATOM
M  V30 1 C 2.227416 -3.467384 4.120780 0
M  V30 2 O 1.076367 -2.709517 3.804753 0
M  V30 3 C 1.106625 -1.607317 2.973845 0
M  V30 4 C 2.282747 -1.175198 2.396591 0
M  V30 5 C 2.280550 -0.066128 1.568238 0
M  V30 6 C 3.506659 0.379937 0.968859 0
M  V30 7 O 4.509080 0.373988 1.753814 0
M  V30 8 N 3.827048 0.835043 -0.352953 0
M  V30 9 C 5.216368 1.199612 -0.549819 0
M  V30 10 C 5.677738 0.471888 -1.810279 0
M  V30 11 O 4.852888 0.813599 -2.879528 0
M  V30 12 C 3.554407 0.399430 -2.704771 0
M  V30 13 C 2.926766 0.959775 -1.466617 0
M  V30 14 C 1.104678 0.627007 1.304530 0
M  V30 15 C -0.030618 0.140380 1.913300 0
M  V30 16 C -0.099023 -0.970144 2.758030 0
M  V30 17 N -1.344074 -1.385187 3.342733 0
M  V30 18 C -2.509158 -0.618107 2.998721 0
M  V30 19 N -2.970943 0.483392 3.591320 0
M  V30 20 C -4.083812 1.070650 3.129399 0
M  V30 21 C -4.707832 0.504655 2.052763 0
M  V30 22 Cl -6.171295 1.315053 1.478756 0
M  V30 23 C -4.258542 -0.631293 1.417830 0
M  V30 24 N -4.958591 -1.173253 0.329625 0
M  V30 25 C -4.844494 -2.278849 -0.577087 0
M  V30 26 C -3.775128 -2.146793 -1.615931 0
M  V30 27 C -2.425510 -2.021560 -0.966051 0
M  V30 28 C -4.055179 -0.935913 -2.498891 0
M  V30 29 N -3.141828 -1.146543 1.948486 0
M  V30 30 H 3.029998 -2.842716 4.555494 0
M  V30 31 H 2.012410 -4.258714 4.862618 0
M  V30 32 H 2.555555 -3.948503 3.177867 0
M  V30 33 H 3.202236 -1.687238 2.580833 0
M  V30 34 H 5.207437 2.289071 -0.778472 0
M  V30 35 H 5.879847 0.937886 0.277347 0
M  V30 36 H 6.685223 0.854325 -2.059492 0
M  V30 37 H 5.702339 -0.622130 -1.614183 0
M  V30 38 H 2.969592 0.823881 -3.565362 0
M  V30 39 H 3.404627 -0.703634 -2.799017 0
M  V30 40 H 2.766712 2.056923 -1.660327 0
M  V30 41 H 1.933516 0.508601 -1.306352 0
M  V30 42 H 1.028554 1.496777 0.673806 0
M  V30 43 H -0.961466 0.658306 1.726151 0
M  V30 44 H -1.269892 -2.217054 3.966929 0
M  V30 45 H -4.473252 1.953480 3.586631 0
M  V30 46 H -5.839425 -0.629657 0.063727 0
M  V30 47 H -5.815737 -2.522056 -1.088644 0
M  V30 48 H -4.632106 -3.239946 -0.007056 0
M  V30 49 H -3.776316 -3.076335 -2.259099 0
M  V30 50 H -2.208696 -0.996370 -0.619024 0
M  V30 51 H -2.294009 -2.725282 -0.122418 0
M  V30 52 H -1.606552 -2.300490 -1.703090 0
M  V30 53 H -4.743448 -0.217784 -2.007374 0
M  V30 54 H -4.517432 -1.293146 -3.440930 0
M  V30 55 H -3.067943 -0.480352 -2.763767 0
M  V30 END ATOM
M  V30 BEGIN BOND
M  V30 1 1 1 2
M  V30 2 1 2 3
M  V30 3 2 3 4
M  V30 4 1 4 5
M  V30 5 1 5 6
M  V30 6 2 6 7
M  V30 7 1 6 8
M  V30 8 1 8 9
M  V30 9 1 9 10
M  V30 10 1 10 11
M  V30 11 1 11 12
M  V30 12 1 12 13
M  V30 13 2 5 14
M  V30 14 1 14 15
M  V30 15 2 15 16
M  V30 16 1 16 17
M  V30 17 1 17 18
M  V30 18 2 18 19
M  V30 19 1 19 20
M  V30 20 2 20 21
M  V30 21 1 21 22
M  V30 22 1 21 23
M  V30 23 1 23 24
M  V30 24 1 24 25
M  V30 25 1 25 26
M  V30 26 1 26 27
M  V30 27 1 26 28
M  V30 28 2 23 29
M  V30 29 1 16 3
M  V30 30 1 29 18
M  V30 31 1 13 8
M  V30 32 1 1 30
M  V30 33 1 1 31
M  V30 34 1 1 32
M  V30 35 1 4 33
M  V30 36 1 9 34
M  V30 37 1 9 35
M  V30 38 1 10 36
M  V30 39 1 10 37
M  V30 40 1 12 38
M  V30 41 1 12 39
M  V30 42 1 13 40
M  V30 43 1 13 41
M  V30 44 1 14 42
M  V30 45 1 15 43
M  V30 46 1 17 44
M  V30 47 1 20 45
M  V30 48 1 24 46
M  V30 49 1 25 47
M  V30 50 1 25 48
M  V30 51 1 26 49
M  V30 52 1 27 50
M  V30 53 1 27 51
M  V30 54 1 27 52
M  V30 55 1 28 53
M  V30 56 1 28 54
M  V30 57 1 28 55
M  V30 END BOND
M  V30 END CTAB
M  END
>  <Dataset>  (701) 
ChEMBL_Kinases

>  <Ligand_Instance>  (701) 
nan

>  <PDB_ID>  (701) 
nan

>  <Standardized_SMILES>  (701) 
COc1cc(C(=O)N2CCOCC2)ccc1Nc1ncc(Cl)c(NCC(C)C)n1

>  <Name>  (701) 
nan

>  <Pocket>  (701) 
nan

>  <ATP_Site>  (701) 
nan

>  <Peripheral>  (701) 
nan

>  <Num_H_Atoms_ProtBoundConf>  (701) 
nan

>  <Num_Resolved_Atoms>  (701) 
nan

>  <Num_Not_Resolved_Atoms>  (701) 
nan

$$$$
CHEMBL3641795
     RDKit          3D

  0  0  0  0  0  0  0  0  0  0999 V3000
M  V30 BEGIN CTAB
M  V30 COUNTS 56 59 0 0 0
M  V30 BEGIN ATOM
M  V30 1 C 1.282649 -1.656360 5.313165 0
M  V30 2 N 1.472520 -3.041168 5.686185 0
M  V30 3 C 1.512662 -4.030815 4.662786 0
M  V30 4 N 1.382263 -3.738146 3.385719 0
M  V30 5 C 1.404205 -4.595355 2.369513 0
M  V30 6 N 1.263573 -4.305360 0.980381 0
M  V30 7 C 1.110765 -3.051889 0.331335 0
M  V30 8 C 1.145101 -1.869614 1.025601 0
M  V30 9 C 1.004069 -0.689578 0.336692 0
M  V30 10 C 0.826893 -0.565981 -1.023470 0
M  V30 11 C 0.649511 0.656339 -1.790909 0
M  V30 12 O 0.399720 0.485007 -3.043426 0
M  V30 13 N 0.710082 2.015766 -1.343198 0
M  V30 14 C 0.967163 2.795610 -0.139774 0
M  V30 15 C -0.419039 3.140938 0.394763 0
M  V30 16 N -1.414354 2.951226 -0.643087 0
M  V30 17 C -2.610327 2.217774 -0.522057 0
M  V30 18 O -2.785298 1.678779 0.583300 0
M  V30 19 C -3.873361 1.474256 -0.472167 0
M  V30 20 C -4.348041 0.885950 -1.747789 0
M  V30 21 C -5.071395 2.030177 -1.153605 0
M  V30 22 C -0.967546 3.619438 -1.840312 0
M  V30 23 C 0.334162 2.999969 -2.391053 0
M  V30 24 C 0.802451 -1.787451 -1.660217 0
M  V30 25 C 0.934375 -3.001857 -1.049494 0
M  V30 26 O 0.898403 -4.180382 -1.752772 0
M  V30 27 C 0.720896 -4.208377 -3.145640 0
M  V30 28 N 1.579560 -5.853531 2.749163 0
M  V30 29 C 1.724067 -6.282328 4.000246 0
M  V30 30 C 1.689262 -5.338731 4.992179 0
M  V30 31 Cl 1.873067 -5.851900 6.649642 0
M  V30 32 H 1.065858 -1.057557 6.227690 0
M  V30 33 H 0.371770 -1.554597 4.686164 0
M  V30 34 H 2.150454 -1.232326 4.786043 0
M  V30 35 H 1.575501 -3.318296 6.691803 0
M  V30 36 H 1.279361 -5.148685 0.337239 0
M  V30 37 H 1.278832 -1.820285 2.093330 0
M  V30 38 H 1.025771 0.200257 0.916963 0
M  V30 39 H 1.430592 3.751713 -0.454270 0
M  V30 40 H 1.640965 2.359458 0.579901 0
M  V30 41 H -0.462723 4.185067 0.750114 0
M  V30 42 H -0.597848 2.481612 1.265210 0
M  V30 43 H -4.060984 0.966295 0.503093 0
M  V30 44 H -4.795974 -0.122427 -1.701814 0
M  V30 45 H -3.746935 1.089728 -2.677421 0
M  V30 46 H -6.050709 1.839376 -0.697109 0
M  V30 47 H -4.955052 3.022171 -1.626899 0
M  V30 48 H -1.737876 3.406046 -2.620943 0
M  V30 49 H -0.883355 4.702318 -1.758248 0
M  V30 50 H 0.203158 2.549983 -3.367979 0
M  V30 51 H 1.112069 3.786056 -2.445089 0
M  V30 52 H 0.675471 -1.808820 -2.731906 0
M  V30 53 H -0.075315 -3.510703 -3.445431 0
M  V30 54 H 1.690707 -3.906530 -3.605555 0
M  V30 55 H 0.430702 -5.231687 -3.491657 0
M  V30 56 H 1.861006 -7.336441 4.167918 0
M  V30 END ATOM
M  V30 BEGIN BOND
M  V30 1 1 1 2
M  V30 2 1 2 3
M  V30 3 2 3 4
M  V30 4 1 4 5
M  V30 5 1 5 6
M  V30 6 1 6 7
M  V30 7 2 7 8
M  V30 8 1 8 9
M  V30 9 2 9 10
M  V30 10 1 10 11
M  V30 11 2 11 12
M  V30 12 1 11 13
M  V30 13 1 13 14
M  V30 14 1 14 15
M  V30 15 1 15 16
M  V30 16 1 16 17
M  V30 17 2 17 18
M  V30 18 1 17 19
M  V30 19 1 19 20
M  V30 20 1 20 21
M  V30 21 1 16 22
M  V30 22 1 22 23
M  V30 23 1 10 24
M  V30 24 2 24 25
M  V30 25 1 25 26
M  V30 26 1 26 27
M  V30 27 2 5 28
M  V30 28 1 28 29
M  V30 29 2 29 30
M  V30 30 1 30 31
M  V30 31 1 30 3
M  V30 32 1 25 7
M  V30 33 1 23 13
M  V30 34 1 21 19
M  V30 35 1 1 32
M  V30 36 1 1 33
M  V30 37 1 1 34
M  V30 38 1 2 35
M  V30 39 1 6 36
M  V30 40 1 8 37
M  V30 41 1 9 38
M  V30 42 1 14 39
M  V30 43 1 14 40
M  V30 44 1 15 41
M  V30 45 1 15 42
M  V30 46 1 19 43
M  V30 47 1 20 44
M  V30 48 1 20 45
M  V30 49 1 21 46
M  V30 50 1 21 47
M  V30 51 1 22 48
M  V30 52 1 22 49
M  V30 53 1 23 50
M  V30 54 1 23 51
M  V30 55 1 24 52
M  V30 56 1 27 53
M  V30 57 1 27 54
M  V30 58 1 27 55
M  V30 59 1 29 56
M  V30 END BOND
M  V30 END CTAB
M  END
>  <Dataset>  (702) 
ChEMBL_Kinases

>  <Ligand_Instance>  (702) 
nan

>  <PDB_ID>  (702) 
nan

>  <Standardized_SMILES>  (702) 
CNc1nc(Nc2ccc(C(=O)N3CCN(C(=O)C4CC4)CC3)cc2OC)ncc1Cl

>  <Name>  (702) 
nan

>  <Pocket>  (702) 
nan

>  <ATP_Site>  (702) 
nan

>  <Peripheral>  (702) 
nan

>  <Num_H_Atoms_ProtBoundConf>  (702) 
nan

>  <Num_Resolved_Atoms>  (702) 
nan

>  <Num_Not_Resolved_Atoms>  (702) 
nan

$$$$
CHEMBL3641796
     RDKit          3D

  0  0  0  0  0  0  0  0  0  0999 V3000
M  V30 BEGIN CTAB
M  V30 COUNTS 58 60 0 0 0
M  V30 BEGIN ATOM
M  V30 1 C 0.769617 -3.468850 5.109327 0
M  V30 2 N 2.163978 -3.669989 5.528509 0
M  V30 3 C 3.125067 -3.732061 4.465478 0
M  V30 4 N 2.805084 -3.619495 3.170430 0
M  V30 5 C 3.676003 -3.674331 2.151569 0
M  V30 6 N 2.935443 -3.518554 0.926696 0
M  V30 7 C 2.433236 -2.353872 0.302849 0
M  V30 8 C 2.622777 -1.132342 0.918567 0
M  V30 9 C 2.123809 0.018976 0.350787 0
M  V30 10 C 1.430091 -0.042874 -0.838544 0
M  V30 11 C 0.809330 1.054456 -1.599500 0
M  V30 12 O 1.220005 1.258082 -2.782806 0
M  V30 13 N -0.211949 1.808480 -0.944557 0
M  V30 14 C -0.781215 1.699455 0.389257 0
M  V30 15 C -2.210681 1.172132 0.357490 0
M  V30 16 C -2.708248 1.464745 -1.052363 0
M  V30 17 C -4.193714 1.199717 -1.142402 0
M  V30 18 C -4.916841 2.081872 -0.167256 0
M  V30 19 C -4.688268 1.378865 -2.537813 0
M  V30 20 O -4.342624 -0.166525 -0.807636 0
M  V30 21 C -2.309058 2.869875 -1.359549 0
M  V30 22 C -0.833414 2.887849 -1.685720 0
M  V30 23 C 1.258543 -1.282264 -1.429997 0
M  V30 24 C 1.744162 -2.455607 -0.891252 0
M  V30 25 O 1.600617 -3.719611 -1.441685 0
M  V30 26 C 0.940643 -4.010512 -2.635797 0
M  V30 27 N 4.997447 -3.860878 2.453597 0
M  V30 28 C 5.327738 -3.973648 3.739500 0
M  V30 29 C 4.449095 -3.918622 4.784241 0
M  V30 30 Br 5.079277 -4.097189 6.567323 0
M  V30 31 H 0.113337 -3.879116 5.895915 0
M  V30 32 H 0.570532 -4.028118 4.158303 0
M  V30 33 H 0.566020 -2.392128 4.964472 0
M  V30 34 H 2.470677 -3.765284 6.516148 0
M  V30 35 H 2.811372 -4.481409 0.528676 0
M  V30 36 H 3.154972 -1.035708 1.841944 0
M  V30 37 H 2.216451 1.026238 0.742418 0
M  V30 38 H -0.749900 2.695836 0.908898 0
M  V30 39 H -0.156601 1.037513 0.987460 0
M  V30 40 H -2.806496 1.759276 1.093487 0
M  V30 41 H -2.262777 0.106268 0.596435 0
M  V30 42 H -2.192222 0.757216 -1.724986 0
M  V30 43 H -5.996463 2.163592 -0.480897 0
M  V30 44 H -4.418653 3.073859 -0.185938 0
M  V30 45 H -4.851276 1.662138 0.867775 0
M  V30 46 H -5.463874 0.614108 -2.754333 0
M  V30 47 H -3.860774 1.271569 -3.272004 0
M  V30 48 H -5.220092 2.355700 -2.687571 0
M  V30 49 H -3.506508 -0.662955 -0.832642 0
M  V30 50 H -2.442020 3.489692 -0.437752 0
M  V30 51 H -2.905357 3.341490 -2.163099 0
M  V30 52 H -0.738859 2.710986 -2.796096 0
M  V30 53 H -0.398721 3.868091 -1.400319 0
M  V30 54 H 0.726564 -1.435284 -2.368392 0
M  V30 55 H 0.065174 -3.355441 -2.777857 0
M  V30 56 H 1.682441 -3.927821 -3.478673 0
M  V30 57 H 0.621337 -5.087445 -2.603700 0
M  V30 58 H 6.400374 -4.117998 3.850848 0
M  V30 END ATOM
M  V30 BEGIN BOND
M  V30 1 1 1 2
M  V30 2 1 2 3
M  V30 3 2 3 4
M  V30 4 1 4 5
M  V30 5 1 5 6
M  V30 6 1 6 7
M  V30 7 2 7 8
M  V30 8 1 8 9
M  V30 9 2 9 10
M  V30 10 1 10 11
M  V30 11 2 11 12
M  V30 12 1 11 13
M  V30 13 1 13 14
M  V30 14 1 14 15
M  V30 15 1 15 16
M  V30 16 1 16 17
M  V30 17 1 17 18
M  V30 18 1 17 19
M  V30 19 1 17 20
M  V30 20 1 16 21
M  V30 21 1 21 22
M  V30 22 1 10 23
M  V30 23 2 23 24
M  V30 24 1 24 25
M  V30 25 1 25 26
M  V30 26 2 5 27
M  V30 27 1 27 28
M  V30 28 2 28 29
M  V30 29 1 29 30
M  V30 30 1 29 3
M  V30 31 1 24 7
M  V30 32 1 22 13
M  V30 33 1 1 31
M  V30 34 1 1 32
M  V30 35 1 1 33
M  V30 36 1 2 34
M  V30 37 1 6 35
M  V30 38 1 8 36
M  V30 39 1 9 37
M  V30 40 1 14 38
M  V30 41 1 14 39
M  V30 42 1 15 40
M  V30 43 1 15 41
M  V30 44 1 16 42
M  V30 45 1 18 43
M  V30 46 1 18 44
M  V30 47 1 18 45
M  V30 48 1 19 46
M  V30 49 1 19 47
M  V30 50 1 19 48
M  V30 51 1 20 49
M  V30 52 1 21 50
M  V30 53 1 21 51
M  V30 54 1 22 52
M  V30 55 1 22 53
M  V30 56 1 23 54
M  V30 57 1 26 55
M  V30 58 1 26 56
M  V30 59 1 26 57
M  V30 60 1 28 58
M  V30 END BOND
M  V30 END CTAB
M  END
>  <Dataset>  (703) 
ChEMBL_Kinases

>  <Ligand_Instance>  (703) 
nan

>  <PDB_ID>  (703) 
nan

>  <Standardized_SMILES>  (703) 
CNc1nc(Nc2ccc(C(=O)N3CCC(C(C)(C)O)CC3)cc2OC)ncc1Br

>  <Name>  (703) 
nan

>  <Pocket>  (703) 
nan

>  <ATP_Site>  (703) 
nan

>  <Peripheral>  (703) 
nan

>  <Num_H_Atoms_ProtBoundConf>  (703) 
nan

>  <Num_Resolved_Atoms>  (703) 
nan

>  <Num_Not_Resolved_Atoms>  (703) 
nan

$$$$
CHEMBL3641788
     RDKit          3D

  0  0  0  0  0  0  0  0  0  0999 V3000
M  V30 BEGIN CTAB
M  V30 COUNTS 44 45 0 0 0
M  V30 BEGIN ATOM
M  V30 1 C -4.949678 -1.247900 0.820667 0
M  V30 2 N -3.703464 -1.922293 0.519095 0
M  V30 3 C -3.270954 -2.390226 1.759798 0
M  V30 4 N -2.102457 -2.739282 1.028756 0
M  V30 5 C -0.997621 -3.387506 1.711859 0
M  V30 6 N 0.141099 -3.640791 0.785782 0
M  V30 7 C 0.738969 -2.399761 0.340185 0
M  V30 8 C 0.391231 -1.178492 1.004023 0
M  V30 9 C 0.846363 0.080098 0.741762 0
M  V30 10 C 1.732371 0.081263 -0.303348 0
M  V30 11 C 2.321892 1.390401 -0.655997 0
M  V30 12 O 2.795421 1.883545 -1.759433 0
M  V30 13 N 2.516796 2.474659 0.195761 0
M  V30 14 C 2.871221 3.758584 0.712893 0
M  V30 15 C 3.924864 3.718155 1.801983 0
M  V30 16 C 1.637745 4.432666 1.293280 0
M  V30 17 C 2.175364 -0.946987 -1.052120 0
M  V30 18 C 1.684839 -2.164290 -0.724376 0
M  V30 19 O 1.876277 -3.417307 -1.212334 0
M  V30 20 C 2.656479 -3.895890 -2.239225 0
M  V30 21 N -0.906365 -3.727821 3.032360 0
M  V30 22 C -2.024319 -3.398029 3.767503 0
M  V30 23 C -2.851539 -2.832789 2.900367 0
M  V30 24 Cl -4.434700 -2.224349 3.582761 0
M  V30 25 H -5.645324 -1.939827 1.346871 0
M  V30 26 H -4.803316 -0.356243 1.480380 0
M  V30 27 H -5.471217 -0.833427 -0.075623 0
M  V30 28 H -3.618378 -1.807124 -0.494609 0
M  V30 29 H 0.557924 -4.508872 0.437069 0
M  V30 30 H -0.336512 -1.190599 1.839958 0
M  V30 31 H 0.514044 0.940308 1.297300 0
M  V30 32 H 2.170151 2.128768 1.162742 0
M  V30 33 H 3.255663 4.410622 -0.111307 0
M  V30 34 H 3.494576 3.956978 2.790471 0
M  V30 35 H 4.748912 4.446342 1.652178 0
M  V30 36 H 4.333996 2.653607 1.905927 0
M  V30 37 H 1.119077 5.052796 0.521950 0
M  V30 38 H 1.848527 4.922449 2.244098 0
M  V30 39 H 0.906698 3.577089 1.526437 0
M  V30 40 H 2.891674 -0.924031 -1.845799 0
M  V30 41 H 2.879866 -3.056831 -2.964458 0
M  V30 42 H 2.175668 -4.693676 -2.854920 0
M  V30 43 H 3.632307 -4.278065 -1.820653 0
M  V30 44 H -2.326283 -3.476743 4.787574 0
M  V30 END ATOM
M  V30 BEGIN BOND
M  V30 1 1 1 2
M  V30 2 1 2 3
M  V30 3 2 3 4
M  V30 4 1 4 5
M  V30 5 1 5 6
M  V30 6 1 6 7
M  V30 7 2 7 8
M  V30 8 1 8 9
M  V30 9 2 9 10
M  V30 10 1 10 11
M  V30 11 2 11 12
M  V30 12 1 11 13
M  V30 13 1 13 14
M  V30 14 1 14 15
M  V30 15 1 14 16
M  V30 16 1 10 17
M  V30 17 2 17 18
M  V30 18 1 18 19
M  V30 19 1 19 20
M  V30 20 2 5 21
M  V30 21 1 21 22
M  V30 22 2 22 23
M  V30 23 1 23 24
M  V30 24 1 23 3
M  V30 25 1 18 7
M  V30 26 1 1 25
M  V30 27 1 1 26
M  V30 28 1 1 27
M  V30 29 1 2 28
M  V30 30 1 6 29
M  V30 31 1 8 30
M  V30 32 1 9 31
M  V30 33 1 13 32
M  V30 34 1 14 33
M  V30 35 1 15 34
M  V30 36 1 15 35
M  V30 37 1 15 36
M  V30 38 1 16 37
M  V30 39 1 16 38
M  V30 40 1 16 39
M  V30 41 1 17 40
M  V30 42 1 20 41
M  V30 43 1 20 42
M  V30 44 1 20 43
M  V30 45 1 22 44
M  V30 END BOND
M  V30 END CTAB
M  END
>  <Dataset>  (704) 
ChEMBL_Kinases

>  <Ligand_Instance>  (704) 
nan

>  <PDB_ID>  (704) 
nan

>  <Standardized_SMILES>  (704) 
CNc1nc(Nc2ccc(C(=O)NC(C)C)cc2OC)ncc1Cl

>  <Name>  (704) 
nan

>  <Pocket>  (704) 
nan

>  <ATP_Site>  (704) 
nan

>  <Peripheral>  (704) 
nan

>  <Num_H_Atoms_ProtBoundConf>  (704) 
nan

>  <Num_Resolved_Atoms>  (704) 
nan

>  <Num_Not_Resolved_Atoms>  (704) 
nan

$$$$
CHEMBL3355115
     RDKit          3D

  0  0  0  0  0  0  0  0  0  0999 V3000
M  V30 BEGIN CTAB
M  V30 COUNTS 50 53 0 0 0
M  V30 BEGIN ATOM
M  V30 1 C 1.210932 -3.475627 1.470789 0
M  V30 2 C 2.511659 -2.936678 1.168397 0 CFG=2
M  V30 3 C 3.595509 -3.398486 2.151481 0
M  V30 4 O 3.138692 -4.007128 3.180200 0
M  V30 5 N 4.996089 -3.210112 2.011055 0
M  V30 6 N 5.318984 -2.090545 1.237542 0
M  V30 7 C 4.297842 -1.403046 0.770251 0
M  V30 8 C 4.801774 -0.226642 -0.040248 0
M  V30 9 O 4.095653 0.950881 0.370079 0
M  V30 10 C 2.689635 0.892358 0.487368 0
M  V30 11 C 1.856410 1.974734 0.360364 0
M  V30 12 C 0.489178 1.879301 0.480044 0
M  V30 13 C -0.331337 3.103793 0.328186 0
M  V30 14 F -1.033812 3.383190 1.481182 0
M  V30 15 F -1.284746 2.963588 -0.662220 0
M  V30 16 F 0.490981 4.180260 0.103977 0
M  V30 17 C -0.038377 0.630584 0.738535 0
M  V30 18 N -1.466224 0.433608 0.880299 0
M  V30 19 C -2.426354 0.880311 1.870652 0
M  V30 20 C -2.027422 -0.369502 -0.188172 0
M  V30 21 C -1.057250 -0.823016 -1.258712 0
M  V30 22 C -3.267357 0.198752 -0.792905 0
M  V30 23 N -4.053082 -0.952779 -0.456281 0
M  V30 24 C -5.164191 -0.775348 0.426670 0
M  V30 25 C -2.887810 -1.528579 0.217042 0
M  V30 26 C 0.831123 -0.436472 0.860344 0
M  V30 27 C 2.198476 -0.361909 0.744743 0
M  V30 28 N 2.850768 -1.607768 0.914432 0
M  V30 29 H 0.681128 -3.146749 2.395210 0
M  V30 30 H 1.318266 -4.605540 1.732012 0
M  V30 31 H 0.567133 -3.566289 0.571309 0
M  V30 32 H 2.865579 -3.549798 0.252156 0
M  V30 33 H 5.601594 -3.919120 2.494732 0
M  V30 34 H 5.867735 -0.069806 0.037735 0
M  V30 35 H 4.504786 -0.425211 -1.083222 0
M  V30 36 H 2.330267 2.931188 0.157008 0
M  V30 37 H -3.049128 0.009983 2.236277 0
M  V30 38 H -3.083776 1.679515 1.481983 0
M  V30 39 H -1.954239 1.263652 2.798475 0
M  V30 40 H -0.194038 -0.129725 -1.359355 0
M  V30 41 H -0.732766 -1.860944 -1.037893 0
M  V30 42 H -1.565060 -0.834808 -2.244366 0
M  V30 43 H -3.197847 0.370999 -1.907874 0
M  V30 44 H -3.705309 1.096333 -0.354182 0
M  V30 45 H -6.118076 -1.190204 0.061484 0
M  V30 46 H -4.955867 -1.277071 1.411130 0
M  V30 47 H -5.258743 0.318490 0.665436 0
M  V30 48 H -3.000186 -1.753116 1.274983 0
M  V30 49 H -2.672878 -2.499495 -0.325033 0
M  V30 50 H 0.317204 -1.351444 1.056164 0
M  V30 END ATOM
M  V30 BEGIN BOND
M  V30 1 1 1 2
M  V30 2 1 2 3
M  V30 3 2 3 4
M  V30 4 1 3 5
M  V30 5 1 5 6
M  V30 6 2 6 7
M  V30 7 1 7 8
M  V30 8 1 8 9
M  V30 9 1 9 10
M  V30 10 2 10 11
M  V30 11 1 11 12
M  V30 12 1 12 13
M  V30 13 1 13 14
M  V30 14 1 13 15
M  V30 15 1 13 16
M  V30 16 2 12 17
M  V30 17 1 17 18
M  V30 18 1 18 19
M  V30 19 1 18 20
M  V30 20 1 20 21
M  V30 21 1 20 22
M  V30 22 1 22 23
M  V30 23 1 23 24
M  V30 24 1 23 25
M  V30 25 1 17 26
M  V30 26 2 26 27
M  V30 27 1 27 28
M  V30 28 1 28 2
M  V30 29 1 28 7
M  V30 30 1 27 10
M  V30 31 1 25 20
M  V30 32 1 1 29
M  V30 33 1 1 30
M  V30 34 1 1 31
M  V30 35 1 2 32 CFG=3
M  V30 36 1 5 33
M  V30 37 1 8 34
M  V30 38 1 8 35
M  V30 39 1 11 36
M  V30 40 1 19 37
M  V30 41 1 19 38
M  V30 42 1 19 39
M  V30 43 1 21 40
M  V30 44 1 21 41
M  V30 45 1 21 42
M  V30 46 1 22 43
M  V30 47 1 22 44
M  V30 48 1 24 45
M  V30 49 1 24 46
M  V30 50 1 24 47
M  V30 51 1 25 48
M  V30 52 1 25 49
M  V30 53 1 26 50
M  V30 END BOND
M  V30 END CTAB
M  END
>  <Dataset>  (705) 
ChEMBL_Kinases

>  <Ligand_Instance>  (705) 
nan

>  <PDB_ID>  (705) 
nan

>  <Standardized_SMILES>  (705) 
C[C@@H]1C(=O)NN=C2COc3cc(C(F)(F)F)c(N(C)C4(C)CN(C)C4)cc3N21

>  <Name>  (705) 
nan

>  <Pocket>  (705) 
nan

>  <ATP_Site>  (705) 
nan

>  <Peripheral>  (705) 
nan

>  <Num_H_Atoms_ProtBoundConf>  (705) 
nan

>  <Num_Resolved_Atoms>  (705) 
nan

>  <Num_Not_Resolved_Atoms>  (705) 
nan

$$$$
CHEMBL3355114
     RDKit          3D

  0  0  0  0  0  0  0  0  0  0999 V3000
M  V30 BEGIN CTAB
M  V30 COUNTS 47 50 0 0 0
M  V30 BEGIN ATOM
M  V30 1 C 2.196880 -2.345287 1.231113 0
M  V30 2 C 1.905090 -2.220392 -0.245135 0 CFG=2
M  V30 3 C 2.744788 -3.206197 -0.969100 0
M  V30 4 O 2.401131 -4.417050 -0.757249 0
M  V30 5 N 3.831990 -2.890420 -1.823180 0
M  V30 6 N 4.055969 -1.553525 -2.094509 0
M  V30 7 C 3.324149 -0.610553 -1.606270 0
M  V30 8 C 3.674825 0.782012 -1.978537 0
M  V30 9 O 2.716032 1.731950 -1.629090 0
M  V30 10 C 1.665013 1.417347 -0.796398 0
M  V30 11 C 0.885456 2.489353 -0.439720 0
M  V30 12 C -0.210600 2.405978 0.379673 0
M  V30 13 C -1.044558 3.559311 0.764903 0
M  V30 14 F -1.077170 3.788062 2.119703 0
M  V30 15 F -2.355737 3.447402 0.341800 0
M  V30 16 F -0.540817 4.679283 0.112236 0
M  V30 17 C -0.513264 1.124146 0.857337 0
M  V30 18 N -1.632992 0.877912 1.722115 0
M  V30 19 C -2.290082 -0.208897 2.419791 0
M  V30 20 C -3.507324 0.222412 3.232613 0
M  V30 21 C -1.378783 -1.143414 3.152518 0
M  V30 22 N -1.793192 -2.220789 2.321838 0
M  V30 23 C -2.397523 -3.368081 2.911658 0
M  V30 24 C -2.553635 -1.361249 1.502980 0
M  V30 25 C 0.270764 0.038807 0.500185 0
M  V30 26 C 1.360771 0.160168 -0.322258 0
M  V30 27 N 2.225919 -0.885307 -0.746944 0
M  V30 28 H 1.322774 -2.877969 1.694810 0
M  V30 29 H 2.353652 -1.379609 1.732412 0
M  V30 30 H 3.069644 -2.989420 1.461006 0
M  V30 31 H 0.854470 -2.490719 -0.477489 0
M  V30 32 H 4.422779 -3.669285 -2.215999 0
M  V30 33 H 3.748626 0.790977 -3.105200 0
M  V30 34 H 4.676040 1.037472 -1.566552 0
M  V30 35 H 1.069943 3.507289 -0.778303 0
M  V30 36 H -2.154471 1.788715 1.914932 0
M  V30 37 H -4.399351 -0.325324 2.894166 0
M  V30 38 H -3.271573 0.021811 4.297337 0
M  V30 39 H -3.711745 1.301000 3.136067 0
M  V30 40 H -0.314994 -0.815548 3.084799 0
M  V30 41 H -1.695430 -1.232672 4.228154 0
M  V30 42 H -2.301232 -3.455984 4.008089 0
M  V30 43 H -1.923777 -4.262277 2.411369 0
M  V30 44 H -3.466506 -3.405577 2.587691 0
M  V30 45 H -2.163120 -1.172764 0.462164 0
M  V30 46 H -3.645462 -1.625183 1.401713 0
M  V30 47 H 0.156718 -0.982186 0.788359 0
M  V30 END ATOM
M  V30 BEGIN BOND
M  V30 1 1 1 2
M  V30 2 1 2 3
M  V30 3 2 3 4
M  V30 4 1 3 5
M  V30 5 1 5 6
M  V30 6 2 6 7
M  V30 7 1 7 8
M  V30 8 1 8 9
M  V30 9 1 9 10
M  V30 10 2 10 11
M  V30 11 1 11 12
M  V30 12 1 12 13
M  V30 13 1 13 14
M  V30 14 1 13 15
M  V30 15 1 13 16
M  V30 16 2 12 17
M  V30 17 1 17 18
M  V30 18 1 18 19
M  V30 19 1 19 20
M  V30 20 1 19 21
M  V30 21 1 21 22
M  V30 22 1 22 23
M  V30 23 1 22 24
M  V30 24 1 17 25
M  V30 25 2 25 26
M  V30 26 1 26 27
M  V30 27 1 27 2
M  V30 28 1 27 7
M  V30 29 1 26 10
M  V30 30 1 24 19
M  V30 31 1 1 28
M  V30 32 1 1 29
M  V30 33 1 1 30
M  V30 34 1 2 31 CFG=1
M  V30 35 1 5 32
M  V30 36 1 8 33
M  V30 37 1 8 34
M  V30 38 1 11 35
M  V30 39 1 18 36
M  V30 40 1 20 37
M  V30 41 1 20 38
M  V30 42 1 20 39
M  V30 43 1 21 40
M  V30 44 1 21 41
M  V30 45 1 23 42
M  V30 46 1 23 43
M  V30 47 1 23 44
M  V30 48 1 24 45
M  V30 49 1 24 46
M  V30 50 1 25 47
M  V30 END BOND
M  V30 END CTAB
M  END
>  <Dataset>  (706) 
ChEMBL_Kinases

>  <Ligand_Instance>  (706) 
nan

>  <PDB_ID>  (706) 
nan

>  <Standardized_SMILES>  (706) 
C[C@@H]1C(=O)NN=C2COc3cc(C(F)(F)F)c(NC4(C)CN(C)C4)cc3N21

>  <Name>  (706) 
nan

>  <Pocket>  (706) 
nan

>  <ATP_Site>  (706) 
nan

>  <Peripheral>  (706) 
nan

>  <Num_H_Atoms_ProtBoundConf>  (706) 
nan

>  <Num_Resolved_Atoms>  (706) 
nan

>  <Num_Not_Resolved_Atoms>  (706) 
nan

$$$$
CHEMBL3355113
     RDKit          3D

  0  0  0  0  0  0  0  0  0  0999 V3000
M  V30 BEGIN CTAB
M  V30 COUNTS 47 50 0 0 0
M  V30 BEGIN ATOM
M  V30 1 C 1.948709 -3.041108 0.870505 0
M  V30 2 C 1.297900 -2.740860 -0.462412 0 CFG=2
M  V30 3 C 1.734508 -3.804492 -1.402985 0
M  V30 4 O 1.307471 -4.946340 -1.090361 0
M  V30 5 N 2.548129 -3.618728 -2.552408 0
M  V30 6 N 2.897292 -2.310900 -2.894465 0
M  V30 7 C 2.480638 -1.332906 -2.173633 0
M  V30 8 C 2.954675 -0.025545 -2.695879 0
M  V30 9 O 2.331622 1.050280 -2.019597 0
M  V30 10 C 1.546570 0.920628 -0.903997 0
M  V30 11 C 1.077278 2.043933 -0.266100 0
M  V30 12 C 0.282735 1.994887 0.861081 0
M  V30 13 C -0.225274 3.203987 1.537962 0
M  V30 14 F 0.257779 4.303076 0.804956 0
M  V30 15 F -1.593120 3.341287 1.501159 0
M  V30 16 F 0.277965 3.274863 2.800756 0
M  V30 17 C -0.087129 0.791762 1.414808 0
M  V30 18 N -0.872560 0.513372 2.565879 0
M  V30 19 C -0.501090 0.775529 3.954449 0
M  V30 20 C -2.205160 -0.092401 2.518490 0
M  V30 21 C -3.201691 0.808432 3.169194 0
M  V30 22 C -2.610078 -0.711822 1.225441 0
M  V30 23 N -2.572167 -2.060284 1.752803 0
M  V30 24 C -2.236137 -1.515065 3.033259 0
M  V30 25 C 0.403265 -0.337720 0.746876 0
M  V30 26 C 1.189275 -0.296618 -0.368346 0
M  V30 27 N 1.666120 -1.470165 -1.015882 0
M  V30 28 H 2.731815 -3.825450 0.812972 0
M  V30 29 H 1.164618 -3.476222 1.549026 0
M  V30 30 H 2.443059 -2.151986 1.325037 0
M  V30 31 H 0.182617 -2.794928 -0.380329 0
M  V30 32 H 2.835705 -4.478429 -3.072595 0
M  V30 33 H 2.729206 0.019027 -3.782981 0
M  V30 34 H 4.063194 0.053613 -2.578821 0
M  V30 35 H 1.335076 3.020577 -0.655048 0
M  V30 36 H 0.610788 0.920706 4.006108 0
M  V30 37 H -0.679825 -0.193624 4.510112 0
M  V30 38 H -1.053482 1.599258 4.412464 0
M  V30 39 H -4.168094 0.894239 2.633200 0
M  V30 40 H -2.773188 1.808951 3.360429 0
M  V30 41 H -3.381834 0.379252 4.198121 0
M  V30 42 H -3.670370 -0.434203 0.947003 0
M  V30 43 H -1.992912 -0.506979 0.333526 0
M  V30 44 H -1.830763 -2.626207 1.285871 0
M  V30 45 H -2.979350 -1.625682 3.848628 0
M  V30 46 H -1.250578 -1.907231 3.364065 0
M  V30 47 H 0.176880 -1.336035 1.093256 0
M  V30 END ATOM
M  V30 BEGIN BOND
M  V30 1 1 1 2
M  V30 2 1 2 3
M  V30 3 2 3 4
M  V30 4 1 3 5
M  V30 5 1 5 6
M  V30 6 2 6 7
M  V30 7 1 7 8
M  V30 8 1 8 9
M  V30 9 1 9 10
M  V30 10 2 10 11
M  V30 11 1 11 12
M  V30 12 1 12 13
M  V30 13 1 13 14
M  V30 14 1 13 15
M  V30 15 1 13 16
M  V30 16 2 12 17
M  V30 17 1 17 18
M  V30 18 1 18 19
M  V30 19 1 18 20
M  V30 20 1 20 21
M  V30 21 1 20 22
M  V30 22 1 22 23
M  V30 23 1 23 24
M  V30 24 1 17 25
M  V30 25 2 25 26
M  V30 26 1 26 27
M  V30 27 1 27 2
M  V30 28 1 27 7
M  V30 29 1 26 10
M  V30 30 1 24 20
M  V30 31 1 1 28
M  V30 32 1 1 29
M  V30 33 1 1 30
M  V30 34 1 2 31 CFG=1
M  V30 35 1 5 32
M  V30 36 1 8 33
M  V30 37 1 8 34
M  V30 38 1 11 35
M  V30 39 1 19 36
M  V30 40 1 19 37
M  V30 41 1 19 38
M  V30 42 1 21 39
M  V30 43 1 21 40
M  V30 44 1 21 41
M  V30 45 1 22 42
M  V30 46 1 22 43
M  V30 47 1 23 44
M  V30 48 1 24 45
M  V30 49 1 24 46
M  V30 50 1 25 47
M  V30 END BOND
M  V30 END CTAB
M  END
>  <Dataset>  (707) 
ChEMBL_Kinases

>  <Ligand_Instance>  (707) 
nan

>  <PDB_ID>  (707) 
nan

>  <Standardized_SMILES>  (707) 
C[C@@H]1C(=O)NN=C2COc3cc(C(F)(F)F)c(N(C)C4(C)CNC4)cc3N21

>  <Name>  (707) 
nan

>  <Pocket>  (707) 
nan

>  <ATP_Site>  (707) 
nan

>  <Peripheral>  (707) 
nan

>  <Num_H_Atoms_ProtBoundConf>  (707) 
nan

>  <Num_Resolved_Atoms>  (707) 
nan

>  <Num_Not_Resolved_Atoms>  (707) 
nan

$$$$
CHEMBL3355074
     RDKit          3D

  0  0  0  0  0  0  0  0  0  0999 V3000
M  V30 BEGIN CTAB
M  V30 COUNTS 55 59 0 0 0
M  V30 BEGIN ATOM
M  V30 1 C 1.746566 -4.064863 -1.736293 0
M  V30 2 C 1.567784 -3.128942 -0.613784 0 CFG=2
M  V30 3 C 2.063637 -3.447264 0.739808 0
M  V30 4 N 1.752389 -2.265904 1.522343 0
M  V30 5 N 2.298365 -2.085476 2.725532 0
M  V30 6 C 1.851616 -0.919747 3.215298 0
M  V30 7 C 0.982654 -0.325179 2.291497 0
M  V30 8 C 0.380915 1.000777 2.631177 0
M  V30 9 C 1.413469 2.023182 2.288103 0
M  V30 10 C 1.220155 2.659450 0.957127 0
M  V30 11 N -0.109691 3.170215 0.779555 0
M  V30 12 S -0.435412 4.669999 1.470475 0
M  V30 13 C -0.261958 4.757066 3.225048 0
M  V30 14 O -1.884664 5.017962 1.144620 0
M  V30 15 O 0.400524 5.766739 0.867545 0
M  V30 16 C -1.067519 2.142470 0.902394 0
M  V30 17 C -0.945089 1.272541 2.087916 0
M  V30 18 C 0.946863 -1.194019 1.250698 0
M  V30 19 C 0.205358 -1.135789 -0.032894 0
M  V30 20 N 0.248526 -2.570910 -0.451073 0
M  V30 21 C -0.910830 -3.364968 -0.725362 0
M  V30 22 C -1.189368 -4.335839 0.253865 0
M  V30 23 C -2.321392 -5.119334 0.023130 0
M  V30 24 Cl -2.873127 -6.409012 1.121264 0
M  V30 25 N -3.154745 -5.011603 -1.058966 0
M  V30 26 C -2.840458 -4.062204 -1.972239 0
M  V30 27 N -3.400870 -3.666209 -3.134971 0
M  V30 28 C -2.709513 -2.651531 -3.708327 0
M  V30 29 C -1.634815 -2.358584 -2.887470 0
M  V30 30 C -1.741742 -3.244082 -1.824029 0
M  V30 31 H 1.794121 -3.534063 -2.736546 0
M  V30 32 H 0.899925 -4.780369 -1.765491 0
M  V30 33 H 2.662450 -4.679038 -1.720907 0
M  V30 34 H 2.312242 -2.309150 -0.918653 0
M  V30 35 H 1.619825 -4.307947 1.255425 0
M  V30 36 H 3.172691 -3.585185 0.653903 0
M  V30 37 H 2.166810 -0.571518 4.209376 0
M  V30 38 H 0.304596 1.044467 3.793674 0
M  V30 39 H 2.446455 1.580634 2.273218 0
M  V30 40 H 1.463365 2.814829 3.073814 0
M  V30 41 H 1.934948 3.502730 0.836254 0
M  V30 42 H 1.415700 1.929458 0.165334 0
M  V30 43 H 0.785132 5.063030 3.524355 0
M  V30 44 H -0.913454 5.605935 3.590665 0
M  V30 45 H -0.595514 3.867079 3.760156 0
M  V30 46 H -2.108696 2.556972 0.787773 0
M  V30 47 H -0.965935 1.519459 -0.044583 0
M  V30 48 H -1.533897 1.808793 2.914133 0
M  V30 49 H -1.576650 0.338335 1.966334 0
M  V30 50 H -0.833176 -0.798277 0.015093 0
M  V30 51 H 0.746001 -0.619825 -0.828360 0
M  V30 52 H -0.701321 -4.598149 1.165851 0
M  V30 53 H -4.267159 -4.117419 -3.518778 0
M  V30 54 H -2.997222 -2.192038 -4.647763 0
M  V30 55 H -0.883787 -1.598619 -3.049018 0
M  V30 END ATOM
M  V30 BEGIN BOND
M  V30 1 1 1 2
M  V30 2 1 2 3
M  V30 3 1 3 4
M  V30 4 1 4 5
M  V30 5 2 5 6
M  V30 6 1 6 7
M  V30 7 1 7 8
M  V30 8 1 8 9
M  V30 9 1 9 10
M  V30 10 1 10 11
M  V30 11 1 11 12
M  V30 12 1 12 13
M  V30 13 2 12 14
M  V30 14 2 12 15
M  V30 15 1 11 16
M  V30 16 1 16 17
M  V30 17 2 7 18
M  V30 18 1 18 19
M  V30 19 1 19 20
M  V30 20 1 20 21
M  V30 21 2 21 22
M  V30 22 1 22 23
M  V30 23 1 23 24
M  V30 24 2 23 25
M  V30 25 1 25 26
M  V30 26 1 26 27
M  V30 27 1 27 28
M  V30 28 2 28 29
M  V30 29 1 29 30
M  V30 30 1 20 2
M  V30 31 1 30 21
M  V30 32 1 18 4
M  V30 33 2 30 26
M  V30 34 1 17 8
M  V30 35 1 1 31
M  V30 36 1 1 32
M  V30 37 1 1 33
M  V30 38 1 2 34 CFG=3
M  V30 39 1 3 35
M  V30 40 1 3 36
M  V30 41 1 6 37
M  V30 42 1 8 38
M  V30 43 1 9 39
M  V30 44 1 9 40
M  V30 45 1 10 41
M  V30 46 1 10 42
M  V30 47 1 13 43
M  V30 48 1 13 44
M  V30 49 1 13 45
M  V30 50 1 16 46
M  V30 51 1 16 47
M  V30 52 1 17 48
M  V30 53 1 17 49
M  V30 54 1 19 50
M  V30 55 1 19 51
M  V30 56 1 22 52
M  V30 57 1 27 53
M  V30 58 1 28 54
M  V30 59 1 29 55
M  V30 END BOND
M  V30 END CTAB
M  END
>  <Dataset>  (708) 
ChEMBL_Kinases

>  <Ligand_Instance>  (708) 
nan

>  <PDB_ID>  (708) 
nan

>  <Standardized_SMILES>  (708) 
C[C@@H]1Cn2ncc(C3CCN(S(C)(=O)=O)CC3)c2CN1c1cc(Cl)nc2[nH]ccc12

>  <Name>  (708) 
nan

>  <Pocket>  (708) 
nan

>  <ATP_Site>  (708) 
nan

>  <Peripheral>  (708) 
nan

>  <Num_H_Atoms_ProtBoundConf>  (708) 
nan

>  <Num_Resolved_Atoms>  (708) 
nan

>  <Num_Not_Resolved_Atoms>  (708) 
nan

$$$$
CHEMBL3355073
     RDKit          3D

  0  0  0  0  0  0  0  0  0  0999 V3000
M  V30 BEGIN CTAB
M  V30 COUNTS 55 59 0 0 0
M  V30 BEGIN ATOM
M  V30 1 C -3.862746 -1.981346 1.759766 0
M  V30 2 C -2.546292 -2.716927 1.921516 0 CFG=2
M  V30 3 C -2.045227 -2.648569 3.346693 0
M  V30 4 N -0.948086 -1.702828 3.427846 0
M  V30 5 N -0.170895 -1.576906 4.490428 0
M  V30 6 C 0.760033 -0.619706 4.273654 0
M  V30 7 C 0.543367 -0.116447 2.983077 0
M  V30 8 C 1.316287 0.952290 2.302746 0
M  V30 9 C 2.444154 0.425826 1.478418 0
M  V30 10 C 2.912580 1.310329 0.393270 0
M  V30 11 N 2.207911 2.567761 0.361428 0
M  V30 12 S 2.631423 3.575163 -0.929580 0
M  V30 13 C 2.304689 2.907020 -2.530426 0
M  V30 14 O 4.049089 4.060727 -0.819653 0
M  V30 15 O 1.776778 4.829943 -0.802489 0
M  V30 16 C 0.791707 2.199197 0.197129 0
M  V30 17 C 0.378153 1.889036 1.632508 0
M  V30 18 C -0.534604 -0.824531 2.494384 0
M  V30 19 C -1.285642 -0.814131 1.216064 0
M  V30 20 N -1.601599 -2.227756 0.951042 0
M  V30 21 C -1.123373 -3.101247 -0.069115 0
M  V30 22 C -0.465301 -4.217554 0.436879 0
M  V30 23 C 0.051526 -5.152195 -0.457242 0
M  V30 24 N -0.108857 -4.933628 -1.773107 0
M  V30 25 C -0.733678 -3.875870 -2.301289 0
M  V30 26 N -1.020869 -3.434141 -3.534979 0
M  V30 27 C -1.699013 -2.256681 -3.452203 0
M  V30 28 C -1.855062 -1.926005 -2.101708 0
M  V30 29 C -1.246681 -2.948454 -1.420730 0
M  V30 30 H -3.924659 -1.088200 2.401630 0
M  V30 31 H -3.906993 -1.620280 0.706168 0
M  V30 32 H -4.726542 -2.625598 1.938444 0
M  V30 33 H -2.782223 -3.787458 1.729157 0
M  V30 34 H -2.924950 -2.319369 3.966342 0
M  V30 35 H -1.776436 -3.645586 3.745321 0
M  V30 36 H 1.557195 -0.246148 4.912002 0
M  V30 37 H 1.804398 1.545937 3.134460 0
M  V30 38 H 3.295904 0.176792 2.145490 0
M  V30 39 H 2.129810 -0.539797 1.040401 0
M  V30 40 H 2.759444 0.855013 -0.619479 0
M  V30 41 H 4.014053 1.511158 0.430201 0
M  V30 42 H 1.429857 3.390239 -3.029809 0
M  V30 43 H 2.160195 1.824357 -2.552367 0
M  V30 44 H 3.173513 3.185923 -3.192147 0
M  V30 45 H 0.174864 3.021794 -0.170567 0
M  V30 46 H 0.729679 1.275816 -0.414124 0
M  V30 47 H -0.673541 1.540314 1.592151 0
M  V30 48 H 0.314410 2.894368 2.131563 0
M  V30 49 H -0.687697 -0.502209 0.341185 0
M  V30 50 H -2.242115 -0.250908 1.335738 0
M  V30 51 H -0.324139 -4.414489 1.493472 0
M  V30 52 H 0.564831 -6.023376 -0.072416 0
M  V30 53 H -0.722273 -3.988014 -4.361058 0
M  V30 54 H -2.043902 -1.698059 -4.306365 0
M  V30 55 H -2.347375 -1.055527 -1.692470 0
M  V30 END ATOM
M  V30 BEGIN BOND
M  V30 1 1 1 2
M  V30 2 1 2 3
M  V30 3 1 3 4
M  V30 4 1 4 5
M  V30 5 2 5 6
M  V30 6 1 6 7
M  V30 7 1 7 8
M  V30 8 1 8 9
M  V30 9 1 9 10
M  V30 10 1 10 11
M  V30 11 1 11 12
M  V30 12 1 12 13
M  V30 13 2 12 14
M  V30 14 2 12 15
M  V30 15 1 11 16
M  V30 16 1 16 17
M  V30 17 2 7 18
M  V30 18 1 18 19
M  V30 19 1 19 20
M  V30 20 1 20 21
M  V30 21 2 21 22
M  V30 22 1 22 23
M  V30 23 2 23 24
M  V30 24 1 24 25
M  V30 25 1 25 26
M  V30 26 1 26 27
M  V30 27 2 27 28
M  V30 28 1 28 29
M  V30 29 1 20 2
M  V30 30 1 29 21
M  V30 31 1 18 4
M  V30 32 2 29 25
M  V30 33 1 17 8
M  V30 34 1 1 30
M  V30 35 1 1 31
M  V30 36 1 1 32
M  V30 37 1 2 33 CFG=3
M  V30 38 1 3 34
M  V30 39 1 3 35
M  V30 40 1 6 36
M  V30 41 1 8 37
M  V30 42 1 9 38
M  V30 43 1 9 39
M  V30 44 1 10 40
M  V30 45 1 10 41
M  V30 46 1 13 42
M  V30 47 1 13 43
M  V30 48 1 13 44
M  V30 49 1 16 45
M  V30 50 1 16 46
M  V30 51 1 17 47
M  V30 52 1 17 48
M  V30 53 1 19 49
M  V30 54 1 19 50
M  V30 55 1 22 51
M  V30 56 1 23 52
M  V30 57 1 26 53
M  V30 58 1 27 54
M  V30 59 1 28 55
M  V30 END BOND
M  V30 END CTAB
M  END
>  <Dataset>  (709) 
ChEMBL_Kinases

>  <Ligand_Instance>  (709) 
nan

>  <PDB_ID>  (709) 
nan

>  <Standardized_SMILES>  (709) 
C[C@@H]1Cn2ncc(C3CCN(S(C)(=O)=O)CC3)c2CN1c1ccnc2[nH]ccc12

>  <Name>  (709) 
nan

>  <Pocket>  (709) 
nan

>  <ATP_Site>  (709) 
nan

>  <Peripheral>  (709) 
nan

>  <Num_H_Atoms_ProtBoundConf>  (709) 
nan

>  <Num_Resolved_Atoms>  (709) 
nan

>  <Num_Not_Resolved_Atoms>  (709) 
nan

$$$$
CHEMBL3355072
     RDKit          3D

  0  0  0  0  0  0  0  0  0  0999 V3000
M  V30 BEGIN CTAB
M  V30 COUNTS 50 54 0 0 0
M  V30 BEGIN ATOM
M  V30 1 C -2.609028 -1.396563 2.795438 0
M  V30 2 C -2.109504 -2.634098 2.057854 0 CFG=2
M  V30 3 C -0.868764 -3.124056 2.814274 0
M  V30 4 N 0.027378 -1.976684 2.913499 0
M  V30 5 N 0.818202 -1.567322 3.891869 0
M  V30 6 C 1.431518 -0.447799 3.466232 0
M  V30 7 C 1.012860 -0.145559 2.181927 0
M  V30 8 C 1.537565 1.033439 1.491161 0
M  V30 9 C 1.607884 2.224840 2.204936 0
M  V30 10 C 2.071176 3.396788 1.697137 0
M  V30 11 C 2.502419 3.421288 0.392375 0
M  V30 12 S 3.092399 4.955907 -0.221381 0
M  V30 13 C 4.844856 5.009458 0.110621 0
M  V30 14 O 2.881279 5.068209 -1.715874 0
M  V30 15 O 2.406163 6.075034 0.499348 0
M  V30 16 C 2.450729 2.257917 -0.356717 0
M  V30 17 C 1.973914 1.079725 0.187720 0
M  V30 18 C 0.116139 -1.143534 1.860816 0
M  V30 19 C -0.618916 -1.269874 0.576062 0
M  V30 20 N -1.621428 -2.277674 0.735574 0
M  V30 21 C -2.183687 -2.971863 -0.370343 0
M  V30 22 C -3.550653 -2.797546 -0.472401 0
M  V30 23 C -4.215009 -3.434604 -1.524766 0
M  V30 24 N -3.555796 -4.196289 -2.416962 0
M  V30 25 C -2.230163 -4.353775 -2.301922 0
M  V30 26 N -1.289885 -5.038219 -3.015979 0
M  V30 27 C -0.055673 -4.862782 -2.461408 0
M  V30 28 C -0.179269 -4.034587 -1.341957 0
M  V30 29 C -1.512223 -3.753993 -1.287854 0
M  V30 30 H -3.443882 -1.609231 3.481276 0
M  V30 31 H -2.936911 -0.590990 2.116232 0
M  V30 32 H -1.793538 -0.973416 3.444306 0
M  V30 33 H -2.912768 -3.369476 2.028108 0
M  V30 34 H -1.125143 -3.571571 3.775608 0
M  V30 35 H -0.394660 -3.903557 2.178153 0
M  V30 36 H 2.131175 0.074313 4.095623 0
M  V30 37 H 1.268609 2.228953 3.249715 0
M  V30 38 H 2.091754 4.288829 2.330018 0
M  V30 39 H 5.450437 4.986876 -0.808368 0
M  V30 40 H 5.161254 4.187487 0.801025 0
M  V30 41 H 5.103938 5.955743 0.656417 0
M  V30 42 H 2.794076 2.298824 -1.378821 0
M  V30 43 H 1.924451 0.169912 -0.370355 0
M  V30 44 H -1.150569 -0.288630 0.405537 0
M  V30 45 H 0.057279 -1.402125 -0.284245 0
M  V30 46 H -4.174263 -2.213170 0.182426 0
M  V30 47 H -5.291796 -3.384539 -1.726370 0
M  V30 48 H -1.491605 -5.623529 -3.879930 0
M  V30 49 H 0.868076 -5.291768 -2.824736 0
M  V30 50 H 0.591127 -3.706158 -0.691634 0
M  V30 END ATOM
M  V30 BEGIN BOND
M  V30 1 1 1 2
M  V30 2 1 2 3
M  V30 3 1 3 4
M  V30 4 1 4 5
M  V30 5 2 5 6
M  V30 6 1 6 7
M  V30 7 1 7 8
M  V30 8 2 8 9
M  V30 9 1 9 10
M  V30 10 2 10 11
M  V30 11 1 11 12
M  V30 12 1 12 13
M  V30 13 2 12 14
M  V30 14 2 12 15
M  V30 15 1 11 16
M  V30 16 2 16 17
M  V30 17 2 7 18
M  V30 18 1 18 19
M  V30 19 1 19 20
M  V30 20 1 20 21
M  V30 21 2 21 22
M  V30 22 1 22 23
M  V30 23 2 23 24
M  V30 24 1 24 25
M  V30 25 1 25 26
M  V30 26 1 26 27
M  V30 27 2 27 28
M  V30 28 1 28 29
M  V30 29 1 20 2
M  V30 30 1 29 21
M  V30 31 1 18 4
M  V30 32 2 29 25
M  V30 33 1 17 8
M  V30 34 1 1 30
M  V30 35 1 1 31
M  V30 36 1 1 32
M  V30 37 1 2 33 CFG=3
M  V30 38 1 3 34
M  V30 39 1 3 35
M  V30 40 1 6 36
M  V30 41 1 9 37
M  V30 42 1 10 38
M  V30 43 1 13 39
M  V30 44 1 13 40
M  V30 45 1 13 41
M  V30 46 1 16 42
M  V30 47 1 17 43
M  V30 48 1 19 44
M  V30 49 1 19 45
M  V30 50 1 22 46
M  V30 51 1 23 47
M  V30 52 1 26 48
M  V30 53 1 27 49
M  V30 54 1 28 50
M  V30 END BOND
M  V30 END CTAB
M  END
>  <Dataset>  (710) 
ChEMBL_Kinases

>  <Ligand_Instance>  (710) 
nan

>  <PDB_ID>  (710) 
nan

>  <Standardized_SMILES>  (710) 
C[C@@H]1Cn2ncc(-c3ccc(S(C)(=O)=O)cc3)c2CN1c1ccnc2[nH]ccc12

>  <Name>  (710) 
nan

>  <Pocket>  (710) 
nan

>  <ATP_Site>  (710) 
nan

>  <Peripheral>  (710) 
nan

>  <Num_H_Atoms_ProtBoundConf>  (710) 
nan

>  <Num_Resolved_Atoms>  (710) 
nan

>  <Num_Not_Resolved_Atoms>  (710) 
nan

$$$$
CHEMBL3355071
     RDKit          3D

  0  0  0  0  0  0  0  0  0  0999 V3000
M  V30 BEGIN CTAB
M  V30 COUNTS 55 59 0 0 0
M  V30 BEGIN ATOM
M  V30 1 C 0.766014 -3.206321 3.148009 0
M  V30 2 C 0.925115 -4.059546 1.907930 0 CFG=2
M  V30 3 C 2.394362 -4.021490 1.511507 0
M  V30 4 N 2.778852 -2.627190 1.288911 0
M  V30 5 N 3.893545 -1.932855 1.443636 0
M  V30 6 C 3.667327 -0.658959 1.074125 0
M  V30 7 C 2.335865 -0.532177 0.660812 0
M  V30 8 C 1.800187 0.744140 0.201645 0
M  V30 9 C 2.123680 1.864765 0.974793 0
M  V30 10 C 1.700011 3.142828 0.682012 0
M  V30 11 C 0.912806 3.339548 -0.432964 0
M  V30 12 S 0.348239 4.955563 -0.845889 0
M  V30 13 O 0.219647 5.159899 -2.311220 0
M  V30 14 O 1.355762 5.921403 -0.250553 0
M  V30 15 N -1.158881 5.299196 -0.111583 0
M  V30 16 C -1.142432 5.279155 1.316475 0
M  V30 17 C -2.248332 4.544045 -0.656196 0
M  V30 18 C 0.581671 2.250221 -1.209232 0
M  V30 19 C 1.012666 0.975608 -0.904688 0
M  V30 20 C 1.813417 -1.821507 0.818647 0
M  V30 21 C 0.402337 -2.154721 0.492407 0
M  V30 22 N 0.098540 -3.538598 0.814831 0
M  V30 23 C -0.871277 -4.348023 0.185324 0
M  V30 24 C -0.466005 -5.515607 -0.446173 0
M  V30 25 C -1.380737 -6.348189 -1.081007 0
M  V30 26 N -2.704808 -6.044434 -1.103526 0
M  V30 27 C -3.132784 -4.915145 -0.498259 0
M  V30 28 N -4.344664 -4.353158 -0.350185 0
M  V30 29 C -4.276468 -3.202284 0.343963 0
M  V30 30 C -2.935251 -3.029843 0.652009 0
M  V30 31 C -2.225683 -4.091576 0.130048 0
M  V30 32 H 0.088275 -2.345184 2.988453 0
M  V30 33 H 0.352984 -3.816146 4.001000 0
M  V30 34 H 1.732999 -2.795263 3.489310 0
M  V30 35 H 0.665752 -5.086459 2.164799 0
M  V30 36 H 2.551481 -4.537555 0.537851 0
M  V30 37 H 2.955565 -4.487351 2.347430 0
M  V30 38 H 4.413442 0.123389 1.101789 0
M  V30 39 H 2.743540 1.754063 1.864325 0
M  V30 40 H 1.991040 3.975912 1.331662 0
M  V30 41 H -0.565247 6.141800 1.717321 0
M  V30 42 H -0.758053 4.297915 1.721412 0
M  V30 43 H -2.197196 5.330297 1.659995 0
M  V30 44 H -2.593545 4.965940 -1.624362 0
M  V30 45 H -3.085019 4.604446 0.089649 0
M  V30 46 H -2.012985 3.450119 -0.730177 0
M  V30 47 H -0.035978 2.378709 -2.090839 0
M  V30 48 H 0.774941 0.102272 -1.485927 0
M  V30 49 H -0.259445 -1.511929 1.079266 0
M  V30 50 H 0.287088 -2.077459 -0.608194 0
M  V30 51 H 0.592490 -5.779736 -0.440829 0
M  V30 52 H -1.046598 -7.256445 -1.569364 0
M  V30 53 H -5.276792 -4.716402 -0.708872 0
M  V30 54 H -5.061829 -2.527855 0.624227 0
M  V30 55 H -2.554554 -2.202762 1.201713 0
M  V30 END ATOM
M  V30 BEGIN BOND
M  V30 1 1 1 2
M  V30 2 1 2 3
M  V30 3 1 3 4
M  V30 4 1 4 5
M  V30 5 2 5 6
M  V30 6 1 6 7
M  V30 7 1 7 8
M  V30 8 2 8 9
M  V30 9 1 9 10
M  V30 10 2 10 11
M  V30 11 1 11 12
M  V30 12 2 12 13
M  V30 13 2 12 14
M  V30 14 1 12 15
M  V30 15 1 15 16
M  V30 16 1 15 17
M  V30 17 1 11 18
M  V30 18 2 18 19
M  V30 19 2 7 20
M  V30 20 1 20 21
M  V30 21 1 21 22
M  V30 22 1 22 23
M  V30 23 2 23 24
M  V30 24 1 24 25
M  V30 25 2 25 26
M  V30 26 1 26 27
M  V30 27 1 27 28
M  V30 28 1 28 29
M  V30 29 2 29 30
M  V30 30 1 30 31
M  V30 31 1 22 2
M  V30 32 1 31 23
M  V30 33 1 20 4
M  V30 34 2 31 27
M  V30 35 1 19 8
M  V30 36 1 1 32
M  V30 37 1 1 33
M  V30 38 1 1 34
M  V30 39 1 2 35 CFG=1
M  V30 40 1 3 36
M  V30 41 1 3 37
M  V30 42 1 6 38
M  V30 43 1 9 39
M  V30 44 1 10 40
M  V30 45 1 16 41
M  V30 46 1 16 42
M  V30 47 1 16 43
M  V30 48 1 17 44
M  V30 49 1 17 45
M  V30 50 1 17 46
M  V30 51 1 18 47
M  V30 52 1 19 48
M  V30 53 1 21 49
M  V30 54 1 21 50
M  V30 55 1 24 51
M  V30 56 1 25 52
M  V30 57 1 28 53
M  V30 58 1 29 54
M  V30 59 1 30 55
M  V30 END BOND
M  V30 END CTAB
M  END
>  <Dataset>  (711) 
ChEMBL_Kinases

>  <Ligand_Instance>  (711) 
nan

>  <PDB_ID>  (711) 
nan

>  <Standardized_SMILES>  (711) 
C[C@@H]1Cn2ncc(-c3ccc(S(=O)(=O)N(C)C)cc3)c2CN1c1ccnc2[nH]ccc12

>  <Name>  (711) 
nan

>  <Pocket>  (711) 
nan

>  <ATP_Site>  (711) 
nan

>  <Peripheral>  (711) 
nan

>  <Num_H_Atoms_ProtBoundConf>  (711) 
nan

>  <Num_Resolved_Atoms>  (711) 
nan

>  <Num_Not_Resolved_Atoms>  (711) 
nan

$$$$
CHEMBL3355070
     RDKit          3D

  0  0  0  0  0  0  0  0  0  0999 V3000
M  V30 BEGIN CTAB
M  V30 COUNTS 52 56 0 0 0
M  V30 BEGIN ATOM
M  V30 1 C -0.832590 -1.173966 5.775268 0
M  V30 2 N 0.535108 -1.419295 6.191986 0
M  V30 3 C 0.583099 -2.328834 7.317867 0
M  V30 4 S 1.378821 -2.154596 4.890905 0
M  V30 5 O 2.790640 -2.487745 5.308041 0
M  V30 6 O 0.712694 -3.468081 4.593059 0
M  V30 7 C 1.436676 -1.119191 3.481043 0
M  V30 8 C 2.445487 -0.207405 3.243175 0
M  V30 9 C 2.399253 0.565915 2.096454 0
M  V30 10 C 1.363556 0.461014 1.160200 0
M  V30 11 C 1.449136 1.343370 -0.001780 0
M  V30 12 C 1.739504 2.680371 -0.134099 0
M  V30 13 N 1.689274 3.030340 -1.438140 0
M  V30 14 N 1.371568 1.952625 -2.172743 0
M  V30 15 C 1.225803 0.927956 -1.299586 0
M  V30 16 C 0.870143 -0.334445 -2.000211 0
M  V30 17 N -0.269523 0.019351 -2.850973 0
M  V30 18 C -1.526786 -0.524629 -2.424030 0
M  V30 19 C -2.484851 0.429719 -2.136826 0
M  V30 20 C -3.724309 -0.001327 -1.718811 0
M  V30 21 N -4.007424 -1.326502 -1.589111 0
M  V30 22 C -3.073472 -2.242163 -1.869494 0
M  V30 23 N -3.019616 -3.587492 -1.849597 0
M  V30 24 C -1.819585 -4.040537 -2.230036 0
M  V30 25 C -0.997715 -2.955155 -2.529531 0
M  V30 26 C -1.799679 -1.870720 -2.297098 0
M  V30 27 C 0.097125 0.862126 -3.975310 0
M  V30 28 C 1.194642 1.798324 -3.597924 0
M  V30 29 C 0.359266 -0.453969 1.407384 0
M  V30 30 C 0.411166 -1.225226 2.557099 0
M  V30 31 H -1.117692 -1.954223 5.045970 0
M  V30 32 H -0.836276 -0.161018 5.299225 0
M  V30 33 H -1.545383 -1.254186 6.618041 0
M  V30 34 H 1.458424 -2.087630 7.961942 0
M  V30 35 H -0.376773 -2.205526 7.861333 0
M  V30 36 H 0.735270 -3.359796 6.946612 0
M  V30 37 H 3.246933 -0.124477 3.965153 0
M  V30 38 H 3.207268 1.251007 1.970132 0
M  V30 39 H 1.969451 3.314075 0.731614 0
M  V30 40 H 1.704458 -0.651419 -2.681338 0
M  V30 41 H 0.675268 -1.183671 -1.347811 0
M  V30 42 H -2.334381 1.494485 -2.215800 0
M  V30 43 H -4.532990 0.688914 -1.473184 0
M  V30 44 H -3.875845 -4.137849 -1.553779 0
M  V30 45 H -1.552110 -5.080881 -2.288612 0
M  V30 46 H 0.026498 -2.955322 -2.865003 0
M  V30 47 H 0.537156 0.143167 -4.727363 0
M  V30 48 H -0.777028 1.334545 -4.467620 0
M  V30 49 H 0.922196 2.799344 -4.037682 0
M  V30 50 H 2.173718 1.544069 -4.050813 0
M  V30 51 H -0.429938 -0.518668 0.673190 0
M  V30 52 H -0.411295 -1.941313 2.712301 0
M  V30 END ATOM
M  V30 BEGIN BOND
M  V30 1 1 1 2
M  V30 2 1 2 3
M  V30 3 1 2 4
M  V30 4 2 4 5
M  V30 5 2 4 6
M  V30 6 1 4 7
M  V30 7 2 7 8
M  V30 8 1 8 9
M  V30 9 2 9 10
M  V30 10 1 10 11
M  V30 11 1 11 12
M  V30 12 2 12 13
M  V30 13 1 13 14
M  V30 14 1 14 15
M  V30 15 1 15 16
M  V30 16 1 16 17
M  V30 17 1 17 18
M  V30 18 2 18 19
M  V30 19 1 19 20
M  V30 20 2 20 21
M  V30 21 1 21 22
M  V30 22 1 22 23
M  V30 23 1 23 24
M  V30 24 2 24 25
M  V30 25 1 25 26
M  V30 26 1 17 27
M  V30 27 1 27 28
M  V30 28 1 10 29
M  V30 29 2 29 30
M  V30 30 1 30 7
M  V30 31 2 15 11
M  V30 32 1 26 18
M  V30 33 1 28 14
M  V30 34 2 26 22
M  V30 35 1 1 31
M  V30 36 1 1 32
M  V30 37 1 1 33
M  V30 38 1 3 34
M  V30 39 1 3 35
M  V30 40 1 3 36
M  V30 41 1 8 37
M  V30 42 1 9 38
M  V30 43 1 12 39
M  V30 44 1 16 40
M  V30 45 1 16 41
M  V30 46 1 19 42
M  V30 47 1 20 43
M  V30 48 1 23 44
M  V30 49 1 24 45
M  V30 50 1 25 46
M  V30 51 1 27 47
M  V30 52 1 27 48
M  V30 53 1 28 49
M  V30 54 1 28 50
M  V30 55 1 29 51
M  V30 56 1 30 52
M  V30 END BOND
M  V30 END CTAB
M  END
>  <Dataset>  (712) 
ChEMBL_Kinases

>  <Ligand_Instance>  (712) 
nan

>  <PDB_ID>  (712) 
nan

>  <Standardized_SMILES>  (712) 
CN(C)S(=O)(=O)c1ccc(-c2cnn3c2CN(c2ccnc4[nH]ccc24)CC3)cc1

>  <Name>  (712) 
nan

>  <Pocket>  (712) 
nan

>  <ATP_Site>  (712) 
nan

>  <Peripheral>  (712) 
nan

>  <Num_H_Atoms_ProtBoundConf>  (712) 
nan

>  <Num_Resolved_Atoms>  (712) 
nan

>  <Num_Not_Resolved_Atoms>  (712) 
nan

$$$$
CHEMBL3355069
     RDKit          3D

  0  0  0  0  0  0  0  0  0  0999 V3000
M  V30 BEGIN CTAB
M  V30 COUNTS 48 52 0 0 0
M  V30 BEGIN ATOM
M  V30 1 C 2.246113 -4.260982 -0.903459 0
M  V30 2 N 3.647722 -4.047262 -0.754847 0
M  V30 3 C 4.158989 -4.239616 0.568730 0
M  V30 4 S 4.172594 -2.552238 -1.447911 0
M  V30 5 O 4.003679 -2.523836 -2.918468 0
M  V30 6 O 5.656511 -2.428653 -1.132501 0
M  V30 7 C 3.379683 -1.217272 -0.642921 0
M  V30 8 C 3.910332 -0.596422 0.469626 0
M  V30 9 C 3.311543 0.458383 1.128464 0
M  V30 10 C 2.102794 0.900350 0.618400 0
M  V30 11 C 1.353035 2.008830 1.211849 0
M  V30 12 C 1.879715 3.214116 1.624061 0
M  V30 13 N 0.852628 3.966597 2.116894 0
M  V30 14 C -0.266648 3.260355 2.016141 0
M  V30 15 C -1.586138 3.481324 2.337208 0
M  V30 16 C -2.489414 2.483222 2.077200 0
M  V30 17 C -2.217396 1.267655 1.523869 0
M  V30 18 C -3.026327 0.138361 1.155915 0
M  V30 19 C -2.473595 -0.789551 0.263664 0
M  V30 20 C -3.139963 -1.902110 -0.141728 0
M  V30 21 N -4.378703 -2.152891 0.311930 0
M  V30 22 C -4.987075 -1.317259 1.172801 0
M  V30 23 N -6.179325 -1.358910 1.766240 0
M  V30 24 C -6.282435 -0.276514 2.555892 0
M  V30 25 C -5.111185 0.433270 2.427118 0
M  V30 26 C -4.283257 -0.206519 1.558156 0
M  V30 27 N -0.901330 1.166602 1.252281 0
M  V30 28 N 0.012643 2.089075 1.478189 0
M  V30 29 C 1.516988 0.311178 -0.504869 0
M  V30 30 C 2.170536 -0.741286 -1.116213 0
M  V30 31 H 2.002500 -5.229671 -0.436641 0
M  V30 32 H 1.982181 -4.221309 -1.962837 0
M  V30 33 H 1.716527 -3.414209 -0.383630 0
M  V30 34 H 4.048427 -3.282265 1.151763 0
M  V30 35 H 5.228763 -4.530026 0.570500 0
M  V30 36 H 3.530454 -4.963412 1.134673 0
M  V30 37 H 4.852420 -0.970655 0.834705 0
M  V30 38 H 3.734017 0.937289 1.997440 0
M  V30 39 H 2.897058 3.560279 1.592036 0
M  V30 40 H -1.920121 4.406937 2.781511 0
M  V30 41 H -3.497058 2.678716 2.302475 0
M  V30 42 H -1.463838 -0.669028 -0.161598 0
M  V30 43 H -2.699442 -2.601079 -0.827370 0
M  V30 44 H -6.872932 -2.128351 1.604841 0
M  V30 45 H -7.148182 -0.072101 3.146713 0
M  V30 46 H -4.989397 1.323158 2.987606 0
M  V30 47 H 0.567294 0.651489 -0.913177 0
M  V30 48 H 1.722644 -1.210971 -1.995990 0
M  V30 END ATOM
M  V30 BEGIN BOND
M  V30 1 1 1 2
M  V30 2 1 2 3
M  V30 3 1 2 4
M  V30 4 2 4 5
M  V30 5 2 4 6
M  V30 6 1 4 7
M  V30 7 2 7 8
M  V30 8 1 8 9
M  V30 9 2 9 10
M  V30 10 1 10 11
M  V30 11 2 11 12
M  V30 12 1 12 13
M  V30 13 2 13 14
M  V30 14 1 14 15
M  V30 15 2 15 16
M  V30 16 1 16 17
M  V30 17 1 17 18
M  V30 18 2 18 19
M  V30 19 1 19 20
M  V30 20 2 20 21
M  V30 21 1 21 22
M  V30 22 1 22 23
M  V30 23 1 23 24
M  V30 24 2 24 25
M  V30 25 1 25 26
M  V30 26 2 17 27
M  V30 27 1 27 28
M  V30 28 1 10 29
M  V30 29 2 29 30
M  V30 30 1 30 7
M  V30 31 1 28 11
M  V30 32 1 28 14
M  V30 33 1 26 18
M  V30 34 2 26 22
M  V30 35 1 1 31
M  V30 36 1 1 32
M  V30 37 1 1 33
M  V30 38 1 3 34
M  V30 39 1 3 35
M  V30 40 1 3 36
M  V30 41 1 8 37
M  V30 42 1 9 38
M  V30 43 1 12 39
M  V30 44 1 15 40
M  V30 45 1 16 41
M  V30 46 1 19 42
M  V30 47 1 20 43
M  V30 48 1 23 44
M  V30 49 1 24 45
M  V30 50 1 25 46
M  V30 51 1 29 47
M  V30 52 1 30 48
M  V30 END BOND
M  V30 END CTAB
M  END
>  <Dataset>  (713) 
ChEMBL_Kinases

>  <Ligand_Instance>  (713) 
nan

>  <PDB_ID>  (713) 
nan

>  <Standardized_SMILES>  (713) 
CN(C)S(=O)(=O)c1ccc(-c2cnc3ccc(-c4ccnc5[nH]ccc45)nn23)cc1

>  <Name>  (713) 
nan

>  <Pocket>  (713) 
nan

>  <ATP_Site>  (713) 
nan

>  <Peripheral>  (713) 
nan

>  <Num_H_Atoms_ProtBoundConf>  (713) 
nan

>  <Num_Resolved_Atoms>  (713) 
nan

>  <Num_Not_Resolved_Atoms>  (713) 
nan

$$$$
CHEMBL3355067
     RDKit          3D

  0  0  0  0  0  0  0  0  0  0999 V3000
M  V30 BEGIN CTAB
M  V30 COUNTS 23 24 0 0 0
M  V30 BEGIN ATOM
M  V30 1 O 0.195345 -1.644962 5.823575 0
M  V30 2 C 1.385526 -1.394403 5.127579 0
M  V30 3 C 1.119622 -1.039062 3.733302 0
M  V30 4 C 0.886359 -0.758511 2.570850 0
M  V30 5 C 0.589409 -0.418544 1.204310 0
M  V30 6 C 0.458773 -1.482505 0.336115 0
M  V30 7 C 0.170859 -1.126063 -0.983052 0
M  V30 8 C 0.035553 0.206291 -1.346740 0
M  V30 9 C -0.251863 0.466804 -2.684587 0
M  V30 10 C -0.373637 1.809231 -2.980378 0
M  V30 11 N -0.241037 2.828753 -2.112452 0
M  V30 12 C 0.038811 2.540656 -0.817403 0
M  V30 13 C 0.183232 1.220776 -0.406699 0
M  V30 14 C 0.469810 0.926290 0.919612 0
M  V30 15 H -0.491148 -1.100168 5.347952 0
M  V30 16 H 1.922630 -0.589335 5.662384 0
M  V30 17 H 2.005878 -2.318566 5.092988 0
M  V30 18 H 0.568662 -2.490490 0.647857 0
M  V30 19 H 0.054410 -1.905073 -1.719581 0
M  V30 20 H -0.370676 -0.299850 -3.429962 0
M  V30 21 H -0.597443 2.082588 -4.006580 0
M  V30 22 H 0.166947 3.286960 -0.031293 0
M  V30 23 H 0.588625 1.676029 1.661314 0
M  V30 END ATOM
M  V30 BEGIN BOND
M  V30 1 1 1 2
M  V30 2 1 2 3
M  V30 3 3 3 4
M  V30 4 1 4 5
M  V30 5 2 5 6
M  V30 6 1 6 7
M  V30 7 2 7 8
M  V30 8 1 8 9
M  V30 9 2 9 10
M  V30 10 1 10 11
M  V30 11 2 11 12
M  V30 12 1 12 13
M  V30 13 2 13 14
M  V30 14 1 14 5
M  V30 15 1 13 8
M  V30 16 1 1 15
M  V30 17 1 2 16
M  V30 18 1 2 17
M  V30 19 1 6 18
M  V30 20 1 7 19
M  V30 21 1 9 20
M  V30 22 1 10 21
M  V30 23 1 12 22
M  V30 24 1 14 23
M  V30 END BOND
M  V30 END CTAB
M  END
>  <Dataset>  (714) 
ChEMBL_Kinases

>  <Ligand_Instance>  (714) 
nan

>  <PDB_ID>  (714) 
nan

>  <Standardized_SMILES>  (714) 
OCC#Cc1ccc2ccncc2c1

>  <Name>  (714) 
nan

>  <Pocket>  (714) 
nan

>  <ATP_Site>  (714) 
nan

>  <Peripheral>  (714) 
nan

>  <Num_H_Atoms_ProtBoundConf>  (714) 
nan

>  <Num_Resolved_Atoms>  (714) 
nan

>  <Num_Not_Resolved_Atoms>  (714) 
nan

$$$$
CHEMBL3355065
     RDKit          3D

  0  0  0  0  0  0  0  0  0  0999 V3000
M  V30 BEGIN CTAB
M  V30 COUNTS 58 61 0 0 0
M  V30 BEGIN ATOM
M  V30 1 C 3.195382 -0.060690 8.432000 0
M  V30 2 N 2.917838 1.183878 7.740373 0
M  V30 3 C 2.802257 1.126035 6.319048 0
M  V30 4 C 3.909004 1.300882 5.502121 0
M  V30 5 C 3.739915 1.234596 4.128896 0
M  V30 6 C 4.819032 1.402542 3.256707 0
M  V30 7 C 4.597030 1.326493 1.887319 0
M  V30 8 C 3.315276 1.085814 1.390026 0
M  V30 9 C 3.072115 1.001690 -0.027065 0
M  V30 10 C 2.855442 0.932990 -1.218760 0
M  V30 11 C 2.566962 0.841299 -2.672108 0
M  V30 12 O 2.077400 -0.435944 -3.009467 0
M  V30 13 C 0.929798 -0.972613 -2.487305 0
M  V30 14 C 0.108749 -0.343286 -1.578110 0
M  V30 15 C -1.037651 -1.008391 -1.124051 0
M  V30 16 C -1.449239 -2.301337 -1.517571 0
M  V30 17 C -2.695936 -2.616865 -0.864385 0
M  V30 18 N -3.941513 -2.311680 -1.412004 0
M  V30 19 C -4.548780 -3.017802 -2.452396 0
M  V30 20 C -4.411320 -2.275120 -3.790415 0
M  V30 21 N -5.236183 -1.079484 -3.685134 0
M  V30 22 C -5.442388 -0.663839 -2.309472 0
M  V30 23 C -4.236187 -0.882248 -1.429943 0
M  V30 24 C -0.579657 -2.843117 -2.413187 0
M  V30 25 C -0.882025 -4.215216 -2.866239 0
M  V30 26 F -2.027023 -4.347505 -3.579778 0
M  V30 27 F 0.148831 -4.684159 -3.634901 0
M  V30 28 F -0.897170 -5.089043 -1.745927 0
M  V30 29 C 0.555457 -2.228053 -2.886873 0
M  V30 30 C 2.234649 0.917187 2.244560 0
M  V30 31 C 2.460759 0.994233 3.620099 0
M  V30 32 C 1.359396 0.821019 4.465355 0
M  V30 33 N 1.575904 0.894757 5.807953 0
M  V30 34 H 4.285663 -0.321118 8.419279 0
M  V30 35 H 2.885828 0.021869 9.473726 0
M  V30 36 H 2.580983 -0.849870 7.962816 0
M  V30 37 H 2.767050 2.194535 8.016817 0
M  V30 38 H 4.893053 1.486271 5.933431 0
M  V30 39 H 5.821449 1.592464 3.663668 0
M  V30 40 H 5.419140 1.454272 1.200302 0
M  V30 41 H 1.817050 1.597677 -2.936385 0
M  V30 42 H 3.527282 0.957917 -3.185679 0
M  V30 43 H 0.418607 0.644904 -1.275610 0
M  V30 44 H -1.548105 -0.356365 -0.418897 0
M  V30 45 H -2.721055 -3.746963 -0.662395 0
M  V30 46 H -2.700001 -2.233799 0.210353 0
M  V30 47 H -4.374219 -4.086188 -2.527790 0
M  V30 48 H -5.682233 -2.947810 -2.262808 0
M  V30 49 H -3.358347 -2.030021 -4.018834 0
M  V30 50 H -4.843367 -2.897817 -4.595957 0
M  V30 51 H -6.189413 -1.296863 -4.073118 0
M  V30 52 H -6.356705 -1.091087 -1.848945 0
M  V30 53 H -5.617840 0.457180 -2.272614 0
M  V30 54 H -3.410974 -0.313885 -1.904044 0
M  V30 55 H -4.500853 -0.556253 -0.411164 0
M  V30 56 H 1.162569 -2.768324 -3.598963 0
M  V30 57 H 1.253386 0.731612 1.863873 0
M  V30 58 H 0.359531 0.632787 4.046839 0
M  V30 END ATOM
M  V30 BEGIN BOND
M  V30 1 1 1 2
M  V30 2 1 2 3
M  V30 3 2 3 4
M  V30 4 1 4 5
M  V30 5 2 5 6
M  V30 6 1 6 7
M  V30 7 2 7 8
M  V30 8 1 8 9
M  V30 9 3 9 10
M  V30 10 1 10 11
M  V30 11 1 11 12
M  V30 12 1 12 13
M  V30 13 2 13 14
M  V30 14 1 14 15
M  V30 15 2 15 16
M  V30 16 1 16 17
M  V30 17 1 17 18
M  V30 18 1 18 19
M  V30 19 1 19 20
M  V30 20 1 20 21
M  V30 21 1 21 22
M  V30 22 1 22 23
M  V30 23 1 16 24
M  V30 24 1 24 25
M  V30 25 1 25 26
M  V30 26 1 25 27
M  V30 27 1 25 28
M  V30 28 2 24 29
M  V30 29 1 8 30
M  V30 30 2 30 31
M  V30 31 1 31 32
M  V30 32 2 32 33
M  V30 33 1 33 3
M  V30 34 1 31 5
M  V30 35 1 29 13
M  V30 36 1 23 18
M  V30 37 1 1 34
M  V30 38 1 1 35
M  V30 39 1 1 36
M  V30 40 1 2 37
M  V30 41 1 4 38
M  V30 42 1 6 39
M  V30 43 1 7 40
M  V30 44 1 11 41
M  V30 45 1 11 42
M  V30 46 1 14 43
M  V30 47 1 15 44
M  V30 48 1 17 45
M  V30 49 1 17 46
M  V30 50 1 19 47
M  V30 51 1 19 48
M  V30 52 1 20 49
M  V30 53 1 20 50
M  V30 54 1 21 51
M  V30 55 1 22 52
M  V30 56 1 22 53
M  V30 57 1 23 54
M  V30 58 1 23 55
M  V30 59 1 29 56
M  V30 60 1 30 57
M  V30 61 1 32 58
M  V30 END BOND
M  V30 END CTAB
M  END
>  <Dataset>  (715) 
ChEMBL_Kinases

>  <Ligand_Instance>  (715) 
nan

>  <PDB_ID>  (715) 
nan

>  <Standardized_SMILES>  (715) 
CNc1cc2ccc(C#CCOc3ccc(CN4CCNCC4)c(C(F)(F)F)c3)cc2cn1

>  <Name>  (715) 
nan

>  <Pocket>  (715) 
nan

>  <ATP_Site>  (715) 
nan

>  <Peripheral>  (715) 
nan

>  <Num_H_Atoms_ProtBoundConf>  (715) 
nan

>  <Num_Resolved_Atoms>  (715) 
nan

>  <Num_Not_Resolved_Atoms>  (715) 
nan

$$$$
CHEMBL3355064
     RDKit          3D

  0  0  0  0  0  0  0  0  0  0999 V3000
M  V30 BEGIN CTAB
M  V30 COUNTS 53 56 0 0 0
M  V30 BEGIN ATOM
M  V30 1 F 1.387253 -4.786257 2.513127 0
M  V30 2 C 1.710247 -4.827499 1.168949 0
M  V30 3 F 0.979746 -5.821162 0.546265 0
M  V30 4 F 3.045697 -5.212468 1.008298 0
M  V30 5 C 1.461269 -3.530453 0.516724 0
M  V30 6 C 2.489850 -2.840593 -0.089281 0
M  V30 7 C 2.330607 -1.623758 -0.717872 0
M  V30 8 O 3.380775 -0.949790 -1.320124 0
M  V30 9 C 3.239172 0.297776 -1.966952 0
M  V30 10 C 2.756491 1.353619 -1.081704 0
M  V30 11 C 2.339768 2.220813 -0.353383 0
M  V30 12 C 1.819321 3.248246 0.510705 0
M  V30 13 C 2.578905 4.326260 0.918894 0
M  V30 14 C 2.012100 5.280517 1.754174 0
M  V30 15 C 0.692624 5.184684 2.196686 0
M  V30 16 C 0.112131 6.123512 3.027034 0
M  V30 17 C -1.203248 5.965796 3.427667 0
M  V30 18 N -1.942105 4.895466 3.016632 0
M  V30 19 C -1.400127 3.955951 2.200616 0
M  V30 20 C -0.085231 4.108003 1.796335 0
M  V30 21 C 0.517027 3.179846 0.964381 0
M  V30 22 C 1.040517 -1.078270 -0.727784 0
M  V30 23 C 0.013197 -1.771511 -0.120228 0
M  V30 24 C 0.195200 -2.990463 0.504500 0
M  V30 25 C -0.973340 -3.663905 1.132929 0
M  V30 26 N -1.410204 -4.745574 0.296297 0
M  V30 27 C -2.544987 -5.376385 0.935845 0
M  V30 28 C -3.701123 -4.437679 1.116422 0
M  V30 29 N -3.876028 -3.479949 0.103274 0
M  V30 30 C -3.062346 -3.510793 -1.046962 0
M  V30 31 C -1.829909 -4.336267 -1.005914 0
M  V30 32 H 3.457623 -3.293985 -0.058049 0
M  V30 33 H 4.156482 0.643697 -2.441940 0
M  V30 34 H 2.505805 0.105717 -2.803563 0
M  V30 35 H 3.600365 4.416363 0.585994 0
M  V30 36 H 2.599947 6.130984 2.080377 0
M  V30 37 H 0.699657 6.972885 3.352702 0
M  V30 38 H -1.691347 6.684675 4.079651 0
M  V30 39 H -1.985895 3.098315 1.868878 0
M  V30 40 H -0.093468 2.331482 0.648022 0
M  V30 41 H 0.810808 -0.134279 -1.192869 0
M  V30 42 H -0.964742 -1.352363 -0.130651 0
M  V30 43 H -0.725359 -3.970273 2.154531 0
M  V30 44 H -1.831449 -2.937291 1.201137 0
M  V30 45 H -2.166126 -5.787953 1.888601 0
M  V30 46 H -2.874525 -6.218459 0.283388 0
M  V30 47 H -3.513632 -3.886573 2.082897 0
M  V30 48 H -4.637784 -5.009249 1.278312 0
M  V30 49 H -4.285491 -2.584324 0.364147 0
M  V30 50 H -2.758999 -2.449145 -1.285704 0
M  V30 51 H -3.706505 -3.782743 -1.934679 0
M  V30 52 H -1.029145 -3.858339 -1.610625 0
M  V30 53 H -2.053405 -5.290837 -1.568504 0
M  V30 END ATOM
M  V30 BEGIN BOND
M  V30 1 1 1 2
M  V30 2 1 2 3
M  V30 3 1 2 4
M  V30 4 1 2 5
M  V30 5 2 5 6
M  V30 6 1 6 7
M  V30 7 1 7 8
M  V30 8 1 8 9
M  V30 9 1 9 10
M  V30 10 3 10 11
M  V30 11 1 11 12
M  V30 12 2 12 13
M  V30 13 1 13 14
M  V30 14 2 14 15
M  V30 15 1 15 16
M  V30 16 2 16 17
M  V30 17 1 17 18
M  V30 18 2 18 19
M  V30 19 1 19 20
M  V30 20 2 20 21
M  V30 21 2 7 22
M  V30 22 1 22 23
M  V30 23 2 23 24
M  V30 24 1 24 25
M  V30 25 1 25 26
M  V30 26 1 26 27
M  V30 27 1 27 28
M  V30 28 1 28 29
M  V30 29 1 29 30
M  V30 30 1 30 31
M  V30 31 1 24 5
M  V30 32 1 31 26
M  V30 33 1 21 12
M  V30 34 1 20 15
M  V30 35 1 6 32
M  V30 36 1 9 33
M  V30 37 1 9 34
M  V30 38 1 13 35
M  V30 39 1 14 36
M  V30 40 1 16 37
M  V30 41 1 17 38
M  V30 42 1 19 39
M  V30 43 1 21 40
M  V30 44 1 22 41
M  V30 45 1 23 42
M  V30 46 1 25 43
M  V30 47 1 25 44
M  V30 48 1 27 45
M  V30 49 1 27 46
M  V30 50 1 28 47
M  V30 51 1 28 48
M  V30 52 1 29 49
M  V30 53 1 30 50
M  V30 54 1 30 51
M  V30 55 1 31 52
M  V30 56 1 31 53
M  V30 END BOND
M  V30 END CTAB
M  END
>  <Dataset>  (716) 
ChEMBL_Kinases

>  <Ligand_Instance>  (716) 
nan

>  <PDB_ID>  (716) 
nan

>  <Standardized_SMILES>  (716) 
FC(F)(F)c1cc(OCC#Cc2ccc3ccncc3c2)ccc1CN1CCNCC1

>  <Name>  (716) 
nan

>  <Pocket>  (716) 
nan

>  <ATP_Site>  (716) 
nan

>  <Peripheral>  (716) 
nan

>  <Num_H_Atoms_ProtBoundConf>  (716) 
nan

>  <Num_Resolved_Atoms>  (716) 
nan

>  <Num_Not_Resolved_Atoms>  (716) 
nan

$$$$
CHEMBL3355063
     RDKit          3D

  0  0  0  0  0  0  0  0  0  0999 V3000
M  V30 BEGIN CTAB
M  V30 COUNTS 54 57 0 0 0
M  V30 BEGIN ATOM
M  V30 1 C -1.525878 -4.065577 3.709738 0
M  V30 2 O -1.861042 -3.357712 2.536848 0
M  V30 3 C -0.855018 -2.748954 1.813645 0
M  V30 4 C 0.489809 -2.754713 2.119880 0
M  V30 5 C 1.439707 -2.119322 1.348497 0
M  V30 6 O 2.760808 -2.198377 1.764335 0
M  V30 7 C 3.825112 -1.590620 1.059464 0
M  V30 8 C 3.638633 -0.127494 0.962207 0
M  V30 9 C 3.471276 1.066977 0.897569 0
M  V30 10 C 3.247388 2.486188 0.822094 0
M  V30 11 C 4.256641 3.396259 0.561365 0
M  V30 12 C 3.995222 4.768741 0.494420 0
M  V30 13 C 2.690011 5.157764 0.700624 0
M  V30 14 C 2.431766 6.518051 0.633256 0
M  V30 15 C 1.109967 6.933686 0.839538 0
M  V30 16 N 0.110640 6.065900 1.094987 0
M  V30 17 C 0.338387 4.724147 1.166374 0
M  V30 18 C 1.637692 4.307076 0.964189 0
M  V30 19 C 1.965487 2.965326 1.016439 0
M  V30 20 C 1.035930 -1.445227 0.217651 0
M  V30 21 C -0.311177 -1.449305 -0.074735 0
M  V30 22 C -1.317622 -2.078964 0.675235 0
M  V30 23 C -2.667464 -1.943811 0.136283 0
M  V30 24 N -3.202359 -3.021283 -0.602309 0
M  V30 25 C -3.348435 -4.268407 0.056519 0
M  V30 26 C -4.177885 -5.203695 -0.809413 0
M  V30 27 N -3.553645 -5.412709 -2.102656 0
M  V30 28 C -2.392841 -4.571770 -2.285269 0
M  V30 29 C -2.799465 -3.124937 -1.974702 0
M  V30 30 H -2.393752 -4.133148 4.411772 0
M  V30 31 H -0.704258 -3.601359 4.290763 0
M  V30 32 H -1.238620 -5.109462 3.411653 0
M  V30 33 H 0.802860 -3.281496 2.999189 0
M  V30 34 H 4.750796 -1.836929 1.596976 0
M  V30 35 H 3.855272 -2.041207 0.040854 0
M  V30 36 H 5.256639 3.023259 0.410028 0
M  V30 37 H 4.775871 5.479717 0.292443 0
M  V30 38 H 3.157207 7.308375 0.434443 0
M  V30 39 H 0.767347 7.981623 0.814107 0
M  V30 40 H -0.419840 3.981754 1.367625 0
M  V30 41 H 1.150246 2.257880 1.224625 0
M  V30 42 H 1.755477 -0.952364 -0.385186 0
M  V30 43 H -0.555425 -0.891346 -0.991838 0
M  V30 44 H -2.754316 -0.962607 -0.417274 0
M  V30 45 H -3.373185 -1.778871 1.012585 0
M  V30 46 H -3.945564 -4.137919 0.981814 0
M  V30 47 H -2.353731 -4.728846 0.235950 0
M  V30 48 H -5.190034 -4.797647 -0.923658 0
M  V30 49 H -4.225839 -6.184631 -0.303754 0
M  V30 50 H -4.221748 -5.219791 -2.869595 0
M  V30 51 H -2.151415 -4.566998 -3.380065 0
M  V30 52 H -1.535817 -4.864733 -1.661521 0
M  V30 53 H -2.042500 -2.411355 -2.309179 0
M  V30 54 H -3.706356 -2.962591 -2.616131 0
M  V30 END ATOM
M  V30 BEGIN BOND
M  V30 1 1 1 2
M  V30 2 1 2 3
M  V30 3 2 3 4
M  V30 4 1 4 5
M  V30 5 1 5 6
M  V30 6 1 6 7
M  V30 7 1 7 8
M  V30 8 3 8 9
M  V30 9 1 9 10
M  V30 10 2 10 11
M  V30 11 1 11 12
M  V30 12 2 12 13
M  V30 13 1 13 14
M  V30 14 2 14 15
M  V30 15 1 15 16
M  V30 16 2 16 17
M  V30 17 1 17 18
M  V30 18 2 18 19
M  V30 19 2 5 20
M  V30 20 1 20 21
M  V30 21 2 21 22
M  V30 22 1 22 23
M  V30 23 1 23 24
M  V30 24 1 24 25
M  V30 25 1 25 26
M  V30 26 1 26 27
M  V30 27 1 27 28
M  V30 28 1 28 29
M  V30 29 1 22 3
M  V30 30 1 29 24
M  V30 31 1 19 10
M  V30 32 1 18 13
M  V30 33 1 1 30
M  V30 34 1 1 31
M  V30 35 1 1 32
M  V30 36 1 4 33
M  V30 37 1 7 34
M  V30 38 1 7 35
M  V30 39 1 11 36
M  V30 40 1 12 37
M  V30 41 1 14 38
M  V30 42 1 15 39
M  V30 43 1 17 40
M  V30 44 1 19 41
M  V30 45 1 20 42
M  V30 46 1 21 43
M  V30 47 1 23 44
M  V30 48 1 23 45
M  V30 49 1 25 46
M  V30 50 1 25 47
M  V30 51 1 26 48
M  V30 52 1 26 49
M  V30 53 1 27 50
M  V30 54 1 28 51
M  V30 55 1 28 52
M  V30 56 1 29 53
M  V30 57 1 29 54
M  V30 END BOND
M  V30 END CTAB
M  END
>  <Dataset>  (717) 
ChEMBL_Kinases

>  <Ligand_Instance>  (717) 
nan

>  <PDB_ID>  (717) 
nan

>  <Standardized_SMILES>  (717) 
COc1cc(OCC#Cc2ccc3ccncc3c2)ccc1CN1CCNCC1

>  <Name>  (717) 
nan

>  <Pocket>  (717) 
nan

>  <ATP_Site>  (717) 
nan

>  <Peripheral>  (717) 
nan

>  <Num_H_Atoms_ProtBoundConf>  (717) 
nan

>  <Num_Resolved_Atoms>  (717) 
nan

>  <Num_Not_Resolved_Atoms>  (717) 
nan

$$$$
CHEMBL3355062
     RDKit          3D

  0  0  0  0  0  0  0  0  0  0999 V3000
M  V30 BEGIN CTAB
M  V30 COUNTS 45 47 0 0 0
M  V30 BEGIN ATOM
M  V30 1 C 0.707251 -6.988933 1.073993 0
M  V30 2 C 0.890189 -5.695780 0.315960 0
M  V30 3 O -0.171620 -4.843475 0.676511 0
M  V30 4 C -0.347124 -3.559768 0.183921 0
M  V30 5 C 0.545548 -3.025897 -0.722165 0
M  V30 6 C 0.381496 -1.730584 -1.227818 0
M  V30 7 O 1.344883 -1.312382 -2.129744 0
M  V30 8 C 1.258364 -0.015015 -2.688138 0
M  V30 9 C 1.314694 1.019395 -1.622933 0
M  V30 10 C 1.380767 1.856664 -0.751681 0
M  V30 11 C 1.476895 2.838658 0.296130 0
M  V30 12 C 2.442344 3.830340 0.216299 0
M  V30 13 C 2.522223 4.779533 1.244939 0
M  V30 14 C 1.644608 4.707935 2.307987 0
M  V30 15 C 1.666594 5.617740 3.365732 0
M  V30 16 C 0.773549 5.517851 4.415679 0
M  V30 17 N -0.140476 4.521762 4.422959 0
M  V30 18 C -0.229502 3.593968 3.431769 0
M  V30 19 C 0.682200 3.717098 2.385220 0
M  V30 20 C 0.584132 2.762910 1.374124 0
M  V30 21 C -0.719055 -1.047726 -0.757918 0
M  V30 22 C -1.608185 -1.573110 0.141408 0
M  V30 23 C -1.438769 -2.849828 0.634460 0
M  V30 24 C -2.416323 -3.392680 1.604248 0
M  V30 25 N -3.323408 -4.345459 0.972298 0
M  V30 26 H 1.659823 -7.544162 1.223293 0
M  V30 27 H 0.003459 -7.625409 0.488894 0
M  V30 28 H 0.278228 -6.836396 2.081272 0
M  V30 29 H 1.876900 -5.250495 0.546847 0
M  V30 30 H 0.794398 -5.920735 -0.760932 0
M  V30 31 H 1.368889 -3.631173 -1.028717 0
M  V30 32 H 2.097473 0.199202 -3.375595 0
M  V30 33 H 0.257001 0.031180 -3.203471 0
M  V30 34 H 3.130220 3.876054 -0.630601 0
M  V30 35 H 3.270316 5.579658 1.222681 0
M  V30 36 H 2.408023 6.423830 3.355637 0
M  V30 37 H 0.810186 6.245141 5.236338 0
M  V30 38 H -0.967889 2.818787 3.472251 0
M  V30 39 H -0.153816 1.951915 1.371232 0
M  V30 40 H -0.838553 -0.054678 -1.154382 0
M  V30 41 H -2.429547 -0.916816 0.421771 0
M  V30 42 H -3.036968 -2.569489 1.999715 0
M  V30 43 H -1.906045 -3.868025 2.481897 0
M  V30 44 H -4.168024 -3.824585 0.636983 0
M  V30 45 H -2.846515 -4.840027 0.171793 0
M  V30 END ATOM
M  V30 BEGIN BOND
M  V30 1 1 1 2
M  V30 2 1 2 3
M  V30 3 1 3 4
M  V30 4 2 4 5
M  V30 5 1 5 6
M  V30 6 1 6 7
M  V30 7 1 7 8
M  V30 8 1 8 9
M  V30 9 3 9 10
M  V30 10 1 10 11
M  V30 11 2 11 12
M  V30 12 1 12 13
M  V30 13 2 13 14
M  V30 14 1 14 15
M  V30 15 2 15 16
M  V30 16 1 16 17
M  V30 17 2 17 18
M  V30 18 1 18 19
M  V30 19 2 19 20
M  V30 20 2 6 21
M  V30 21 1 21 22
M  V30 22 2 22 23
M  V30 23 1 23 24
M  V30 24 1 24 25
M  V30 25 1 23 4
M  V30 26 1 20 11
M  V30 27 1 19 14
M  V30 28 1 1 26
M  V30 29 1 1 27
M  V30 30 1 1 28
M  V30 31 1 2 29
M  V30 32 1 2 30
M  V30 33 1 5 31
M  V30 34 1 8 32
M  V30 35 1 8 33
M  V30 36 1 12 34
M  V30 37 1 13 35
M  V30 38 1 15 36
M  V30 39 1 16 37
M  V30 40 1 18 38
M  V30 41 1 20 39
M  V30 42 1 21 40
M  V30 43 1 22 41
M  V30 44 1 24 42
M  V30 45 1 24 43
M  V30 46 1 25 44
M  V30 47 1 25 45
M  V30 END BOND
M  V30 END CTAB
M  END
>  <Dataset>  (718) 
ChEMBL_Kinases

>  <Ligand_Instance>  (718) 
nan

>  <PDB_ID>  (718) 
nan

>  <Standardized_SMILES>  (718) 
CCOc1cc(OCC#Cc2ccc3ccncc3c2)ccc1CN

>  <Name>  (718) 
nan

>  <Pocket>  (718) 
nan

>  <ATP_Site>  (718) 
nan

>  <Peripheral>  (718) 
nan

>  <Num_H_Atoms_ProtBoundConf>  (718) 
nan

>  <Num_Resolved_Atoms>  (718) 
nan

>  <Num_Not_Resolved_Atoms>  (718) 
nan

$$$$
CHEMBL3355061
     RDKit          3D

  0  0  0  0  0  0  0  0  0  0999 V3000
M  V30 BEGIN CTAB
M  V30 COUNTS 42 44 0 0 0
M  V30 BEGIN ATOM
M  V30 1 C -1.384066 -5.098587 3.803065 0
M  V30 2 O -0.333094 -4.171974 3.975006 0
M  V30 3 C 0.212692 -3.566813 2.852360 0
M  V30 4 C -0.251975 -3.854703 1.581296 0
M  V30 5 C 0.288447 -3.254654 0.459379 0
M  V30 6 O -0.151202 -3.518881 -0.827098 0
M  V30 7 C 0.392773 -2.910201 -1.979560 0
M  V30 8 C 0.231831 -1.435764 -1.923616 0
M  V30 9 C 0.088959 -0.234175 -1.860142 0
M  V30 10 C -0.094049 1.190819 -1.763835 0
M  V30 11 C -1.156347 1.808543 -2.414127 0
M  V30 12 C -1.278467 3.177635 -2.282927 0
M  V30 13 C -0.349187 3.858669 -1.520129 0
M  V30 14 C -0.448611 5.230177 -1.372229 0
M  V30 15 C 0.427017 5.972894 -0.638026 0
M  V30 16 N 1.437529 5.319797 -0.030453 0
M  V30 17 C 1.594145 3.987346 -0.131567 0
M  V30 18 C 0.703838 3.241048 -0.876707 0
M  V30 19 C 0.836710 1.868646 -1.000894 0
M  V30 20 C 1.319147 -2.355697 0.722104 0
M  V30 21 C 1.806010 -2.045630 1.973099 0
M  V30 22 C 1.234006 -2.671101 3.066247 0
M  V30 23 C 1.715045 -2.378344 4.430131 0
M  V30 24 N 2.539184 -3.491818 4.886449 0
M  V30 25 H -1.774607 -5.432415 4.789726 0
M  V30 26 H -2.201404 -4.677331 3.193086 0
M  V30 27 H -0.980078 -5.975142 3.247552 0
M  V30 28 H -1.047068 -4.553867 1.440647 0
M  V30 29 H 1.477961 -3.115142 -1.964511 0
M  V30 30 H -0.080308 -3.323716 -2.886076 0
M  V30 31 H -1.830310 1.192670 -2.986296 0
M  V30 32 H -2.100651 3.675143 -2.783573 0
M  V30 33 H -1.249447 5.793762 -1.845451 0
M  V30 34 H 0.405870 7.040231 -0.482349 0
M  V30 35 H 2.410211 3.433420 0.354793 0
M  V30 36 H 1.657734 1.376432 -0.500631 0
M  V30 37 H 1.810936 -1.834238 -0.081528 0
M  V30 38 H 2.597404 -1.351169 2.137369 0
M  V30 39 H 2.239294 -1.404028 4.509951 0
M  V30 40 H 0.845415 -2.316249 5.100904 0
M  V30 41 H 3.225253 -3.118101 5.589546 0
M  V30 42 H 3.078348 -3.870039 4.070729 0
M  V30 END ATOM
M  V30 BEGIN BOND
M  V30 1 1 1 2
M  V30 2 1 2 3
M  V30 3 2 3 4
M  V30 4 1 4 5
M  V30 5 1 5 6
M  V30 6 1 6 7
M  V30 7 1 7 8
M  V30 8 3 8 9
M  V30 9 1 9 10
M  V30 10 2 10 11
M  V30 11 1 11 12
M  V30 12 2 12 13
M  V30 13 1 13 14
M  V30 14 2 14 15
M  V30 15 1 15 16
M  V30 16 2 16 17
M  V30 17 1 17 18
M  V30 18 2 18 19
M  V30 19 2 5 20
M  V30 20 1 20 21
M  V30 21 2 21 22
M  V30 22 1 22 23
M  V30 23 1 23 24
M  V30 24 1 22 3
M  V30 25 1 19 10
M  V30 26 1 18 13
M  V30 27 1 1 25
M  V30 28 1 1 26
M  V30 29 1 1 27
M  V30 30 1 4 28
M  V30 31 1 7 29
M  V30 32 1 7 30
M  V30 33 1 11 31
M  V30 34 1 12 32
M  V30 35 1 14 33
M  V30 36 1 15 34
M  V30 37 1 17 35
M  V30 38 1 19 36
M  V30 39 1 20 37
M  V30 40 1 21 38
M  V30 41 1 23 39
M  V30 42 1 23 40
M  V30 43 1 24 41
M  V30 44 1 24 42
M  V30 END BOND
M  V30 END CTAB
M  END
>  <Dataset>  (719) 
ChEMBL_Kinases

>  <Ligand_Instance>  (719) 
nan

>  <PDB_ID>  (719) 
nan

>  <Standardized_SMILES>  (719) 
COc1cc(OCC#Cc2ccc3ccncc3c2)ccc1CN

>  <Name>  (719) 
nan

>  <Pocket>  (719) 
nan

>  <ATP_Site>  (719) 
nan

>  <Peripheral>  (719) 
nan

>  <Num_H_Atoms_ProtBoundConf>  (719) 
nan

>  <Num_Resolved_Atoms>  (719) 
nan

>  <Num_Not_Resolved_Atoms>  (719) 
nan

$$$$
CHEMBL3577864
     RDKit          3D

  0  0  0  0  0  0  0  0  0  0999 V3000
M  V30 BEGIN CTAB
M  V30 COUNTS 42 44 0 0 0
M  V30 BEGIN ATOM
M  V30 1 C -1.647846 -2.439813 1.783914 0
M  V30 2 C -1.635709 -3.461801 0.687595 0
M  V30 3 C -1.424315 -4.825579 1.357026 0
M  V30 4 N -0.597382 -3.297154 -0.284566 0
M  V30 5 C -0.273098 -4.354051 -1.054137 0
M  V30 6 O -0.807575 -5.491809 -0.996475 0
M  V30 7 C 0.713167 -4.295553 -2.018646 0
M  V30 8 C 1.420521 -3.122671 -2.234926 0
M  V30 9 C 1.095383 -2.035599 -1.451824 0
M  V30 10 C 1.777860 -0.852978 -1.639137 0
M  V30 11 N 1.423725 0.180929 -0.849382 0
M  V30 12 C 0.450460 0.073500 0.081515 0
M  V30 13 N 0.124846 1.203650 0.883095 0
M  V30 14 C 0.853986 2.444607 0.673501 0
M  V30 15 C 0.327099 3.486160 1.639709 0
M  V30 16 C 1.325651 3.902479 2.677135 0
M  V30 17 N 1.950490 2.780898 3.336916 0
M  V30 18 C 2.340016 1.715150 2.459031 0
M  V30 19 C 2.330431 2.267056 1.040088 0
M  V30 20 N -0.203067 -1.091195 0.247335 0
M  V30 21 C 0.097739 -2.165812 -0.506053 0
M  V30 22 H -0.665868 -2.268151 2.263062 0
M  V30 23 H -2.168943 -1.494855 1.526280 0
M  V30 24 H -2.288763 -2.883261 2.601730 0
M  V30 25 H -2.655789 -3.499067 0.267313 0
M  V30 26 H -1.711778 -4.765890 2.447779 0
M  V30 27 H -2.098872 -5.602392 0.948654 0
M  V30 28 H -0.386722 -5.177680 1.281004 0
M  V30 29 H 1.010603 -5.114565 -2.661276 0
M  V30 30 H 2.197322 -3.050642 -2.983678 0
M  V30 31 H 2.560837 -0.740754 -2.377177 0
M  V30 32 H -0.626002 1.126545 1.603663 0
M  V30 33 H 0.825739 2.766024 -0.380284 0
M  V30 34 H -0.599192 3.177716 2.142398 0
M  V30 35 H 0.122385 4.392859 1.013183 0
M  V30 36 H 0.726845 4.416549 3.485227 0
M  V30 37 H 2.046701 4.675038 2.324076 0
M  V30 38 H 1.390346 2.450322 4.135486 0
M  V30 39 H 3.341501 1.309673 2.706479 0
M  V30 40 H 1.552820 0.936194 2.507533 0
M  V30 41 H 2.880371 1.636104 0.344289 0
M  V30 42 H 2.768969 3.297270 1.004260 0
M  V30 END ATOM
M  V30 BEGIN BOND
M  V30 1 1 1 2
M  V30 2 1 2 3
M  V30 3 1 2 4
M  V30 4 1 4 5
M  V30 5 2 5 6
M  V30 6 1 5 7
M  V30 7 2 7 8
M  V30 8 1 8 9
M  V30 9 2 9 10
M  V30 10 1 10 11
M  V30 11 2 11 12
M  V30 12 1 12 13
M  V30 13 1 13 14
M  V30 14 1 14 15
M  V30 15 1 15 16
M  V30 16 1 16 17
M  V30 17 1 17 18
M  V30 18 1 18 19
M  V30 19 1 12 20
M  V30 20 2 20 21
M  V30 21 1 21 4
M  V30 22 1 21 9
M  V30 23 1 19 14
M  V30 24 1 1 22
M  V30 25 1 1 23
M  V30 26 1 1 24
M  V30 27 1 2 25
M  V30 28 1 3 26
M  V30 29 1 3 27
M  V30 30 1 3 28
M  V30 31 1 7 29
M  V30 32 1 8 30
M  V30 33 1 10 31
M  V30 34 1 13 32
M  V30 35 1 14 33
M  V30 36 1 15 34
M  V30 37 1 15 35
M  V30 38 1 16 36
M  V30 39 1 16 37
M  V30 40 1 17 38
M  V30 41 1 18 39
M  V30 42 1 18 40
M  V30 43 1 19 41
M  V30 44 1 19 42
M  V30 END BOND
M  V30 END CTAB
M  END
>  <Dataset>  (720) 
ChEMBL_Kinases

>  <Ligand_Instance>  (720) 
nan

>  <PDB_ID>  (720) 
nan

>  <Standardized_SMILES>  (720) 
CC(C)n1c(=O)ccc2cnc(NC3CCNCC3)nc21

>  <Name>  (720) 
nan

>  <Pocket>  (720) 
nan

>  <ATP_Site>  (720) 
nan

>  <Peripheral>  (720) 
nan

>  <Num_H_Atoms_ProtBoundConf>  (720) 
nan

>  <Num_Resolved_Atoms>  (720) 
nan

>  <Num_Not_Resolved_Atoms>  (720) 
nan

$$$$
CHEMBL3355058
     RDKit          3D

  0  0  0  0  0  0  0  0  0  0999 V3000
M  V30 BEGIN CTAB
M  V30 COUNTS 45 48 0 0 0
M  V30 BEGIN ATOM
M  V30 1 O 0.018260 0.613529 0.834218 0
M  V30 2 C -0.356933 -0.442995 1.440710 0
M  V30 3 N 0.635623 -1.453689 1.507747 0
M  V30 4 C 1.875795 -1.113402 0.886743 0
M  V30 5 C 2.895103 -0.496097 1.583924 0
M  V30 6 C 4.125996 -0.127275 1.076559 0
M  V30 7 C 4.312940 -0.422715 -0.258265 0
M  V30 8 C 3.343732 -1.046248 -1.051454 0
M  V30 9 C 2.120717 -1.385647 -0.451525 0
M  V30 10 C 3.430160 -1.408562 -2.481922 0
M  V30 11 C 4.003473 -0.315674 -3.334164 0
M  V30 12 N 4.336122 0.812193 -2.498636 0
M  V30 13 C 5.689570 0.626997 -2.039823 0
M  V30 14 C 5.663081 0.014476 -0.700173 0
M  V30 15 C -1.708013 -0.512873 1.984306 0
M  V30 16 C -2.483980 0.611082 1.792195 0
M  V30 17 C -3.794648 0.634410 2.278720 0
M  V30 18 C -4.260795 -0.484833 2.939419 0
M  V30 19 C -5.607859 -0.577633 3.489304 0
M  V30 20 C -5.976956 -1.308851 4.623769 0
M  V30 21 N -7.312474 -1.167678 4.843331 0
M  V30 22 N -7.804255 -0.370835 3.885959 0
M  V30 23 C -6.799598 -0.009096 3.068316 0
M  V30 24 C -3.437348 -1.601059 3.110320 0
M  V30 25 C -2.142499 -1.626563 2.630720 0
M  V30 26 H 0.350349 -2.344576 2.008245 0
M  V30 27 H 2.670282 -0.297995 2.626469 0
M  V30 28 H 4.878601 0.353932 1.681109 0
M  V30 29 H 1.370002 -1.868063 -1.062557 0
M  V30 30 H 2.409538 -1.623438 -2.838422 0
M  V30 31 H 4.024549 -2.334023 -2.622517 0
M  V30 32 H 4.901965 -0.682051 -3.871786 0
M  V30 33 H 3.287917 0.033280 -4.119004 0
M  V30 34 H 4.159875 1.727663 -2.947663 0
M  V30 35 H 6.134966 1.640340 -1.986676 0
M  V30 36 H 6.303275 0.050373 -2.758956 0
M  V30 37 H 6.345386 -0.882838 -0.634728 0
M  V30 38 H 6.085588 0.720262 0.043470 0
M  V30 39 H -2.154133 1.520963 1.273910 0
M  V30 40 H -4.440271 1.495511 2.151361 0
M  V30 41 H -5.335599 -1.921014 5.276316 0
M  V30 42 H -8.797380 -0.050933 3.750852 0
M  V30 43 H -6.777516 0.623477 2.178704 0
M  V30 44 H -3.813585 -2.471169 3.629390 0
M  V30 45 H -1.540190 -2.503667 2.782326 0
M  V30 END ATOM
M  V30 BEGIN BOND
M  V30 1 2 1 2
M  V30 2 1 2 3
M  V30 3 1 3 4
M  V30 4 2 4 5
M  V30 5 1 5 6
M  V30 6 2 6 7
M  V30 7 1 7 8
M  V30 8 2 8 9
M  V30 9 1 8 10
M  V30 10 1 10 11
M  V30 11 1 11 12
M  V30 12 1 12 13
M  V30 13 1 13 14
M  V30 14 1 2 15
M  V30 15 2 15 16
M  V30 16 1 16 17
M  V30 17 2 17 18
M  V30 18 1 18 19
M  V30 19 1 19 20
M  V30 20 2 20 21
M  V30 21 1 21 22
M  V30 22 1 22 23
M  V30 23 1 18 24
M  V30 24 2 24 25
M  V30 25 1 9 4
M  V30 26 1 25 15
M  V30 27 1 14 7
M  V30 28 2 23 19
M  V30 29 1 3 26
M  V30 30 1 5 27
M  V30 31 1 6 28
M  V30 32 1 9 29
M  V30 33 1 10 30
M  V30 34 1 10 31
M  V30 35 1 11 32
M  V30 36 1 11 33
M  V30 37 1 12 34
M  V30 38 1 13 35
M  V30 39 1 13 36
M  V30 40 1 14 37
M  V30 41 1 14 38
M  V30 42 1 16 39
M  V30 43 1 17 40
M  V30 44 1 20 41
M  V30 45 1 22 42
M  V30 46 1 23 43
M  V30 47 1 24 44
M  V30 48 1 25 45
M  V30 END BOND
M  V30 END CTAB
M  END
>  <Dataset>  (721) 
ChEMBL_Kinases

>  <Ligand_Instance>  (721) 
nan

>  <PDB_ID>  (721) 
nan

>  <Standardized_SMILES>  (721) 
O=C(Nc1ccc2c(c1)CCNCC2)c1ccc(-c2cn[nH]c2)cc1

>  <Name>  (721) 
nan

>  <Pocket>  (721) 
nan

>  <ATP_Site>  (721) 
nan

>  <Peripheral>  (721) 
nan

>  <Num_H_Atoms_ProtBoundConf>  (721) 
nan

>  <Num_Resolved_Atoms>  (721) 
nan

>  <Num_Not_Resolved_Atoms>  (721) 
nan

$$$$
CHEMBL3355056
     RDKit          3D

  0  0  0  0  0  0  0  0  0  0999 V3000
M  V30 BEGIN CTAB
M  V30 COUNTS 45 47 0 0 0
M  V30 BEGIN ATOM
M  V30 1 N 0.907224 -5.484722 0.947036 0
M  V30 2 C 1.276881 -4.095595 0.902736 0
M  V30 3 C 1.269752 -3.615268 -0.530159 0
M  V30 4 C 1.655920 -2.153476 -0.610358 0
M  V30 5 O 0.779050 -1.315362 0.108768 0
M  V30 6 C 0.975536 0.054804 0.149184 0
M  V30 7 C 2.029511 0.592561 -0.514515 0
M  V30 8 C 2.254537 1.950278 -0.495575 0
M  V30 9 C 3.359703 2.614476 -1.176405 0
M  V30 10 C 4.622041 2.099923 -1.402882 0
M  V30 11 N 5.332866 3.031626 -2.058240 0
M  V30 12 N 4.608885 4.127431 -2.274395 0
M  V30 13 C 3.384291 3.876234 -1.730473 0
M  V30 14 C 1.353279 2.701400 0.228222 0
M  V30 15 C 0.290520 2.136758 0.894477 0
M  V30 16 C 0.063911 0.772421 0.875968 0
M  V30 17 C -1.091803 0.311167 1.621698 0
M  V30 18 O -1.834166 1.107100 2.240082 0
M  V30 19 N -1.582272 -1.007582 1.794928 0
M  V30 20 C -2.762246 -1.111106 2.603081 0
M  V30 21 C -2.649326 -1.282255 3.972579 0
M  V30 22 C -3.769966 -1.385119 4.770244 0
M  V30 23 C -5.028257 -1.313654 4.172225 0
M  V30 24 C -5.142998 -1.143237 2.808709 0
M  V30 25 C -4.021284 -1.039048 2.000703 0
M  V30 26 H -0.112107 -5.615397 0.841368 0
M  V30 27 H 1.383464 -5.993127 0.171400 0
M  V30 28 H 2.316596 -3.960104 1.268071 0
M  V30 29 H 0.581369 -3.515763 1.540193 0
M  V30 30 H 0.270979 -3.825483 -0.979819 0
M  V30 31 H 2.016336 -4.203014 -1.098968 0
M  V30 32 H 1.681035 -1.876953 -1.685985 0
M  V30 33 H 2.699963 -2.087565 -0.241846 0
M  V30 34 H 2.699962 -0.030098 -1.061214 0
M  V30 35 H 5.011306 1.145450 -1.128732 0
M  V30 36 H 4.922657 4.997362 -2.761885 0
M  V30 37 H 2.543841 4.579826 -1.735647 0
M  V30 38 H 1.485690 3.772006 0.274314 0
M  V30 39 H -0.376006 2.818145 1.446037 0
M  V30 40 H -1.056031 -1.777236 1.330450 0
M  V30 41 H -1.644547 -1.333258 4.401844 0
M  V30 42 H -3.702272 -1.518805 5.839448 0
M  V30 43 H -5.946588 -1.390909 4.770621 0
M  V30 44 H -6.094626 -1.082625 2.303166 0
M  V30 45 H -4.133774 -0.905210 0.929692 0
M  V30 END ATOM
M  V30 BEGIN BOND
M  V30 1 1 1 2
M  V30 2 1 2 3
M  V30 3 1 3 4
M  V30 4 1 4 5
M  V30 5 1 5 6
M  V30 6 2 6 7
M  V30 7 1 7 8
M  V30 8 1 8 9
M  V30 9 1 9 10
M  V30 10 2 10 11
M  V30 11 1 11 12
M  V30 12 1 12 13
M  V30 13 2 8 14
M  V30 14 1 14 15
M  V30 15 2 15 16
M  V30 16 1 16 17
M  V30 17 2 17 18
M  V30 18 1 17 19
M  V30 19 1 19 20
M  V30 20 2 20 21
M  V30 21 1 21 22
M  V30 22 2 22 23
M  V30 23 1 23 24
M  V30 24 2 24 25
M  V30 25 1 16 6
M  V30 26 1 25 20
M  V30 27 2 13 9
M  V30 28 1 1 26
M  V30 29 1 1 27
M  V30 30 1 2 28
M  V30 31 1 2 29
M  V30 32 1 3 30
M  V30 33 1 3 31
M  V30 34 1 4 32
M  V30 35 1 4 33
M  V30 36 1 7 34
M  V30 37 1 10 35
M  V30 38 1 12 36
M  V30 39 1 13 37
M  V30 40 1 14 38
M  V30 41 1 15 39
M  V30 42 1 19 40
M  V30 43 1 21 41
M  V30 44 1 22 42
M  V30 45 1 23 43
M  V30 46 1 24 44
M  V30 47 1 25 45
M  V30 END BOND
M  V30 END CTAB
M  END
>  <Dataset>  (722) 
ChEMBL_Kinases

>  <Ligand_Instance>  (722) 
nan

>  <PDB_ID>  (722) 
nan

>  <Standardized_SMILES>  (722) 
NCCCOc1cc(-c2cn[nH]c2)ccc1C(=O)Nc1ccccc1

>  <Name>  (722) 
nan

>  <Pocket>  (722) 
nan

>  <ATP_Site>  (722) 
nan

>  <Peripheral>  (722) 
nan

>  <Num_H_Atoms_ProtBoundConf>  (722) 
nan

>  <Num_Resolved_Atoms>  (722) 
nan

>  <Num_Not_Resolved_Atoms>  (722) 
nan

$$$$
CHEMBL3355055
     RDKit          3D

  0  0  0  0  0  0  0  0  0  0999 V3000
M  V30 BEGIN CTAB
M  V30 COUNTS 55 57 0 0 0
M  V30 BEGIN ATOM
M  V30 1 C 3.234612 -5.838810 1.263720 0
M  V30 2 O 2.936008 -4.668608 0.593898 0
M  V30 3 C 2.401251 -4.454224 -0.622538 0
M  V30 4 C 2.014849 -5.493468 -1.528212 0
M  V30 5 C 1.467553 -5.143572 -2.767405 0
M  V30 6 O 1.110429 -6.212881 -3.626614 0
M  V30 7 C 1.274979 -3.839838 -3.165631 0
M  V30 8 C 1.627931 -2.801412 -2.321846 0
M  V30 9 N 1.432092 -1.474417 -2.729885 0
M  V30 10 C 0.943362 -0.374521 -1.984888 0
M  V30 11 C 0.996510 0.940337 -2.383765 0
M  V30 12 C 0.475528 1.974388 -1.638494 0
M  V30 13 C -0.148023 1.670252 -0.392601 0
M  V30 14 C -0.530808 2.909477 0.221354 0
M  V30 15 O -0.494868 4.099780 -0.188137 0
M  V30 16 N -1.083656 3.089097 1.547814 0
M  V30 17 C -1.573671 3.999711 2.486615 0
M  V30 18 C -0.696879 4.502794 3.396766 0
M  V30 19 C -1.029449 5.427892 4.415627 0
M  V30 20 C -2.368971 5.728169 4.336541 0
M  V30 21 C -3.361234 5.289742 3.470702 0
M  V30 22 C -2.907560 4.390594 2.517751 0
M  V30 23 C -0.227986 0.376267 0.052815 0
M  V30 24 O -0.787599 0.144336 1.154899 0
M  V30 25 C -1.244425 -0.606842 2.187982 0
M  V30 26 C -2.303395 -1.643211 1.954346 0
M  V30 27 C -1.988155 -2.711173 0.960753 0
M  V30 28 N -0.809546 -3.484593 1.290823 0
M  V30 29 C 0.320194 -0.578247 -0.763783 0
M  V30 30 C 2.148268 -3.228964 -1.156299 0
M  V30 31 H 3.069505 -6.718624 0.575570 0
M  V30 32 H 2.522186 -5.993844 2.108124 0
M  V30 33 H 4.263329 -5.950454 1.658655 0
M  V30 34 H 2.171738 -6.510869 -1.232999 0
M  V30 35 H 1.822015 -6.939814 -3.744717 0
M  V30 36 H 0.830252 -3.708620 -4.156282 0
M  V30 37 H 1.695365 -1.312603 -3.731245 0
M  V30 38 H 1.476831 1.130458 -3.340335 0
M  V30 39 H 0.571323 2.987570 -2.073845 0
M  V30 40 H -1.205887 2.231074 2.138008 0
M  V30 41 H 0.364555 4.205473 3.380697 0
M  V30 42 H -0.338985 5.826649 5.131974 0
M  V30 43 H -2.746448 6.445640 5.097029 0
M  V30 44 H -4.370731 5.639914 3.570861 0
M  V30 45 H -3.596978 3.987700 1.801833 0
M  V30 46 H -0.441997 -1.113451 2.795181 0
M  V30 47 H -1.740706 0.118499 2.927901 0
M  V30 48 H -3.293318 -1.180801 1.686617 0
M  V30 49 H -2.507489 -2.209004 2.930436 0
M  V30 50 H -1.885131 -2.273025 -0.035836 0
M  V30 51 H -2.858727 -3.424712 0.965649 0
M  V30 52 H -1.123558 -4.459675 1.603079 0
M  V30 53 H -0.309799 -3.677445 0.366998 0
M  V30 54 H 0.286709 -1.597099 -0.438067 0
M  V30 55 H 2.463689 -2.431928 -0.460349 0
M  V30 END ATOM
M  V30 BEGIN BOND
M  V30 1 1 1 2
M  V30 2 1 2 3
M  V30 3 2 3 4
M  V30 4 1 4 5
M  V30 5 1 5 6
M  V30 6 2 5 7
M  V30 7 1 7 8
M  V30 8 1 8 9
M  V30 9 1 9 10
M  V30 10 2 10 11
M  V30 11 1 11 12
M  V30 12 2 12 13
M  V30 13 1 13 14
M  V30 14 2 14 15
M  V30 15 1 14 16
M  V30 16 1 16 17
M  V30 17 2 17 18
M  V30 18 1 18 19
M  V30 19 2 19 20
M  V30 20 1 20 21
M  V30 21 2 21 22
M  V30 22 1 13 23
M  V30 23 1 23 24
M  V30 24 1 24 25
M  V30 25 1 25 26
M  V30 26 1 26 27
M  V30 27 1 27 28
M  V30 28 2 23 29
M  V30 29 2 8 30
M  V30 30 1 30 3
M  V30 31 1 29 10
M  V30 32 1 22 17
M  V30 33 1 1 31
M  V30 34 1 1 32
M  V30 35 1 1 33
M  V30 36 1 4 34
M  V30 37 1 6 35
M  V30 38 1 7 36
M  V30 39 1 9 37
M  V30 40 1 11 38
M  V30 41 1 12 39
M  V30 42 1 16 40
M  V30 43 1 18 41
M  V30 44 1 19 42
M  V30 45 1 20 43
M  V30 46 1 21 44
M  V30 47 1 22 45
M  V30 48 1 25 46
M  V30 49 1 25 47
M  V30 50 1 26 48
M  V30 51 1 26 49
M  V30 52 1 27 50
M  V30 53 1 27 51
M  V30 54 1 28 52
M  V30 55 1 28 53
M  V30 56 1 29 54
M  V30 57 1 30 55
M  V30 END BOND
M  V30 END CTAB
M  END
>  <Dataset>  (723) 
ChEMBL_Kinases

>  <Ligand_Instance>  (723) 
nan

>  <PDB_ID>  (723) 
nan

>  <Standardized_SMILES>  (723) 
COc1cc(O)cc(Nc2ccc(C(=O)Nc3ccccc3)c(OCCCN)c2)c1

>  <Name>  (723) 
nan

>  <Pocket>  (723) 
nan

>  <ATP_Site>  (723) 
nan

>  <Peripheral>  (723) 
nan

>  <Num_H_Atoms_ProtBoundConf>  (723) 
nan

>  <Num_Resolved_Atoms>  (723) 
nan

>  <Num_Not_Resolved_Atoms>  (723) 
nan

$$$$
CHEMBL3355054
     RDKit          3D

  0  0  0  0  0  0  0  0  0  0999 V3000
M  V30 BEGIN CTAB
M  V30 COUNTS 52 55 0 0 0
M  V30 BEGIN ATOM
M  V30 1 C 5.723790 -5.778107 3.913619 0
M  V30 2 O 4.908178 -4.700512 3.531018 0
M  V30 3 C 5.407431 -3.516969 3.051361 0
M  V30 4 C 6.763737 -3.357878 2.931795 0
M  V30 5 C 7.240099 -2.167331 2.450430 0
M  V30 6 O 8.607869 -1.924256 2.298136 0
M  V30 7 C 6.391052 -1.150480 2.092730 0
M  V30 8 C 5.021774 -1.255461 2.191598 0
M  V30 9 N 4.177604 -0.187017 1.831138 0
M  V30 10 C 2.814755 -0.130418 1.446383 0
M  V30 11 C 2.084908 1.032982 1.578148 0
M  V30 12 C 0.764349 1.109778 1.194795 0
M  V30 13 C 0.099649 0.027531 0.658131 0
M  V30 14 C -1.298222 0.076687 0.242905 0
M  V30 15 O -1.881867 -0.937002 -0.249323 0
M  V30 16 N -2.103005 1.233885 0.351917 0
M  V30 17 C -3.429592 0.949616 -0.144186 0
M  V30 18 C -4.401224 0.473353 0.719691 0
M  V30 19 C -5.673989 0.194240 0.272395 0
M  V30 20 C -5.907208 0.415998 -1.059428 0
M  V30 21 C -4.977566 0.888510 -1.963020 0
M  V30 22 C -3.699846 1.161621 -1.481496 0
M  V30 23 C -5.371042 1.079754 -3.373307 0
M  V30 24 N -6.603553 1.810490 -3.424788 0
M  V30 25 C -7.559378 1.470180 -2.425679 0
M  V30 26 C -7.247433 0.159006 -1.699212 0
M  V30 27 C 0.794947 -1.155256 0.509481 0
M  V30 28 C 2.116418 -1.191227 0.905449 0
M  V30 29 C 4.593523 -2.469686 2.680584 0
M  V30 30 H 6.636958 -5.447948 4.442965 0
M  V30 31 H 5.084750 -6.421466 4.573790 0
M  V30 32 H 6.012044 -6.442736 3.064704 0
M  V30 33 H 7.504207 -4.096050 3.185975 0
M  V30 34 H 9.267639 -2.521425 2.786154 0
M  V30 35 H 6.797400 -0.203680 1.708792 0
M  V30 36 H 4.649281 0.756048 1.850463 0
M  V30 37 H 2.575333 1.905268 1.996673 0
M  V30 38 H 0.248817 2.050789 1.324547 0
M  V30 39 H -1.704187 2.113088 0.745845 0
M  V30 40 H -4.158957 0.315143 1.772848 0
M  V30 41 H -6.464514 -0.179310 0.911285 0
M  V30 42 H -2.946715 1.534551 -2.168227 0
M  V30 43 H -4.599544 1.541983 -3.988259 0
M  V30 44 H -5.595921 0.049247 -3.773013 0
M  V30 45 H -6.385353 2.828429 -3.339636 0
M  V30 46 H -7.588095 2.236656 -1.597945 0
M  V30 47 H -8.571178 1.397374 -2.854142 0
M  V30 48 H -7.147483 -0.694720 -2.402342 0
M  V30 49 H -8.017977 0.028415 -0.939548 0
M  V30 50 H 0.284002 -2.008091 0.090599 0
M  V30 51 H 2.588277 -2.137698 0.748231 0
M  V30 52 H 3.539401 -2.662442 2.812662 0
M  V30 END ATOM
M  V30 BEGIN BOND
M  V30 1 1 1 2
M  V30 2 1 2 3
M  V30 3 2 3 4
M  V30 4 1 4 5
M  V30 5 1 5 6
M  V30 6 2 5 7
M  V30 7 1 7 8
M  V30 8 1 8 9
M  V30 9 1 9 10
M  V30 10 2 10 11
M  V30 11 1 11 12
M  V30 12 2 12 13
M  V30 13 1 13 14
M  V30 14 2 14 15
M  V30 15 1 14 16
M  V30 16 1 16 17
M  V30 17 2 17 18
M  V30 18 1 18 19
M  V30 19 2 19 20
M  V30 20 1 20 21
M  V30 21 2 21 22
M  V30 22 1 21 23
M  V30 23 1 23 24
M  V30 24 1 24 25
M  V30 25 1 25 26
M  V30 26 1 13 27
M  V30 27 2 27 28
M  V30 28 2 8 29
M  V30 29 1 29 3
M  V30 30 1 28 10
M  V30 31 1 22 17
M  V30 32 1 26 20
M  V30 33 1 1 30
M  V30 34 1 1 31
M  V30 35 1 1 32
M  V30 36 1 4 33
M  V30 37 1 6 34
M  V30 38 1 7 35
M  V30 39 1 9 36
M  V30 40 1 11 37
M  V30 41 1 12 38
M  V30 42 1 16 39
M  V30 43 1 18 40
M  V30 44 1 19 41
M  V30 45 1 22 42
M  V30 46 1 23 43
M  V30 47 1 23 44
M  V30 48 1 24 45
M  V30 49 1 25 46
M  V30 50 1 25 47
M  V30 51 1 26 48
M  V30 52 1 26 49
M  V30 53 1 27 50
M  V30 54 1 28 51
M  V30 55 1 29 52
M  V30 END BOND
M  V30 END CTAB
M  END
>  <Dataset>  (724) 
ChEMBL_Kinases

>  <Ligand_Instance>  (724) 
nan

>  <PDB_ID>  (724) 
nan

>  <Standardized_SMILES>  (724) 
COc1cc(O)cc(Nc2ccc(C(=O)Nc3ccc4c(c3)CNCC4)cc2)c1

>  <Name>  (724) 
nan

>  <Pocket>  (724) 
nan

>  <ATP_Site>  (724) 
nan

>  <Peripheral>  (724) 
nan

>  <Num_H_Atoms_ProtBoundConf>  (724) 
nan

>  <Num_Resolved_Atoms>  (724) 
nan

>  <Num_Not_Resolved_Atoms>  (724) 
nan

$$$$
CHEMBL3355046
     RDKit          3D

  0  0  0  0  0  0  0  0  0  0999 V3000
M  V30 BEGIN CTAB
M  V30 COUNTS 64 69 0 0 0
M  V30 BEGIN ATOM
M  V30 1 C 3.892327 -0.446859 5.613893 0
M  V30 2 O 2.800640 0.271516 5.195125 0
M  V30 3 C 2.571207 1.055163 4.109282 0
M  V30 4 C 3.566415 1.238988 3.145815 0
M  V30 5 C 3.283529 2.047831 2.035825 0
M  V30 6 N 4.190075 2.265498 1.083003 0
M  V30 7 C 3.881234 3.047049 0.029451 0
M  V30 8 N 2.664803 3.604756 -0.060902 0
M  V30 9 C 1.692738 3.419812 0.884335 0
M  V30 10 N 0.437715 4.028754 0.557998 0
M  V30 11 C -0.324885 2.916723 0.087115 0
M  V30 12 C -1.528960 2.511489 0.643838 0
M  V30 13 C -2.270260 1.410560 0.299709 0
M  V30 14 C -1.807173 0.578772 -0.710164 0
M  V30 15 C -0.593976 0.942463 -1.316387 0
M  V30 16 C 0.105972 2.062310 -0.928832 0
M  V30 17 F 1.227071 2.325534 -1.593617 0
M  V30 18 C -0.187616 -0.028139 -2.357554 0
M  V30 19 C -1.565620 -0.665861 -2.630039 0
M  V30 20 N -2.183152 -0.667364 -1.318506 0
M  V30 21 C -2.978399 -1.610233 -0.599586 0
M  V30 22 O -3.354354 -1.210274 0.572262 0
M  V30 23 C -3.497561 -2.948402 -0.821485 0
M  V30 24 C -2.663770 -3.846077 -1.647965 0
M  V30 25 C -2.562214 -4.128455 -3.019110 0
M  V30 26 C -3.515189 -3.478443 -3.971562 0
M  V30 27 N -1.560158 -4.986042 -3.279760 0
M  V30 28 C -0.947800 -5.320462 -2.118997 0
M  V30 29 C 0.126454 -6.127243 -1.801320 0
M  V30 30 C 0.570014 -6.271574 -0.484894 0
M  V30 31 C -0.088603 -5.583397 0.536067 0
M  V30 32 C -1.145021 -4.802577 0.150484 0
M  V30 33 C -1.618048 -4.629517 -1.131919 0
M  V30 34 C 2.046897 2.614114 1.956141 0
M  V30 35 C 1.067226 2.446569 2.887021 0
M  V30 36 C 1.318941 1.664158 3.976552 0
M  V30 37 O 0.415529 1.413044 4.997206 0
M  V30 38 C -0.869872 1.990651 4.935143 0
M  V30 39 H 3.721617 -1.555938 5.677870 0
M  V30 40 H 4.307470 -0.153697 6.608884 0
M  V30 41 H 4.747252 -0.339818 4.895339 0
M  V30 42 H 4.531186 0.762289 3.257800 0
M  V30 43 H 4.633846 3.216366 -0.751860 0
M  V30 44 H 0.102028 5.010972 0.628823 0
M  V30 45 H -1.943453 3.136005 1.452412 0
M  V30 46 H -3.206076 1.122934 0.752469 0
M  V30 47 H 0.144038 0.453285 -3.263411 0
M  V30 48 H 0.499945 -0.798609 -1.943128 0
M  V30 49 H -2.083078 -0.091493 -3.378921 0
M  V30 50 H -1.272291 -1.700952 -2.945608 0
M  V30 51 H -3.640555 -3.477433 0.142647 0
M  V30 52 H -4.531371 -2.886012 -1.261020 0
M  V30 53 H -4.503217 -3.354644 -3.482082 0
M  V30 54 H -3.554768 -4.085571 -4.906839 0
M  V30 55 H -3.060513 -2.494585 -4.243786 0
M  V30 56 H -1.329834 -5.313946 -4.243449 0
M  V30 57 H 0.641448 -6.662055 -2.589626 0
M  V30 58 H 1.417589 -6.904532 -0.219548 0
M  V30 59 H 0.198995 -5.646062 1.587339 0
M  V30 60 H -1.654534 -4.267491 0.960174 0
M  V30 61 H 0.105326 2.911643 2.827193 0
M  V30 62 H -1.415148 1.892357 5.903590 0
M  V30 63 H -1.482184 1.492356 4.132091 0
M  V30 64 H -0.759407 3.044415 4.632696 0
M  V30 END ATOM
M  V30 BEGIN BOND
M  V30 1 1 1 2
M  V30 2 1 2 3
M  V30 3 2 3 4
M  V30 4 1 4 5
M  V30 5 2 5 6
M  V30 6 1 6 7
M  V30 7 2 7 8
M  V30 8 1 8 9
M  V30 9 1 9 10
M  V30 10 1 10 11
M  V30 11 2 11 12
M  V30 12 1 12 13
M  V30 13 2 13 14
M  V30 14 1 14 15
M  V30 15 2 15 16
M  V30 16 1 16 17
M  V30 17 1 15 18
M  V30 18 1 18 19
M  V30 19 1 19 20
M  V30 20 1 20 21
M  V30 21 2 21 22
M  V30 22 1 21 23
M  V30 23 1 23 24
M  V30 24 2 24 25
M  V30 25 1 25 26
M  V30 26 1 25 27
M  V30 27 1 27 28
M  V30 28 2 28 29
M  V30 29 1 29 30
M  V30 30 2 30 31
M  V30 31 1 31 32
M  V30 32 2 32 33
M  V30 33 2 9 34
M  V30 34 1 34 35
M  V30 35 2 35 36
M  V30 36 1 36 37
M  V30 37 1 37 38
M  V30 38 1 36 3
M  V30 39 1 34 5
M  V30 40 1 16 11
M  V30 41 1 33 24
M  V30 42 1 20 14
M  V30 43 1 33 28
M  V30 44 1 1 39
M  V30 45 1 1 40
M  V30 46 1 1 41
M  V30 47 1 4 42
M  V30 48 1 7 43
M  V30 49 1 10 44
M  V30 50 1 12 45
M  V30 51 1 13 46
M  V30 52 1 18 47
M  V30 53 1 18 48
M  V30 54 1 19 49
M  V30 55 1 19 50
M  V30 56 1 23 51
M  V30 57 1 23 52
M  V30 58 1 26 53
M  V30 59 1 26 54
M  V30 60 1 26 55
M  V30 61 1 27 56
M  V30 62 1 29 57
M  V30 63 1 30 58
M  V30 64 1 31 59
M  V30 65 1 32 60
M  V30 66 1 35 61
M  V30 67 1 38 62
M  V30 68 1 38 63
M  V30 69 1 38 64
M  V30 END BOND
M  V30 END CTAB
M  END
>  <Dataset>  (725) 
ChEMBL_Kinases

>  <Ligand_Instance>  (725) 
nan

>  <PDB_ID>  (725) 
nan

>  <Standardized_SMILES>  (725) 
COc1cc2ncnc(Nc3ccc4c(c3F)CCN4C(=O)Cc3c(C)[nH]c4ccccc34)c2cc1OC

>  <Name>  (725) 
nan

>  <Pocket>  (725) 
nan

>  <ATP_Site>  (725) 
nan

>  <Peripheral>  (725) 
nan

>  <Num_H_Atoms_ProtBoundConf>  (725) 
nan

>  <Num_Resolved_Atoms>  (725) 
nan

>  <Num_Not_Resolved_Atoms>  (725) 
nan

$$$$
CHEMBL3355045
     RDKit          3D

  0  0  0  0  0  0  0  0  0  0999 V3000
M  V30 BEGIN CTAB
M  V30 COUNTS 60 65 0 0 0
M  V30 BEGIN ATOM
M  V30 1 C 4.820904 -2.350796 5.649434 0
M  V30 2 O 4.500903 -2.234078 4.278250 0
M  V30 3 C 4.098354 -1.022248 3.738107 0
M  V30 4 C 3.975647 0.155664 4.461495 0
M  V30 5 C 3.568324 1.324304 3.858199 0
M  V30 6 N 3.455807 2.451628 4.593808 0
M  V30 7 C 3.047350 3.577373 3.956138 0
M  V30 8 N 2.741891 3.655572 2.628639 0
M  V30 9 C 2.842361 2.539348 1.850448 0
M  V30 10 N 2.581375 2.356083 0.487454 0
M  V30 11 C 1.301464 1.822153 0.078886 0
M  V30 12 C 1.122399 1.474287 -1.263293 0
M  V30 13 C -0.101004 0.953563 -1.627196 0
M  V30 14 C -1.110312 0.782022 -0.703810 0
M  V30 15 C -0.898438 1.141348 0.628467 0
M  V30 16 C 0.311240 1.668102 1.044631 0
M  V30 17 C -2.128871 0.872818 1.421236 0
M  V30 18 C -3.184727 0.835106 0.305250 0
M  V30 19 N -2.434671 0.274001 -0.783517 0
M  V30 20 C -2.926042 -0.636894 -1.752889 0
M  V30 21 O -2.476859 -1.268978 -2.731510 0
M  V30 22 C -4.352566 -1.043494 -1.719847 0
M  V30 23 C -4.676339 -2.021148 -2.776888 0
M  V30 24 C -5.298583 -1.981330 -4.005750 0
M  V30 25 O -5.319424 -3.171812 -4.556806 0
M  V30 26 C -4.730807 -4.036207 -3.747294 0
M  V30 27 C -4.486082 -5.384691 -3.831469 0
M  V30 28 C -3.842261 -6.098575 -2.844924 0
M  V30 29 C -3.420197 -5.430769 -1.713941 0
M  V30 30 C -3.663669 -4.085058 -1.629074 0
M  V30 31 C -4.311287 -3.362674 -2.619663 0
M  V30 32 C 3.262915 1.366574 2.490926 0
M  V30 33 C 3.405729 0.171183 1.840286 0
M  V30 34 C 3.806983 -1.040462 2.369073 0
M  V30 35 O 3.911359 -2.195626 1.592272 0
M  V30 36 C 3.575009 -2.052999 0.224065 0
M  V30 37 H 4.715945 -3.423108 5.989949 0
M  V30 38 H 5.885489 -2.033657 5.794104 0
M  V30 39 H 4.198868 -1.719895 6.296688 0
M  V30 40 H 4.202624 0.150002 5.504134 0
M  V30 41 H 2.939395 4.514033 4.499991 0
M  V30 42 H 3.283951 2.590420 -0.269090 0
M  V30 43 H 1.922984 1.620453 -1.952277 0
M  V30 44 H -0.289670 0.670102 -2.641939 0
M  V30 45 H 0.486815 1.945717 2.049962 0
M  V30 46 H -2.394978 1.709721 2.097282 0
M  V30 47 H -2.029343 -0.087293 1.931020 0
M  V30 48 H -3.656315 1.796043 0.123272 0
M  V30 49 H -3.899607 0.048253 0.640065 0
M  V30 50 H -4.669746 -1.472480 -0.750050 0
M  V30 51 H -4.979093 -0.152324 -1.900944 0
M  V30 52 H -5.678077 -1.019563 -4.353921 0
M  V30 53 H -4.802714 -5.934702 -4.703101 0
M  V30 54 H -3.647809 -7.150318 -2.901115 0
M  V30 55 H -2.920426 -5.925191 -0.919925 0
M  V30 56 H -3.334478 -3.561678 -0.748380 0
M  V30 57 H 3.182488 0.160921 0.786311 0
M  V30 58 H 4.302508 -1.394028 -0.293185 0
M  V30 59 H 3.620303 -3.039884 -0.298640 0
M  V30 60 H 2.549688 -1.639798 0.095464 0
M  V30 END ATOM
M  V30 BEGIN BOND
M  V30 1 1 1 2
M  V30 2 1 2 3
M  V30 3 2 3 4
M  V30 4 1 4 5
M  V30 5 2 5 6
M  V30 6 1 6 7
M  V30 7 2 7 8
M  V30 8 1 8 9
M  V30 9 1 9 10
M  V30 10 1 10 11
M  V30 11 2 11 12
M  V30 12 1 12 13
M  V30 13 2 13 14
M  V30 14 1 14 15
M  V30 15 2 15 16
M  V30 16 1 15 17
M  V30 17 1 17 18
M  V30 18 1 18 19
M  V30 19 1 19 20
M  V30 20 2 20 21
M  V30 21 1 20 22
M  V30 22 1 22 23
M  V30 23 2 23 24
M  V30 24 1 24 25
M  V30 25 1 25 26
M  V30 26 2 26 27
M  V30 27 1 27 28
M  V30 28 2 28 29
M  V30 29 1 29 30
M  V30 30 2 30 31
M  V30 31 2 9 32
M  V30 32 1 32 33
M  V30 33 2 33 34
M  V30 34 1 34 35
M  V30 35 1 35 36
M  V30 36 1 34 3
M  V30 37 1 32 5
M  V30 38 1 16 11
M  V30 39 1 31 23
M  V30 40 1 19 14
M  V30 41 1 31 26
M  V30 42 1 1 37
M  V30 43 1 1 38
M  V30 44 1 1 39
M  V30 45 1 4 40
M  V30 46 1 7 41
M  V30 47 1 10 42
M  V30 48 1 12 43
M  V30 49 1 13 44
M  V30 50 1 16 45
M  V30 51 1 17 46
M  V30 52 1 17 47
M  V30 53 1 18 48
M  V30 54 1 18 49
M  V30 55 1 22 50
M  V30 56 1 22 51
M  V30 57 1 24 52
M  V30 58 1 27 53
M  V30 59 1 28 54
M  V30 60 1 29 55
M  V30 61 1 30 56
M  V30 62 1 33 57
M  V30 63 1 36 58
M  V30 64 1 36 59
M  V30 65 1 36 60
M  V30 END BOND
M  V30 END CTAB
M  END
>  <Dataset>  (726) 
ChEMBL_Kinases

>  <Ligand_Instance>  (726) 
nan

>  <PDB_ID>  (726) 
nan

>  <Standardized_SMILES>  (726) 
COc1cc2ncnc(Nc3ccc4c(c3)CCN4C(=O)Cc3coc4ccccc34)c2cc1OC

>  <Name>  (726) 
nan

>  <Pocket>  (726) 
nan

>  <ATP_Site>  (726) 
nan

>  <Peripheral>  (726) 
nan

>  <Num_H_Atoms_ProtBoundConf>  (726) 
nan

>  <Num_Resolved_Atoms>  (726) 
nan

>  <Num_Not_Resolved_Atoms>  (726) 
nan

$$$$
CHEMBL3355044
     RDKit          3D

  0  0  0  0  0  0  0  0  0  0999 V3000
M  V30 BEGIN CTAB
M  V30 COUNTS 57 61 0 0 0
M  V30 BEGIN ATOM
M  V30 1 C 5.031171 -4.452311 1.065165 0
M  V30 2 O 4.182334 -3.603277 0.349725 0
M  V30 3 C 4.084872 -2.238629 0.452982 0
M  V30 4 C 4.828346 -1.433468 1.299814 0
M  V30 5 C 4.615351 -0.072571 1.289051 0
M  V30 6 N 5.353693 0.697207 2.142967 0
M  V30 7 C 5.148533 2.050928 2.155147 0
M  V30 8 N 4.256609 2.626396 1.362189 0
M  V30 9 C 3.481011 1.952894 0.486874 0
M  V30 10 N 2.473873 2.376907 -0.424725 0
M  V30 11 C 1.109273 2.030282 -0.113418 0
M  V30 12 C 0.159450 2.157953 -1.092866 0
M  V30 13 C -1.158693 1.794227 -0.870261 0
M  V30 14 C -1.441055 1.303506 0.387259 0
M  V30 15 C -0.477248 1.183549 1.365603 0
M  V30 16 C 0.817609 1.539930 1.145666 0
M  V30 17 C -1.012589 0.657456 2.655561 0
M  V30 18 C -2.513518 0.724722 2.437964 0
M  V30 19 N -2.616953 0.771113 0.994839 0
M  V30 20 C -3.725630 0.340255 0.201088 0
M  V30 21 O -3.726546 0.447440 -1.053058 0
M  V30 22 C -4.960503 -0.272573 0.800315 0
M  V30 23 C -5.170993 -1.644928 0.238099 0
M  V30 24 C -4.503796 -2.736127 0.799575 0
M  V30 25 C -4.874410 -3.891764 0.102488 0
M  V30 26 N -5.744331 -3.464256 -0.847040 0
M  V30 27 C -6.397128 -4.340125 -1.810015 0
M  V30 28 N -5.915667 -2.134301 -0.762374 0
M  V30 29 C 3.718028 0.590997 0.504635 0
M  V30 30 C 2.997251 -0.271045 -0.328705 0
M  V30 31 C 3.151653 -1.664797 -0.378597 0
M  V30 32 O 2.387973 -2.409495 -1.228607 0
M  V30 33 C 1.408772 -1.975793 -2.122555 0
M  V30 34 H 4.581478 -4.681213 2.070548 0
M  V30 35 H 6.047615 -4.077010 1.203199 0
M  V30 36 H 5.059711 -5.441611 0.532812 0
M  V30 37 H 5.551598 -1.921873 1.931937 0
M  V30 38 H 5.684431 2.742501 2.794233 0
M  V30 39 H 2.681635 2.932550 -1.302980 0
M  V30 40 H 0.434524 2.550542 -2.070319 0
M  V30 41 H -1.942148 1.876314 -1.608342 0
M  V30 42 H 1.611574 1.466384 1.874436 0
M  V30 43 H -0.727732 -0.392790 2.840216 0
M  V30 44 H -0.719139 1.314008 3.514363 0
M  V30 45 H -2.909843 1.607992 2.946706 0
M  V30 46 H -2.959971 -0.246024 2.756150 0
M  V30 47 H -4.793681 -0.324540 1.890717 0
M  V30 48 H -5.855322 0.343286 0.600638 0
M  V30 49 H -3.808145 -2.788319 1.619425 0
M  V30 50 H -4.554196 -4.917645 0.258144 0
M  V30 51 H -6.771733 -5.277015 -1.354191 0
M  V30 52 H -5.753655 -4.614622 -2.649431 0
M  V30 53 H -7.323530 -3.798917 -2.136391 0
M  V30 54 H 2.236453 0.118734 -1.026493 0
M  V30 55 H 0.805873 -1.109935 -1.786328 0
M  V30 56 H 0.670381 -2.799300 -2.300897 0
M  V30 57 H 1.849096 -1.715555 -3.111846 0
M  V30 END ATOM
M  V30 BEGIN BOND
M  V30 1 1 1 2
M  V30 2 1 2 3
M  V30 3 2 3 4
M  V30 4 1 4 5
M  V30 5 2 5 6
M  V30 6 1 6 7
M  V30 7 2 7 8
M  V30 8 1 8 9
M  V30 9 1 9 10
M  V30 10 1 10 11
M  V30 11 2 11 12
M  V30 12 1 12 13
M  V30 13 2 13 14
M  V30 14 1 14 15
M  V30 15 2 15 16
M  V30 16 1 15 17
M  V30 17 1 17 18
M  V30 18 1 18 19
M  V30 19 1 19 20
M  V30 20 2 20 21
M  V30 21 1 20 22
M  V30 22 1 22 23
M  V30 23 1 23 24
M  V30 24 2 24 25
M  V30 25 1 25 26
M  V30 26 1 26 27
M  V30 27 1 26 28
M  V30 28 2 9 29
M  V30 29 1 29 30
M  V30 30 2 30 31
M  V30 31 1 31 32
M  V30 32 1 32 33
M  V30 33 1 31 3
M  V30 34 1 29 5
M  V30 35 1 16 11
M  V30 36 2 28 23
M  V30 37 1 19 14
M  V30 38 1 1 34
M  V30 39 1 1 35
M  V30 40 1 1 36
M  V30 41 1 4 37
M  V30 42 1 7 38
M  V30 43 1 10 39
M  V30 44 1 12 40
M  V30 45 1 13 41
M  V30 46 1 16 42
M  V30 47 1 17 43
M  V30 48 1 17 44
M  V30 49 1 18 45
M  V30 50 1 18 46
M  V30 51 1 22 47
M  V30 52 1 22 48
M  V30 53 1 24 49
M  V30 54 1 25 50
M  V30 55 1 27 51
M  V30 56 1 27 52
M  V30 57 1 27 53
M  V30 58 1 30 54
M  V30 59 1 33 55
M  V30 60 1 33 56
M  V30 61 1 33 57
M  V30 END BOND
M  V30 END CTAB
M  END
>  <Dataset>  (727) 
ChEMBL_Kinases

>  <Ligand_Instance>  (727) 
nan

>  <PDB_ID>  (727) 
nan

>  <Standardized_SMILES>  (727) 
COc1cc2ncnc(Nc3ccc4c(c3)CCN4C(=O)Cc3ccn(C)n3)c2cc1OC

>  <Name>  (727) 
nan

>  <Pocket>  (727) 
nan

>  <ATP_Site>  (727) 
nan

>  <Peripheral>  (727) 
nan

>  <Num_H_Atoms_ProtBoundConf>  (727) 
nan

>  <Num_Resolved_Atoms>  (727) 
nan

>  <Num_Not_Resolved_Atoms>  (727) 
nan

$$$$
CHEMBL3355043
     RDKit          3D

  0  0  0  0  0  0  0  0  0  0999 V3000
M  V30 BEGIN CTAB
M  V30 COUNTS 61 66 0 0 0
M  V30 BEGIN ATOM
M  V30 1 C 2.998189 -2.588854 6.381931 0
M  V30 2 O 3.374509 -1.765601 5.442324 0
M  V30 3 C 3.749811 -0.977346 4.549669 0
M  V30 4 C 4.722807 -0.233356 3.954970 0
M  V30 5 C 4.596906 0.589866 2.858117 0
M  V30 6 N 5.592050 1.258826 2.427493 0
M  V30 7 C 5.647245 2.142093 1.433032 0
M  V30 8 N 4.375733 2.187349 0.893587 0
M  V30 9 C 3.359159 1.566659 1.262946 0
M  V30 10 N 2.180048 1.709452 0.510285 0
M  V30 11 C 1.024861 1.714864 -0.307137 0
M  V30 12 C 0.369260 2.596929 -1.099566 0
M  V30 13 C -0.926588 2.266112 -1.539232 0
M  V30 14 C -1.471502 1.081823 -1.162064 0
M  V30 15 C -0.865416 0.109767 -0.350676 0
M  V30 16 C 0.382654 0.519537 0.015430 0
M  V30 17 C -1.805542 -0.992507 0.032588 0
M  V30 18 C -3.097925 -0.338887 -0.335834 0
M  V30 19 N -2.720409 0.510125 -1.467592 0
M  V30 20 C -3.623928 0.620124 -2.522719 0
M  V30 21 O -4.270530 1.671910 -2.384806 0
M  V30 22 C -3.800943 -0.383734 -3.625345 0
M  V30 23 C -4.009895 -1.744241 -3.069492 0
M  V30 24 C -5.034120 -2.595632 -2.628379 0
M  V30 25 N -4.542406 -3.734702 -2.127477 0
M  V30 26 C -3.196616 -3.724522 -2.189747 0
M  V30 27 C -2.290513 -4.670607 -1.803246 0
M  V30 28 C -0.952745 -4.444634 -1.984046 0
M  V30 29 C -0.553128 -3.236588 -2.565662 0
M  V30 30 C -1.527107 -2.358953 -2.920927 0
M  V30 31 C -2.900516 -2.539459 -2.757501 0
M  V30 32 C 3.295383 0.634764 2.345917 0
M  V30 33 C 2.218200 -0.021347 2.791887 0
M  V30 34 C 2.460595 -0.804847 3.884417 0
M  V30 35 O 1.291183 -1.504214 4.471192 0
M  V30 36 C 0.191781 -1.450502 3.522514 0
M  V30 37 H 3.092218 -3.705862 6.093851 0
M  V30 38 H 1.800244 -2.517847 6.492290 0
M  V30 39 H 3.313145 -2.571988 7.431385 0
M  V30 40 H 5.659895 -0.438135 4.542711 0
M  V30 41 H 6.491214 2.700145 1.104494 0
M  V30 42 H 1.870848 2.640297 1.030563 0
M  V30 43 H 0.924876 3.443869 -1.292128 0
M  V30 44 H -1.427706 2.961506 -2.147541 0
M  V30 45 H 0.829703 -0.366349 0.462717 0
M  V30 46 H -1.593546 -1.946186 -0.296860 0
M  V30 47 H -1.776328 -0.955686 1.191781 0
M  V30 48 H -3.508222 0.340751 0.481576 0
M  V30 49 H -3.876975 -1.057400 -0.538940 0
M  V30 50 H -4.696958 -0.054815 -4.200123 0
M  V30 51 H -2.860455 -0.381107 -4.222947 0
M  V30 52 H -6.041399 -2.218441 -2.775621 0
M  V30 53 H -5.208348 -4.489234 -1.756053 0
M  V30 54 H -2.620625 -5.623294 -1.324042 0
M  V30 55 H -0.179084 -5.170946 -1.669072 0
M  V30 56 H 0.506444 -3.126495 -2.687995 0
M  V30 57 H -1.115849 -1.467538 -3.363037 0
M  V30 58 H 1.330243 0.188015 2.347588 0
M  V30 59 H -0.674223 -0.873153 3.631698 0
M  V30 60 H -0.155397 -2.596587 3.502294 0
M  V30 61 H 0.647930 -1.443803 2.459992 0
M  V30 END ATOM
M  V30 BEGIN BOND
M  V30 1 1 1 2
M  V30 2 1 2 3
M  V30 3 2 3 4
M  V30 4 1 4 5
M  V30 5 2 5 6
M  V30 6 1 6 7
M  V30 7 2 7 8
M  V30 8 1 8 9
M  V30 9 1 9 10
M  V30 10 1 10 11
M  V30 11 2 11 12
M  V30 12 1 12 13
M  V30 13 2 13 14
M  V30 14 1 14 15
M  V30 15 2 15 16
M  V30 16 1 15 17
M  V30 17 1 17 18
M  V30 18 1 18 19
M  V30 19 1 19 20
M  V30 20 2 20 21
M  V30 21 1 20 22
M  V30 22 1 22 23
M  V30 23 2 23 24
M  V30 24 1 24 25
M  V30 25 1 25 26
M  V30 26 2 26 27
M  V30 27 1 27 28
M  V30 28 2 28 29
M  V30 29 1 29 30
M  V30 30 2 30 31
M  V30 31 2 9 32
M  V30 32 1 32 33
M  V30 33 2 33 34
M  V30 34 1 34 35
M  V30 35 1 35 36
M  V30 36 1 34 3
M  V30 37 1 32 5
M  V30 38 1 16 11
M  V30 39 1 31 23
M  V30 40 1 19 14
M  V30 41 1 31 26
M  V30 42 1 1 37
M  V30 43 1 1 38
M  V30 44 1 1 39
M  V30 45 1 4 40
M  V30 46 1 7 41
M  V30 47 1 10 42
M  V30 48 1 12 43
M  V30 49 1 13 44
M  V30 50 1 16 45
M  V30 51 1 17 46
M  V30 52 1 17 47
M  V30 53 1 18 48
M  V30 54 1 18 49
M  V30 55 1 22 50
M  V30 56 1 22 51
M  V30 57 1 24 52
M  V30 58 1 25 53
M  V30 59 1 27 54
M  V30 60 1 28 55
M  V30 61 1 29 56
M  V30 62 1 30 57
M  V30 63 1 33 58
M  V30 64 1 36 59
M  V30 65 1 36 60
M  V30 66 1 36 61
M  V30 END BOND
M  V30 END CTAB
M  END
>  <Dataset>  (728) 
ChEMBL_Kinases

>  <Ligand_Instance>  (728) 
nan

>  <PDB_ID>  (728) 
nan

>  <Standardized_SMILES>  (728) 
COc1cc2ncnc(Nc3ccc4c(c3)CCN4C(=O)Cc3c[nH]c4ccccc34)c2cc1OC

>  <Name>  (728) 
nan

>  <Pocket>  (728) 
nan

>  <ATP_Site>  (728) 
nan

>  <Peripheral>  (728) 
nan

>  <Num_H_Atoms_ProtBoundConf>  (728) 
nan

>  <Num_Resolved_Atoms>  (728) 
nan

>  <Num_Not_Resolved_Atoms>  (728) 
nan

$$$$
CHEMBL3355042
     RDKit          3D

  0  0  0  0  0  0  0  0  0  0999 V3000
M  V30 BEGIN CTAB
M  V30 COUNTS 61 66 0 0 0
M  V30 BEGIN ATOM
M  V30 1 C 4.446148 -1.390928 7.581017 0
M  V30 2 O 3.219150 -1.135277 6.931873 0
M  V30 3 C 3.096779 -0.378266 5.793904 0
M  V30 4 C 4.273836 0.131548 5.281666 0
M  V30 5 C 4.180528 0.894645 4.138138 0
M  V30 6 N 5.297989 1.415614 3.573397 0
M  V30 7 C 5.166232 2.144638 2.450362 0
M  V30 8 N 3.967968 2.366366 1.882328 0
M  V30 9 C 2.808614 1.867761 2.405849 0
M  V30 10 N 1.652729 2.190302 1.691102 0
M  V30 11 C 0.782340 1.576934 0.770760 0
M  V30 12 C -0.038178 2.389761 0.020153 0
M  V30 13 C -0.911584 1.809028 -0.869064 0
M  V30 14 C -1.007255 0.417768 -1.049859 0
M  V30 15 C -0.153989 -0.366965 -0.263633 0
M  V30 16 C 0.714257 0.213841 0.619892 0
M  V30 17 C -0.481688 -1.796022 -0.629965 0
M  V30 18 C -1.902386 -1.637284 -1.167994 0
M  V30 19 N -1.830511 -0.395380 -1.915514 0
M  V30 20 C -2.291531 0.159840 -3.124058 0
M  V30 21 O -1.994508 1.333936 -3.465682 0
M  V30 22 C -3.131663 -0.328301 -4.228766 0
M  V30 23 N -3.643883 -1.670222 -4.052562 0
M  V30 24 C -4.830844 -1.943586 -3.432549 0
M  V30 25 C -5.092183 -3.317314 -3.396769 0
M  V30 26 C -4.018120 -3.886505 -4.020531 0
M  V30 27 C -3.741528 -5.214660 -4.270511 0
M  V30 28 C -2.556336 -5.538718 -4.933782 0
M  V30 29 C -1.712887 -4.510463 -5.309942 0
M  V30 30 C -1.983902 -3.169622 -5.062114 0
M  V30 31 C -3.160864 -2.877704 -4.405974 0
M  V30 32 C 2.950947 1.120930 3.556558 0
M  V30 33 C 1.770319 0.619479 4.056547 0
M  V30 34 C 1.866182 -0.151567 5.211081 0
M  V30 35 O 0.778222 -0.729857 5.841067 0
M  V30 36 C -0.516508 -0.553379 5.307956 0
M  V30 37 H 5.061758 -0.458454 7.722223 0
M  V30 38 H 4.317653 -1.843950 8.569726 0
M  V30 39 H 5.080169 -2.066757 6.940198 0
M  V30 40 H 5.242773 -0.030273 5.717313 0
M  V30 41 H 6.081021 2.525550 2.055321 0
M  V30 42 H 1.473179 3.189949 2.008278 0
M  V30 43 H -0.018032 3.466891 0.108775 0
M  V30 44 H -1.546230 2.474069 -1.447883 0
M  V30 45 H 1.339242 -0.459714 1.187627 0
M  V30 46 H 0.214119 -2.233530 -1.335969 0
M  V30 47 H -0.559656 -2.373926 0.312961 0
M  V30 48 H -2.616889 -1.450506 -0.321586 0
M  V30 49 H -2.266332 -2.496513 -1.721095 0
M  V30 50 H -2.548077 -0.290138 -5.195580 0
M  V30 51 H -4.034345 0.319508 -4.400174 0
M  V30 52 H -5.503951 -1.198842 -3.012562 0
M  V30 53 H -5.987809 -3.741131 -2.946708 0
M  V30 54 H -4.441904 -5.972562 -3.949770 0
M  V30 55 H -2.311300 -6.586370 -5.145601 0
M  V30 56 H -0.810298 -4.837058 -5.820012 0
M  V30 57 H -1.286996 -2.401614 -5.379943 0
M  V30 58 H 0.806413 0.796629 3.602422 0
M  V30 59 H -0.826964 0.501364 5.200182 0
M  V30 60 H -1.267583 -1.147124 5.896286 0
M  V30 61 H -0.589668 -1.006483 4.276622 0
M  V30 END ATOM
M  V30 BEGIN BOND
M  V30 1 1 1 2
M  V30 2 1 2 3
M  V30 3 2 3 4
M  V30 4 1 4 5
M  V30 5 2 5 6
M  V30 6 1 6 7
M  V30 7 2 7 8
M  V30 8 1 8 9
M  V30 9 1 9 10
M  V30 10 1 10 11
M  V30 11 2 11 12
M  V30 12 1 12 13
M  V30 13 2 13 14
M  V30 14 1 14 15
M  V30 15 2 15 16
M  V30 16 1 15 17
M  V30 17 1 17 18
M  V30 18 1 18 19
M  V30 19 1 19 20
M  V30 20 2 20 21
M  V30 21 1 20 22
M  V30 22 1 22 23
M  V30 23 1 23 24
M  V30 24 2 24 25
M  V30 25 1 25 26
M  V30 26 2 26 27
M  V30 27 1 27 28
M  V30 28 2 28 29
M  V30 29 1 29 30
M  V30 30 2 30 31
M  V30 31 2 9 32
M  V30 32 1 32 33
M  V30 33 2 33 34
M  V30 34 1 34 35
M  V30 35 1 35 36
M  V30 36 1 34 3
M  V30 37 1 32 5
M  V30 38 1 16 11
M  V30 39 1 31 23
M  V30 40 1 19 14
M  V30 41 1 31 26
M  V30 42 1 1 37
M  V30 43 1 1 38
M  V30 44 1 1 39
M  V30 45 1 4 40
M  V30 46 1 7 41
M  V30 47 1 10 42
M  V30 48 1 12 43
M  V30 49 1 13 44
M  V30 50 1 16 45
M  V30 51 1 17 46
M  V30 52 1 17 47
M  V30 53 1 18 48
M  V30 54 1 18 49
M  V30 55 1 22 50
M  V30 56 1 22 51
M  V30 57 1 24 52
M  V30 58 1 25 53
M  V30 59 1 27 54
M  V30 60 1 28 55
M  V30 61 1 29 56
M  V30 62 1 30 57
M  V30 63 1 33 58
M  V30 64 1 36 59
M  V30 65 1 36 60
M  V30 66 1 36 61
M  V30 END BOND
M  V30 END CTAB
M  END
>  <Dataset>  (729) 
ChEMBL_Kinases

>  <Ligand_Instance>  (729) 
nan

>  <PDB_ID>  (729) 
nan

>  <Standardized_SMILES>  (729) 
COc1cc2ncnc(Nc3ccc4c(c3)CCN4C(=O)Cn3ccc4ccccc43)c2cc1OC

>  <Name>  (729) 
nan

>  <Pocket>  (729) 
nan

>  <ATP_Site>  (729) 
nan

>  <Peripheral>  (729) 
nan

>  <Num_H_Atoms_ProtBoundConf>  (729) 
nan

>  <Num_Resolved_Atoms>  (729) 
nan

>  <Num_Not_Resolved_Atoms>  (729) 
nan

$$$$
CHEMBL3355041
     RDKit          3D

  0  0  0  0  0  0  0  0  0  0999 V3000
M  V30 BEGIN CTAB
M  V30 COUNTS 64 69 0 0 0
M  V30 BEGIN ATOM
M  V30 1 C 5.160046 0.857357 6.842334 0
M  V30 2 O 3.963794 1.240924 6.248589 0
M  V30 3 C 3.763591 1.561624 4.913694 0
M  V30 4 C 4.755275 1.543801 3.952600 0
M  V30 5 C 4.530361 1.867108 2.629915 0
M  V30 6 N 5.491255 1.849723 1.701012 0
M  V30 7 C 5.237960 2.175233 0.399959 0
M  V30 8 N 3.968061 2.519865 0.078694 0
M  V30 9 C 2.967588 2.546373 1.005377 0
M  V30 10 N 1.725691 2.926027 0.487485 0
M  V30 11 C 0.744622 2.044226 -0.071039 0
M  V30 12 C -0.458973 2.526853 -0.543991 0
M  V30 13 C -1.369780 1.636751 -1.074386 0
M  V30 14 C -1.158426 0.278106 -1.166354 0
M  V30 15 C 0.054939 -0.203973 -0.688852 0
M  V30 16 C 0.969621 0.687802 -0.156526 0
M  V30 17 C 0.227386 -1.673611 -0.813500 0
M  V30 18 C -1.095042 -2.087399 -1.421537 0
M  V30 19 N -1.851037 -0.869536 -1.634831 0
M  V30 20 C -3.113006 -0.752241 -2.221402 0
M  V30 21 O -3.656421 0.402054 -2.338725 0
M  V30 22 C -4.105643 -1.660587 -2.805196 0
M  V30 23 N -3.721103 -3.059830 -2.803777 0
M  V30 24 C -3.049825 -3.726422 -3.773880 0
M  V30 25 C -2.560174 -3.146900 -5.053905 0
M  V30 26 C -2.852054 -5.052972 -3.452642 0
M  V30 27 C -3.432171 -5.224842 -2.212505 0
M  V30 28 C -3.570863 -6.305232 -1.357884 0
M  V30 29 C -4.218213 -6.202661 -0.132087 0
M  V30 30 C -4.729421 -4.948948 0.206074 0
M  V30 31 F -5.358083 -4.867964 1.406205 0
M  V30 32 C -4.602852 -3.855493 -0.631581 0
M  V30 33 C -3.951618 -4.001637 -1.841694 0
M  V30 34 C 3.234385 2.216933 2.310637 0
M  V30 35 C 2.195127 2.259052 3.205184 0
M  V30 36 C 2.488293 1.921342 4.525285 0
M  V30 37 O 1.477693 1.945652 5.476438 0
M  V30 38 C 0.150918 2.287976 5.227886 0
M  V30 39 H 5.250403 -0.268633 6.830219 0
M  V30 40 H 5.293253 1.241713 7.873736 0
M  V30 41 H 6.034039 1.229371 6.268961 0
M  V30 42 H 5.757590 1.263119 4.247866 0
M  V30 43 H 6.027564 2.155628 -0.339082 0
M  V30 44 H 1.509152 3.945658 0.517412 0
M  V30 45 H -0.695783 3.581711 -0.504850 0
M  V30 46 H -2.293322 2.043734 -1.432015 0
M  V30 47 H 1.916883 0.361105 0.223155 0
M  V30 48 H 0.365741 -2.107378 0.199730 0
M  V30 49 H 1.096767 -1.831256 -1.467198 0
M  V30 50 H -0.806148 -2.590637 -2.370282 0
M  V30 51 H -1.609367 -2.765173 -0.699739 0
M  V30 52 H -5.120865 -1.571631 -2.343707 0
M  V30 53 H -4.279316 -1.417350 -3.881637 0
M  V30 54 H -1.505557 -2.808117 -4.878213 0
M  V30 55 H -3.128081 -2.253419 -5.342260 0
M  V30 56 H -2.505393 -3.911158 -5.862923 0
M  V30 57 H -2.349066 -5.800892 -4.046625 0
M  V30 58 H -3.151824 -7.264383 -1.672083 0
M  V30 59 H -4.299926 -7.077835 0.499555 0
M  V30 60 H -5.017374 -2.918194 -0.314793 0
M  V30 61 H 1.208452 2.544969 2.868106 0
M  V30 62 H -0.556263 1.771224 5.941381 0
M  V30 63 H -0.134278 1.850028 4.233539 0
M  V30 64 H -0.048712 3.357882 5.164384 0
M  V30 END ATOM
M  V30 BEGIN BOND
M  V30 1 1 1 2
M  V30 2 1 2 3
M  V30 3 2 3 4
M  V30 4 1 4 5
M  V30 5 2 5 6
M  V30 6 1 6 7
M  V30 7 2 7 8
M  V30 8 1 8 9
M  V30 9 1 9 10
M  V30 10 1 10 11
M  V30 11 2 11 12
M  V30 12 1 12 13
M  V30 13 2 13 14
M  V30 14 1 14 15
M  V30 15 2 15 16
M  V30 16 1 15 17
M  V30 17 1 17 18
M  V30 18 1 18 19
M  V30 19 1 19 20
M  V30 20 2 20 21
M  V30 21 1 20 22
M  V30 22 1 22 23
M  V30 23 1 23 24
M  V30 24 1 24 25
M  V30 25 2 24 26
M  V30 26 1 26 27
M  V30 27 2 27 28
M  V30 28 1 28 29
M  V30 29 2 29 30
M  V30 30 1 30 31
M  V30 31 1 30 32
M  V30 32 2 32 33
M  V30 33 2 9 34
M  V30 34 1 34 35
M  V30 35 2 35 36
M  V30 36 1 36 37
M  V30 37 1 37 38
M  V30 38 1 36 3
M  V30 39 1 34 5
M  V30 40 1 16 11
M  V30 41 1 33 23
M  V30 42 1 19 14
M  V30 43 1 33 27
M  V30 44 1 1 39
M  V30 45 1 1 40
M  V30 46 1 1 41
M  V30 47 1 4 42
M  V30 48 1 7 43
M  V30 49 1 10 44
M  V30 50 1 12 45
M  V30 51 1 13 46
M  V30 52 1 16 47
M  V30 53 1 17 48
M  V30 54 1 17 49
M  V30 55 1 18 50
M  V30 56 1 18 51
M  V30 57 1 22 52
M  V30 58 1 22 53
M  V30 59 1 25 54
M  V30 60 1 25 55
M  V30 61 1 25 56
M  V30 62 1 26 57
M  V30 63 1 28 58
M  V30 64 1 29 59
M  V30 65 1 32 60
M  V30 66 1 35 61
M  V30 67 1 38 62
M  V30 68 1 38 63
M  V30 69 1 38 64
M  V30 END BOND
M  V30 END CTAB
M  END
>  <Dataset>  (730) 
ChEMBL_Kinases

>  <Ligand_Instance>  (730) 
nan

>  <PDB_ID>  (730) 
nan

>  <Standardized_SMILES>  (730) 
COc1cc2ncnc(Nc3ccc4c(c3)CCN4C(=O)Cn3c(C)cc4ccc(F)cc43)c2cc1OC

>  <Name>  (730) 
nan

>  <Pocket>  (730) 
nan

>  <ATP_Site>  (730) 
nan

>  <Peripheral>  (730) 
nan

>  <Num_H_Atoms_ProtBoundConf>  (730) 
nan

>  <Num_Resolved_Atoms>  (730) 
nan

>  <Num_Not_Resolved_Atoms>  (730) 
nan

$$$$
CHEMBL3355040
     RDKit          3D

  0  0  0  0  0  0  0  0  0  0999 V3000
M  V30 BEGIN CTAB
M  V30 COUNTS 64 69 0 0 0
M  V30 BEGIN ATOM
M  V30 1 C 5.799948 -0.411684 4.839317 0
M  V30 2 O 4.508371 -0.428483 4.281215 0
M  V30 3 C 4.022536 0.650143 3.547710 0
M  V30 4 C 4.719034 1.804660 3.290364 0
M  V30 5 C 4.191428 2.843004 2.553417 0
M  V30 6 N 4.818111 3.980848 2.285211 0
M  V30 7 C 4.227810 4.947630 1.563984 0
M  V30 8 N 2.994233 4.824489 1.079984 0
M  V30 9 C 2.279071 3.684308 1.309361 0
M  V30 10 N 1.007035 3.680990 0.729138 0
M  V30 11 C -0.068460 2.783067 0.480260 0
M  V30 12 C 0.234922 1.920548 -0.592076 0
M  V30 13 C -0.668951 0.953582 -0.982619 0
M  V30 14 C -1.879285 0.804856 -0.343094 0
M  V30 15 C -2.146574 1.669309 0.704267 0
M  V30 16 C -1.276737 2.651671 1.132577 0
M  V30 17 C -3.517770 1.326500 1.224245 0
M  V30 18 C -4.103121 0.475717 0.106693 0
M  V30 19 N -2.941538 -0.116619 -0.534235 0
M  V30 20 C -2.956442 -1.371943 -1.179513 0
M  V30 21 O -3.929424 -2.127241 -1.285012 0
M  V30 22 C -1.868683 -2.102786 -1.873321 0
M  V30 23 C -2.341813 -3.454572 -2.326298 0
M  V30 24 C -3.130965 -3.865166 -3.375112 0
M  V30 25 C -3.710383 -2.921136 -4.362083 0
M  V30 26 N -3.269110 -5.199277 -3.343417 0
M  V30 27 C -2.618497 -5.746803 -2.326324 0
M  V30 28 C -2.373484 -6.992526 -1.764860 0
M  V30 29 F -2.946414 -8.053977 -2.394635 0
M  V30 30 C -1.608487 -7.220656 -0.640093 0
M  V30 31 C -1.035187 -6.107177 -0.018046 0
M  V30 32 C -1.253524 -4.852767 -0.543046 0
M  V30 33 C -2.039078 -4.668988 -1.688596 0
M  V30 34 C 2.922113 2.730429 2.050644 0
M  V30 35 C 2.214384 1.580254 2.303014 0
M  V30 36 C 2.722923 0.539308 3.033640 0
M  V30 37 O 2.015058 -0.634721 3.298065 0
M  V30 38 C 0.696972 -0.710750 2.768732 0
M  V30 39 H 6.192996 -1.422268 5.042945 0
M  V30 40 H 5.821164 0.209860 5.758114 0
M  V30 41 H 6.522646 0.077757 4.144326 0
M  V30 42 H 5.735181 1.899581 3.689169 0
M  V30 43 H 4.793880 5.860250 1.377569 0
M  V30 44 H 0.547068 4.501235 0.298476 0
M  V30 45 H 1.169468 1.949534 -1.174611 0
M  V30 46 H -0.436064 0.292141 -1.805165 0
M  V30 47 H -1.423109 3.341656 1.927428 0
M  V30 48 H -4.111311 2.215676 1.439209 0
M  V30 49 H -3.396893 0.749286 2.161071 0
M  V30 50 H -4.737929 -0.294951 0.596457 0
M  V30 51 H -4.676398 1.090638 -0.613603 0
M  V30 52 H -1.598885 -1.518413 -2.784134 0
M  V30 53 H -0.991864 -2.277616 -1.222277 0
M  V30 54 H -3.593294 -3.341613 -5.403311 0
M  V30 55 H -3.139751 -1.964680 -4.403689 0
M  V30 56 H -4.776007 -2.742814 -4.226505 0
M  V30 57 H -3.822444 -5.797742 -4.026401 0
M  V30 58 H -1.463957 -8.231949 -0.260817 0
M  V30 59 H -0.453159 -6.344653 0.850617 0
M  V30 60 H -0.783967 -4.025592 -0.018984 0
M  V30 61 H 1.225302 1.431102 1.964433 0
M  V30 62 H 0.226800 -1.697175 2.914514 0
M  V30 63 H 0.659595 -0.486499 1.671247 0
M  V30 64 H 0.031381 0.077829 3.228183 0
M  V30 END ATOM
M  V30 BEGIN BOND
M  V30 1 1 1 2
M  V30 2 1 2 3
M  V30 3 2 3 4
M  V30 4 1 4 5
M  V30 5 2 5 6
M  V30 6 1 6 7
M  V30 7 2 7 8
M  V30 8 1 8 9
M  V30 9 1 9 10
M  V30 10 1 10 11
M  V30 11 2 11 12
M  V30 12 1 12 13
M  V30 13 2 13 14
M  V30 14 1 14 15
M  V30 15 2 15 16
M  V30 16 1 15 17
M  V30 17 1 17 18
M  V30 18 1 18 19
M  V30 19 1 19 20
M  V30 20 2 20 21
M  V30 21 1 20 22
M  V30 22 1 22 23
M  V30 23 2 23 24
M  V30 24 1 24 25
M  V30 25 1 24 26
M  V30 26 1 26 27
M  V30 27 2 27 28
M  V30 28 1 28 29
M  V30 29 1 28 30
M  V30 30 2 30 31
M  V30 31 1 31 32
M  V30 32 2 32 33
M  V30 33 2 9 34
M  V30 34 1 34 35
M  V30 35 2 35 36
M  V30 36 1 36 37
M  V30 37 1 37 38
M  V30 38 1 36 3
M  V30 39 1 34 5
M  V30 40 1 16 11
M  V30 41 1 33 23
M  V30 42 1 19 14
M  V30 43 1 33 27
M  V30 44 1 1 39
M  V30 45 1 1 40
M  V30 46 1 1 41
M  V30 47 1 4 42
M  V30 48 1 7 43
M  V30 49 1 10 44
M  V30 50 1 12 45
M  V30 51 1 13 46
M  V30 52 1 16 47
M  V30 53 1 17 48
M  V30 54 1 17 49
M  V30 55 1 18 50
M  V30 56 1 18 51
M  V30 57 1 22 52
M  V30 58 1 22 53
M  V30 59 1 25 54
M  V30 60 1 25 55
M  V30 61 1 25 56
M  V30 62 1 26 57
M  V30 63 1 30 58
M  V30 64 1 31 59
M  V30 65 1 32 60
M  V30 66 1 35 61
M  V30 67 1 38 62
M  V30 68 1 38 63
M  V30 69 1 38 64
M  V30 END BOND
M  V30 END CTAB
M  END
>  <Dataset>  (731) 
ChEMBL_Kinases

>  <Ligand_Instance>  (731) 
nan

>  <PDB_ID>  (731) 
nan

>  <Standardized_SMILES>  (731) 
COc1cc2ncnc(Nc3ccc4c(c3)CCN4C(=O)Cc3c(C)[nH]c4c(F)cccc34)c2cc1OC

>  <Name>  (731) 
nan

>  <Pocket>  (731) 
nan

>  <ATP_Site>  (731) 
nan

>  <Peripheral>  (731) 
nan

>  <Num_H_Atoms_ProtBoundConf>  (731) 
nan

>  <Num_Resolved_Atoms>  (731) 
nan

>  <Num_Not_Resolved_Atoms>  (731) 
nan

$$$$
CHEMBL3355039
     RDKit          3D

  0  0  0  0  0  0  0  0  0  0999 V3000
M  V30 BEGIN CTAB
M  V30 COUNTS 57 61 0 0 0
M  V30 BEGIN ATOM
M  V30 1 C 6.968062 -2.860656 2.990247 0
M  V30 2 O 5.944165 -2.968124 2.019007 0
M  V30 3 C 5.341402 -1.818989 1.523073 0
M  V30 4 C 5.641607 -0.522004 1.886404 0
M  V30 5 C 4.975994 0.555248 1.327056 0
M  V30 6 N 5.303164 1.809661 1.714009 0
M  V30 7 C 4.661266 2.868215 1.176795 0
M  V30 8 N 3.677566 2.721370 0.241795 0
M  V30 9 C 3.335606 1.484891 -0.157991 0
M  V30 10 N 2.344016 1.125999 -1.112553 0
M  V30 11 C 0.985284 0.868983 -0.723507 0
M  V30 12 C 0.044515 0.505788 -1.673163 0
M  V30 13 C -1.269354 0.259967 -1.279842 0
M  V30 14 C -1.618565 0.380886 0.049415 0
M  V30 15 C -0.643737 0.748874 0.977775 0
M  V30 16 C 0.664118 0.997970 0.615757 0
M  V30 17 C -1.340906 0.790271 2.305689 0
M  V30 18 C -2.813764 0.810402 1.943866 0
M  V30 19 N -2.880772 0.177982 0.648833 0
M  V30 20 C -4.059492 -0.472629 0.226925 0
M  V30 21 O -5.117742 -0.576868 0.877529 0
M  V30 22 C -4.435626 -1.194843 -1.009941 0
M  V30 23 C -5.846874 -1.703032 -0.907475 0
M  V30 24 C -6.948417 -1.156507 -1.529035 0
M  V30 25 C -8.201736 -1.683752 -1.382158 0
M  V30 26 F -9.222167 -1.073742 -2.034963 0
M  V30 27 C -8.377769 -2.808903 -0.580266 0
M  V30 28 C -7.271836 -3.354186 0.041306 0
M  V30 29 C -5.999267 -2.833311 -0.097056 0
M  V30 30 F -4.946440 -3.407152 0.535585 0
M  V30 31 C 3.977707 0.379392 0.376533 0
M  V30 32 C 3.700548 -0.928946 0.034026 0
M  V30 33 C 4.354225 -1.992204 0.583059 0
M  V30 34 O 3.993868 -3.257585 0.165402 0
M  V30 35 C 2.989952 -3.499884 -0.794335 0
M  V30 36 H 6.784775 -2.056618 3.732690 0
M  V30 37 H 7.045626 -3.801177 3.586882 0
M  V30 38 H 7.911795 -2.691459 2.409394 0
M  V30 39 H 6.415856 -0.388860 2.622971 0
M  V30 40 H 4.870273 3.901865 1.438517 0
M  V30 41 H 2.643009 1.056786 -2.106738 0
M  V30 42 H 0.345263 0.417774 -2.709217 0
M  V30 43 H -1.999866 -0.023475 -2.024214 0
M  V30 44 H 1.396934 1.281192 1.358054 0
M  V30 45 H -1.071105 -0.133117 2.843763 0
M  V30 46 H -1.054700 1.664329 2.889750 0
M  V30 47 H -3.405652 0.261356 2.675186 0
M  V30 48 H -3.223199 1.842411 1.875669 0
M  V30 49 H -4.319244 -0.565768 -1.922410 0
M  V30 50 H -3.764707 -2.068632 -1.140188 0
M  V30 51 H -6.705000 -0.283838 -2.129814 0
M  V30 52 H -9.385748 -3.199713 -0.486924 0
M  V30 53 H -7.420960 -4.234005 0.666537 0
M  V30 54 H 2.926370 -1.091522 -0.705649 0
M  V30 55 H 2.713938 -4.573386 -0.788643 0
M  V30 56 H 3.388297 -3.267624 -1.788890 0
M  V30 57 H 2.061457 -2.932852 -0.583437 0
M  V30 END ATOM
M  V30 BEGIN BOND
M  V30 1 1 1 2
M  V30 2 1 2 3
M  V30 3 2 3 4
M  V30 4 1 4 5
M  V30 5 2 5 6
M  V30 6 1 6 7
M  V30 7 2 7 8
M  V30 8 1 8 9
M  V30 9 1 9 10
M  V30 10 1 10 11
M  V30 11 2 11 12
M  V30 12 1 12 13
M  V30 13 2 13 14
M  V30 14 1 14 15
M  V30 15 2 15 16
M  V30 16 1 15 17
M  V30 17 1 17 18
M  V30 18 1 18 19
M  V30 19 1 19 20
M  V30 20 2 20 21
M  V30 21 1 20 22
M  V30 22 1 22 23
M  V30 23 2 23 24
M  V30 24 1 24 25
M  V30 25 1 25 26
M  V30 26 2 25 27
M  V30 27 1 27 28
M  V30 28 2 28 29
M  V30 29 1 29 30
M  V30 30 2 9 31
M  V30 31 1 31 32
M  V30 32 2 32 33
M  V30 33 1 33 34
M  V30 34 1 34 35
M  V30 35 1 33 3
M  V30 36 1 31 5
M  V30 37 1 16 11
M  V30 38 1 29 23
M  V30 39 1 19 14
M  V30 40 1 1 36
M  V30 41 1 1 37
M  V30 42 1 1 38
M  V30 43 1 4 39
M  V30 44 1 7 40
M  V30 45 1 10 41
M  V30 46 1 12 42
M  V30 47 1 13 43
M  V30 48 1 16 44
M  V30 49 1 17 45
M  V30 50 1 17 46
M  V30 51 1 18 47
M  V30 52 1 18 48
M  V30 53 1 22 49
M  V30 54 1 22 50
M  V30 55 1 24 51
M  V30 56 1 27 52
M  V30 57 1 28 53
M  V30 58 1 32 54
M  V30 59 1 35 55
M  V30 60 1 35 56
M  V30 61 1 35 57
M  V30 END BOND
M  V30 END CTAB
M  END
>  <Dataset>  (732) 
ChEMBL_Kinases

>  <Ligand_Instance>  (732) 
nan

>  <PDB_ID>  (732) 
nan

>  <Standardized_SMILES>  (732) 
COc1cc2ncnc(Nc3ccc4c(c3)CCN4C(=O)Cc3cc(F)ccc3F)c2cc1OC

>  <Name>  (732) 
nan

>  <Pocket>  (732) 
nan

>  <ATP_Site>  (732) 
nan

>  <Peripheral>  (732) 
nan

>  <Num_H_Atoms_ProtBoundConf>  (732) 
nan

>  <Num_Resolved_Atoms>  (732) 
nan

>  <Num_Not_Resolved_Atoms>  (732) 
nan

$$$$
CHEMBL3355038
     RDKit          3D

  0  0  0  0  0  0  0  0  0  0999 V3000
M  V30 BEGIN CTAB
M  V30 COUNTS 64 69 0 0 0
M  V30 BEGIN ATOM
M  V30 1 C 6.965278 1.185543 5.898507 0
M  V30 2 O 6.017930 0.419797 5.222035 0
M  V30 3 C 5.523055 0.713887 3.962280 0
M  V30 4 C 5.900966 1.814216 3.190861 0
M  V30 5 C 5.361046 2.039254 1.942778 0
M  V30 6 N 5.806072 3.150943 1.285496 0
M  V30 7 C 5.319286 3.425438 0.076699 0
M  V30 8 N 4.388342 2.615617 -0.508995 0
M  V30 9 C 3.949974 1.512880 0.148097 0
M  V30 10 N 2.988291 0.677772 -0.448073 0
M  V30 11 C 1.580734 0.513929 -0.427369 0
M  V30 12 C 1.029847 -0.309629 -1.387154 0
M  V30 13 C -0.340659 -0.451822 -1.332952 0
M  V30 14 C -1.151415 0.167251 -0.399984 0
M  V30 15 C -0.558394 0.989973 0.553051 0
M  V30 16 C 0.830799 1.159923 0.530480 0
M  V30 17 C -1.516914 1.591352 1.509338 0
M  V30 18 C -2.846616 1.264364 0.866157 0
M  V30 19 N -2.533395 0.233514 -0.085831 0
M  V30 20 C -3.400531 -0.674248 -0.720383 0
M  V30 21 O -3.119567 -1.551932 -1.568843 0
M  V30 22 C -4.819871 -1.042021 -0.753888 0
M  V30 23 C -5.068716 -2.144977 -1.738963 0
M  V30 24 C -5.151838 -2.006441 -3.118947 0
M  V30 25 C -5.040412 -0.760951 -3.934756 0
M  V30 26 N -5.367204 -3.237720 -3.631475 0
M  V30 27 C -5.420386 -4.133246 -2.612287 0
M  V30 28 C -5.618589 -5.496474 -2.655905 0
M  V30 29 C -5.643233 -6.273427 -1.500641 0
M  V30 30 F -5.840277 -7.609250 -1.590783 0
M  V30 31 C -5.455265 -5.589447 -0.295607 0
M  V30 32 C -5.256327 -4.223104 -0.248824 0
M  V30 33 C -5.235294 -3.471590 -1.405372 0
M  V30 34 C 4.423567 1.189741 1.397596 0
M  V30 35 C 4.036219 0.096740 2.142556 0
M  V30 36 C 4.569885 -0.137523 3.391614 0
M  V30 37 O 4.144727 -1.252989 4.099629 0
M  V30 38 C 3.179668 -2.089666 3.489283 0
M  V30 39 H 7.628060 0.553476 6.561126 0
M  V30 40 H 6.539683 2.031832 6.479122 0
M  V30 41 H 7.653683 1.632665 5.146176 0
M  V30 42 H 6.635981 2.487113 3.610309 0
M  V30 43 H 5.662743 4.311760 -0.466379 0
M  V30 44 H 3.621574 0.081603 -1.022951 0
M  V30 45 H 1.573473 -0.837662 -2.157167 0
M  V30 46 H -0.850067 -1.080989 -2.050149 0
M  V30 47 H 1.308771 1.781853 1.246138 0
M  V30 48 H -1.370159 2.693633 1.639782 0
M  V30 49 H -1.431072 1.096478 2.515766 0
M  V30 50 H -3.499418 0.848674 1.652302 0
M  V30 51 H -3.286574 2.166105 0.382148 0
M  V30 52 H -5.266366 -1.278293 0.235239 0
M  V30 53 H -5.407669 -0.176725 -1.130603 0
M  V30 54 H -4.914352 -1.018785 -4.991089 0
M  V30 55 H -4.223137 -0.118590 -3.612870 0
M  V30 56 H -6.010674 -0.184142 -3.894700 0
M  V30 57 H -5.469712 -3.416502 -4.673973 0
M  V30 58 H -5.759386 -5.988738 -3.602444 0
M  V30 59 H -5.473606 -6.193197 0.610329 0
M  V30 60 H -5.111802 -3.708197 0.690718 0
M  V30 61 H 3.296550 -0.552171 1.683924 0
M  V30 62 H 2.951538 -2.955654 4.172881 0
M  V30 63 H 3.549646 -2.500322 2.520893 0
M  V30 64 H 2.231977 -1.566281 3.249764 0
M  V30 END ATOM
M  V30 BEGIN BOND
M  V30 1 1 1 2
M  V30 2 1 2 3
M  V30 3 2 3 4
M  V30 4 1 4 5
M  V30 5 2 5 6
M  V30 6 1 6 7
M  V30 7 2 7 8
M  V30 8 1 8 9
M  V30 9 1 9 10
M  V30 10 1 10 11
M  V30 11 2 11 12
M  V30 12 1 12 13
M  V30 13 2 13 14
M  V30 14 1 14 15
M  V30 15 2 15 16
M  V30 16 1 15 17
M  V30 17 1 17 18
M  V30 18 1 18 19
M  V30 19 1 19 20
M  V30 20 2 20 21
M  V30 21 1 20 22
M  V30 22 1 22 23
M  V30 23 2 23 24
M  V30 24 1 24 25
M  V30 25 1 24 26
M  V30 26 1 26 27
M  V30 27 2 27 28
M  V30 28 1 28 29
M  V30 29 1 29 30
M  V30 30 2 29 31
M  V30 31 1 31 32
M  V30 32 2 32 33
M  V30 33 2 9 34
M  V30 34 1 34 35
M  V30 35 2 35 36
M  V30 36 1 36 37
M  V30 37 1 37 38
M  V30 38 1 36 3
M  V30 39 1 34 5
M  V30 40 1 16 11
M  V30 41 1 33 23
M  V30 42 1 19 14
M  V30 43 1 33 27
M  V30 44 1 1 39
M  V30 45 1 1 40
M  V30 46 1 1 41
M  V30 47 1 4 42
M  V30 48 1 7 43
M  V30 49 1 10 44
M  V30 50 1 12 45
M  V30 51 1 13 46
M  V30 52 1 16 47
M  V30 53 1 17 48
M  V30 54 1 17 49
M  V30 55 1 18 50
M  V30 56 1 18 51
M  V30 57 1 22 52
M  V30 58 1 22 53
M  V30 59 1 25 54
M  V30 60 1 25 55
M  V30 61 1 25 56
M  V30 62 1 26 57
M  V30 63 1 28 58
M  V30 64 1 31 59
M  V30 65 1 32 60
M  V30 66 1 35 61
M  V30 67 1 38 62
M  V30 68 1 38 63
M  V30 69 1 38 64
M  V30 END BOND
M  V30 END CTAB
M  END
>  <Dataset>  (733) 
ChEMBL_Kinases

>  <Ligand_Instance>  (733) 
nan

>  <PDB_ID>  (733) 
nan

>  <Standardized_SMILES>  (733) 
COc1cc2ncnc(Nc3ccc4c(c3)CCN4C(=O)Cc3c(C)[nH]c4cc(F)ccc34)c2cc1OC

>  <Name>  (733) 
nan

>  <Pocket>  (733) 
nan

>  <ATP_Site>  (733) 
nan

>  <Peripheral>  (733) 
nan

>  <Num_H_Atoms_ProtBoundConf>  (733) 
nan

>  <Num_Resolved_Atoms>  (733) 
nan

>  <Num_Not_Resolved_Atoms>  (733) 
nan

$$$$
CHEMBL3355037
     RDKit          3D

  0  0  0  0  0  0  0  0  0  0999 V3000
M  V30 BEGIN CTAB
M  V30 COUNTS 64 69 0 0 0
M  V30 BEGIN ATOM
M  V30 1 C 4.266501 0.932476 6.036125 0
M  V30 2 O 3.331919 1.460239 5.150472 0
M  V30 3 C 3.488952 1.632978 3.782783 0
M  V30 4 C 4.617136 1.312835 3.045362 0
M  V30 5 C 4.624475 1.543879 1.674591 0
M  V30 6 N 5.750055 1.208303 0.978357 0
M  V30 7 C 5.768025 1.422734 -0.370423 0
M  V30 8 N 4.721330 1.954632 -1.061221 0
M  V30 9 C 3.604995 2.291176 -0.389923 0
M  V30 10 N 2.360559 2.847305 -0.861326 0
M  V30 11 C 1.213893 1.986005 -0.987721 0
M  V30 12 C -0.048523 2.478120 -1.290168 0
M  V30 13 C -1.138140 1.622489 -1.385848 0
M  V30 14 C -0.999556 0.246473 -1.181384 0
M  V30 15 C 0.298915 -0.182911 -0.881722 0
M  V30 16 C 1.410933 0.618172 -0.775506 0
M  V30 17 C 0.266354 -1.653669 -0.701565 0
M  V30 18 C -0.969389 -1.994763 -1.547984 0
M  V30 19 N -1.833891 -0.901320 -1.175880 0
M  V30 20 C -3.192433 -0.808393 -0.849703 0
M  V30 21 O -3.711508 0.332394 -0.578639 0
M  V30 22 C -4.344360 -1.713172 -0.700975 0
M  V30 23 C -4.029241 -3.138192 -1.071898 0
M  V30 24 C -3.931173 -3.613812 -2.386425 0
M  V30 25 C -4.133911 -2.754356 -3.562982 0
M  V30 26 N -3.637270 -4.917597 -2.243140 0
M  V30 27 C -3.546337 -5.284847 -0.953970 0
M  V30 28 C -3.279252 -6.452945 -0.272658 0
M  V30 29 C -3.259931 -6.496296 1.123769 0
M  V30 30 C -3.513069 -5.347843 1.843780 0
M  V30 31 C -3.791636 -4.127230 1.215426 0
M  V30 32 C -3.789252 -4.180181 -0.165521 0
M  V30 33 C 3.553545 2.084699 0.989936 0
M  V30 34 C 2.454458 2.383244 1.786649 0
M  V30 35 C 2.370281 2.183844 3.146135 0
M  V30 36 O 1.221684 2.517228 3.846335 0
M  V30 37 C 0.140242 3.065326 3.114771 0
M  V30 38 H 4.301087 -0.177796 6.083035 0
M  V30 39 H 5.295325 1.256663 5.760982 0
M  V30 40 H 4.106167 1.372060 7.056662 0
M  V30 41 H 5.446470 0.890657 3.593510 0
M  V30 42 H 6.630900 1.177170 -0.976351 0
M  V30 43 H 2.276564 3.862690 -1.113094 0
M  V30 44 H -0.159907 3.541211 -1.449469 0
M  V30 45 H -2.132328 1.975171 -1.618899 0
M  V30 46 H 2.393209 0.246370 -0.541361 0
M  V30 47 H 1.181114 -2.142205 -1.085060 0
M  V30 48 H 0.008717 -1.906173 0.335680 0
M  V30 49 H -0.651961 -1.909920 -2.616944 0
M  V30 50 H -1.346206 -2.993572 -1.303301 0
M  V30 51 H -4.752541 -1.742999 0.335015 0
M  V30 52 H -5.184428 -1.429359 -1.372418 0
M  V30 53 H -4.887095 -1.957558 -3.354232 0
M  V30 54 H -4.468232 -3.333711 -4.448786 0
M  V30 55 H -3.156423 -2.302549 -3.846064 0
M  V30 56 H -3.502071 -5.539679 -3.067456 0
M  V30 57 H -3.079900 -7.354956 -0.855748 0
M  V30 58 H -3.044883 -7.431024 1.662490 0
M  V30 59 H -3.516191 -5.303159 2.934443 0
M  V30 60 H -3.993824 -3.211029 1.742878 0
M  V30 61 H 1.587194 2.808543 1.309183 0
M  V30 62 H -0.759069 3.205149 3.750313 0
M  V30 63 H 0.409639 3.963791 2.553835 0
M  V30 64 H -0.106242 2.293811 2.326960 0
M  V30 END ATOM
M  V30 BEGIN BOND
M  V30 1 1 1 2
M  V30 2 1 2 3
M  V30 3 2 3 4
M  V30 4 1 4 5
M  V30 5 2 5 6
M  V30 6 1 6 7
M  V30 7 2 7 8
M  V30 8 1 8 9
M  V30 9 1 9 10
M  V30 10 1 10 11
M  V30 11 2 11 12
M  V30 12 1 12 13
M  V30 13 2 13 14
M  V30 14 1 14 15
M  V30 15 2 15 16
M  V30 16 1 15 17
M  V30 17 1 17 18
M  V30 18 1 18 19
M  V30 19 1 19 20
M  V30 20 2 20 21
M  V30 21 1 20 22
M  V30 22 1 22 23
M  V30 23 2 23 24
M  V30 24 1 24 25
M  V30 25 1 24 26
M  V30 26 1 26 27
M  V30 27 2 27 28
M  V30 28 1 28 29
M  V30 29 2 29 30
M  V30 30 1 30 31
M  V30 31 2 31 32
M  V30 32 2 9 33
M  V30 33 1 33 34
M  V30 34 2 34 35
M  V30 35 1 35 36
M  V30 36 1 36 37
M  V30 37 1 35 3
M  V30 38 1 33 5
M  V30 39 1 16 11
M  V30 40 1 32 23
M  V30 41 1 19 14
M  V30 42 1 32 27
M  V30 43 1 1 38
M  V30 44 1 1 39
M  V30 45 1 1 40
M  V30 46 1 4 41
M  V30 47 1 7 42
M  V30 48 1 10 43
M  V30 49 1 12 44
M  V30 50 1 13 45
M  V30 51 1 16 46
M  V30 52 1 17 47
M  V30 53 1 17 48
M  V30 54 1 18 49
M  V30 55 1 18 50
M  V30 56 1 22 51
M  V30 57 1 22 52
M  V30 58 1 25 53
M  V30 59 1 25 54
M  V30 60 1 25 55
M  V30 61 1 26 56
M  V30 62 1 28 57
M  V30 63 1 29 58
M  V30 64 1 30 59
M  V30 65 1 31 60
M  V30 66 1 34 61
M  V30 67 1 37 62
M  V30 68 1 37 63
M  V30 69 1 37 64
M  V30 END BOND
M  V30 END CTAB
M  END
>  <Dataset>  (734) 
ChEMBL_Kinases

>  <Ligand_Instance>  (734) 
nan

>  <PDB_ID>  (734) 
nan

>  <Standardized_SMILES>  (734) 
COc1cc2ncnc(Nc3ccc4c(c3)CCN4C(=O)Cc3c(C)[nH]c4ccccc34)c2cc1OC

>  <Name>  (734) 
nan

>  <Pocket>  (734) 
nan

>  <ATP_Site>  (734) 
nan

>  <Peripheral>  (734) 
nan

>  <Num_H_Atoms_ProtBoundConf>  (734) 
nan

>  <Num_Resolved_Atoms>  (734) 
nan

>  <Num_Not_Resolved_Atoms>  (734) 
nan

$$$$
CHEMBL3355036
     RDKit          3D

  0  0  0  0  0  0  0  0  0  0999 V3000
M  V30 BEGIN CTAB
M  V30 COUNTS 40 43 0 0 0
M  V30 BEGIN ATOM
M  V30 1 N 4.219224 -6.656049 2.041799 0
M  V30 2 C 3.549055 -5.841052 1.064508 0
M  V30 3 N 3.172410 -6.265964 -0.157725 0
M  V30 4 N 2.578643 -5.292801 -0.832225 0
M  V30 5 C 2.553585 -4.186836 -0.049025 0
M  V30 6 N 2.101233 -2.922769 -0.164492 0
M  V30 7 C 2.222731 -2.011693 0.819727 0
M  V30 8 C 1.717267 -0.654016 0.648919 0
M  V30 9 C 1.108380 -0.310082 -0.541319 0
M  V30 10 C 0.635482 0.978573 -0.687041 0
M  V30 11 C 0.721952 1.966494 0.272271 0
M  V30 12 N 0.219407 3.273387 0.069559 0
M  V30 13 S -1.343945 3.470994 -0.635329 0
M  V30 14 O -1.679347 4.940017 -0.771763 0
M  V30 15 O -1.366965 2.885322 -2.032554 0
M  V30 16 C -2.594169 2.752914 0.349385 0
M  V30 17 C -2.498662 2.085936 1.551612 0
M  V30 18 C -3.638867 1.601416 2.148501 0
M  V30 19 Cl -3.369653 0.775095 3.672400 0
M  V30 20 C -4.883564 1.763845 1.576566 0
M  V30 21 C -5.005126 2.425119 0.378493 0
M  V30 22 C -3.857960 2.915435 -0.227067 0
M  V30 23 F -4.126375 3.551383 -1.413882 0
M  V30 24 C 1.348756 1.556834 1.455141 0
M  V30 25 C 1.838745 0.284418 1.654018 0
M  V30 26 N 2.817484 -2.339445 1.988508 0
M  V30 27 C 3.310347 -3.593124 2.208519 0
M  V30 28 C 3.160626 -4.499109 1.160864 0
M  V30 29 H 5.175242 -6.947628 1.716588 0
M  V30 30 H 3.549172 -6.745236 2.849173 0
M  V30 31 H 2.170490 -5.278565 -1.794892 0
M  V30 32 H 1.024808 -1.059198 -1.311691 0
M  V30 33 H 0.174222 1.173074 -1.639128 0
M  V30 34 H 0.864230 4.039479 0.376576 0
M  V30 35 H -1.477643 2.025486 1.892179 0
M  V30 36 H -5.743313 1.347700 2.116547 0
M  V30 37 H -5.994630 2.517187 -0.010591 0
M  V30 38 H 1.445937 2.298142 2.252017 0
M  V30 39 H 2.311252 0.042121 2.596421 0
M  V30 40 H 3.793018 -3.915248 3.114258 0
M  V30 END ATOM
M  V30 BEGIN BOND
M  V30 1 1 1 2
M  V30 2 2 2 3
M  V30 3 1 3 4
M  V30 4 1 4 5
M  V30 5 2 5 6
M  V30 6 1 6 7
M  V30 7 1 7 8
M  V30 8 2 8 9
M  V30 9 1 9 10
M  V30 10 2 10 11
M  V30 11 1 11 12
M  V30 12 1 12 13
M  V30 13 2 13 14
M  V30 14 2 13 15
M  V30 15 1 13 16
M  V30 16 2 16 17
M  V30 17 1 17 18
M  V30 18 1 18 19
M  V30 19 2 18 20
M  V30 20 1 20 21
M  V30 21 2 21 22
M  V30 22 1 22 23
M  V30 23 1 11 24
M  V30 24 2 24 25
M  V30 25 2 7 26
M  V30 26 1 26 27
M  V30 27 2 27 28
M  V30 28 1 28 2
M  V30 29 1 28 5
M  V30 30 1 25 8
M  V30 31 1 22 16
M  V30 32 1 1 29
M  V30 33 1 1 30
M  V30 34 1 4 31
M  V30 35 1 9 32
M  V30 36 1 10 33
M  V30 37 1 12 34
M  V30 38 1 17 35
M  V30 39 1 20 36
M  V30 40 1 21 37
M  V30 41 1 24 38
M  V30 42 1 25 39
M  V30 43 1 27 40
M  V30 END BOND
M  V30 END CTAB
M  END
>  <Dataset>  (735) 
ChEMBL_Kinases

>  <Ligand_Instance>  (735) 
nan

>  <PDB_ID>  (735) 
nan

>  <Standardized_SMILES>  (735) 
Nc1n[nH]c2nc(-c3ccc(NS(=O)(=O)c4cc(Cl)ccc4F)cc3)ncc12

>  <Name>  (735) 
nan

>  <Pocket>  (735) 
nan

>  <ATP_Site>  (735) 
nan

>  <Peripheral>  (735) 
nan

>  <Num_H_Atoms_ProtBoundConf>  (735) 
nan

>  <Num_Resolved_Atoms>  (735) 
nan

>  <Num_Not_Resolved_Atoms>  (735) 
nan

$$$$
CHEMBL3355059
     RDKit          3D

  0  0  0  0  0  0  0  0  0  0999 V3000
M  V30 BEGIN CTAB
M  V30 COUNTS 49 52 0 0 0
M  V30 BEGIN ATOM
M  V30 1 C 3.732050 -2.512302 0.002448 0
M  V30 2 O 2.767629 -1.533960 0.225639 0
M  V30 3 C 2.903253 -0.177239 0.110222 0
M  V30 4 C 4.143378 0.285971 -0.273723 0
M  V30 5 C 4.318730 1.648260 -0.400877 0
M  V30 6 C 5.625502 2.159188 -0.806832 0
M  V30 7 C 6.789130 1.479761 -0.440121 0
M  V30 8 N 7.827981 2.182452 -0.952907 0
M  V30 9 N 7.363896 3.237708 -1.602484 0
M  V30 10 C 6.027231 3.259757 -1.536968 0
M  V30 11 C 3.252286 2.475919 -0.139623 0
M  V30 12 C 2.031837 1.967274 0.241116 0
M  V30 13 C 1.815283 0.614300 0.379635 0
M  V30 14 C 0.489177 0.189677 0.784121 0
M  V30 15 O -0.412943 1.045583 0.998252 0
M  V30 16 N -0.026651 -1.108703 1.001962 0
M  V30 17 C -1.380946 -1.290376 1.402545 0
M  V30 18 C -1.611292 -1.305874 2.757166 0
M  V30 19 C -2.872009 -1.472468 3.338947 0
M  V30 20 C -3.924970 -1.628312 2.429902 0
M  V30 21 C -3.718730 -1.616292 1.066371 0
M  V30 22 C -2.451751 -1.448137 0.545826 0
M  V30 23 C -4.737663 -1.769717 -0.031133 0
M  V30 24 C -5.486882 -3.073701 0.268986 0
M  V30 25 N -6.456617 -2.876727 1.316661 0
M  V30 26 C -5.885940 -3.115436 2.609603 0
M  V30 27 C -5.254900 -1.804166 3.094477 0
M  V30 28 H 4.603003 -2.446152 0.709976 0
M  V30 29 H 3.217175 -3.502557 0.138909 0
M  V30 30 H 4.154433 -2.535721 -1.015338 0
M  V30 31 H 4.957612 -0.398384 -0.470181 0
M  V30 32 H 6.867483 0.555317 0.148386 0
M  V30 33 H 7.955957 3.948543 -2.093674 0
M  V30 34 H 5.305638 3.958089 -1.941986 0
M  V30 35 H 3.371312 3.537743 -0.233952 0
M  V30 36 H 1.226457 2.692825 0.432716 0
M  V30 37 H 0.630168 -1.903309 0.854598 0
M  V30 38 H -0.817477 -1.187872 3.498499 0
M  V30 39 H -3.063786 -1.485540 4.386060 0
M  V30 40 H -2.243714 -1.432542 -0.516098 0
M  V30 41 H -4.252679 -1.839825 -1.007980 0
M  V30 42 H -5.484306 -0.970807 0.040987 0
M  V30 43 H -5.960609 -3.494362 -0.631068 0
M  V30 44 H -4.739206 -3.812179 0.616373 0
M  V30 45 H -7.319606 -3.441813 1.183395 0
M  V30 46 H -6.556000 -3.540677 3.353029 0
M  V30 47 H -5.044489 -3.850688 2.457357 0
M  V30 48 H -5.129711 -1.782309 4.175376 0
M  V30 49 H -5.950824 -0.987671 2.771002 0
M  V30 END ATOM
M  V30 BEGIN BOND
M  V30 1 1 1 2
M  V30 2 1 2 3
M  V30 3 2 3 4
M  V30 4 1 4 5
M  V30 5 1 5 6
M  V30 6 1 6 7
M  V30 7 2 7 8
M  V30 8 1 8 9
M  V30 9 1 9 10
M  V30 10 2 5 11
M  V30 11 1 11 12
M  V30 12 2 12 13
M  V30 13 1 13 14
M  V30 14 2 14 15
M  V30 15 1 14 16
M  V30 16 1 16 17
M  V30 17 2 17 18
M  V30 18 1 18 19
M  V30 19 2 19 20
M  V30 20 1 20 21
M  V30 21 2 21 22
M  V30 22 1 21 23
M  V30 23 1 23 24
M  V30 24 1 24 25
M  V30 25 1 25 26
M  V30 26 1 26 27
M  V30 27 1 13 3
M  V30 28 1 22 17
M  V30 29 2 10 6
M  V30 30 1 27 20
M  V30 31 1 1 28
M  V30 32 1 1 29
M  V30 33 1 1 30
M  V30 34 1 4 31
M  V30 35 1 7 32
M  V30 36 1 9 33
M  V30 37 1 10 34
M  V30 38 1 11 35
M  V30 39 1 12 36
M  V30 40 1 16 37
M  V30 41 1 18 38
M  V30 42 1 19 39
M  V30 43 1 22 40
M  V30 44 1 23 41
M  V30 45 1 23 42
M  V30 46 1 24 43
M  V30 47 1 24 44
M  V30 48 1 25 45
M  V30 49 1 26 46
M  V30 50 1 26 47
M  V30 51 1 27 48
M  V30 52 1 27 49
M  V30 END BOND
M  V30 END CTAB
M  END
>  <Dataset>  (736) 
ChEMBL_Kinases

>  <Ligand_Instance>  (736) 
nan

>  <PDB_ID>  (736) 
nan

>  <Standardized_SMILES>  (736) 
COc1cc(-c2cn[nH]c2)ccc1C(=O)Nc1ccc2c(c1)CCNCC2

>  <Name>  (736) 
nan

>  <Pocket>  (736) 
nan

>  <ATP_Site>  (736) 
nan

>  <Peripheral>  (736) 
nan

>  <Num_H_Atoms_ProtBoundConf>  (736) 
nan

>  <Num_Resolved_Atoms>  (736) 
nan

>  <Num_Not_Resolved_Atoms>  (736) 
nan

$$$$
CHEMBL3355476
     RDKit          3D

  0  0  0  0  0  0  0  0  0  0999 V3000
M  V30 BEGIN CTAB
M  V30 COUNTS 46 50 0 0 0
M  V30 BEGIN ATOM
M  V30 1 C 2.293692 -1.498533 2.830028 0
M  V30 2 C 1.678978 -2.648430 2.092572 0 CFG=2
M  V30 3 C 2.541328 -3.870856 2.295443 0
M  V30 4 O 3.834634 -3.583928 1.909344 0
M  V30 5 C 3.941918 -3.118692 0.615009 0
M  V30 6 C 2.634142 -3.117079 -0.131529 0
M  V30 7 N 1.636391 -2.411371 0.648855 0
M  V30 8 C 0.622883 -1.518925 0.188291 0
M  V30 9 N 0.572346 -0.231179 0.615859 0
M  V30 10 C -0.371443 0.646540 0.203889 0
M  V30 11 C -0.295686 1.998605 0.752474 0
M  V30 12 C 0.461974 2.895741 0.039139 0
M  V30 13 F 1.098951 2.533064 -1.109073 0
M  V30 14 N 0.551010 4.158607 0.523717 0
M  V30 15 C -0.067673 4.551960 1.659143 0
M  V30 16 C -0.845970 3.664260 2.408541 0
M  V30 17 N -1.549043 3.787121 3.539653 0
M  V30 18 C -2.103238 2.569812 3.785879 0
M  V30 19 C -1.736866 1.675902 2.788907 0
M  V30 20 C -0.932647 2.389061 1.914309 0
M  V30 21 C -1.344263 0.246658 -0.693527 0
M  V30 22 C -1.340122 -1.062101 -1.164598 0
M  V30 23 C -0.346056 -1.935069 -0.712014 0
M  V30 24 N -0.577327 -3.110523 -1.316875 0
M  V30 25 C -1.667691 -3.020693 -2.127751 0
M  V30 26 N -2.126304 -1.744470 -2.020009 0
M  V30 27 C -3.276534 -1.126580 -2.685808 0
M  V30 28 H 2.626553 -0.691563 2.160012 0
M  V30 29 H 3.162957 -1.791601 3.472101 0
M  V30 30 H 1.553718 -1.022967 3.531082 0
M  V30 31 H 0.649537 -2.788683 2.458765 0
M  V30 32 H 2.598153 -4.113282 3.389528 0
M  V30 33 H 2.157951 -4.734934 1.710110 0
M  V30 34 H 4.342045 -2.079042 0.562959 0
M  V30 35 H 4.676013 -3.760040 0.085329 0
M  V30 36 H 2.829609 -2.604554 -1.096631 0
M  V30 37 H 2.258900 -4.156235 -0.273880 0
M  V30 38 H 0.055734 5.580651 1.976390 0
M  V30 39 H -1.617407 4.674581 4.079560 0
M  V30 40 H -2.744010 2.342626 4.650215 0
M  V30 41 H -2.020212 0.622689 2.703230 0
M  V30 42 H -2.091728 0.952572 -1.015911 0
M  V30 43 H -2.108974 -3.789935 -2.747872 0
M  V30 44 H -3.049578 -0.071206 -2.987384 0
M  V30 45 H -3.540213 -1.658290 -3.622483 0
M  V30 46 H -4.138133 -1.076158 -1.997087 0
M  V30 END ATOM
M  V30 BEGIN BOND
M  V30 1 1 1 2
M  V30 2 1 2 3
M  V30 3 1 3 4
M  V30 4 1 4 5
M  V30 5 1 5 6
M  V30 6 1 6 7
M  V30 7 1 7 8
M  V30 8 2 8 9
M  V30 9 1 9 10
M  V30 10 1 10 11
M  V30 11 2 11 12
M  V30 12 1 12 13
M  V30 13 1 12 14
M  V30 14 2 14 15
M  V30 15 1 15 16
M  V30 16 1 16 17
M  V30 17 1 17 18
M  V30 18 2 18 19
M  V30 19 1 19 20
M  V30 20 2 10 21
M  V30 21 1 21 22
M  V30 22 2 22 23
M  V30 23 1 23 24
M  V30 24 2 24 25
M  V30 25 1 25 26
M  V30 26 1 26 27
M  V30 27 1 7 2
M  V30 28 1 23 8
M  V30 29 1 20 11
M  V30 30 1 26 22
M  V30 31 2 20 16
M  V30 32 1 1 28
M  V30 33 1 1 29
M  V30 34 1 1 30
M  V30 35 1 2 31 CFG=1
M  V30 36 1 3 32
M  V30 37 1 3 33
M  V30 38 1 5 34
M  V30 39 1 5 35
M  V30 40 1 6 36
M  V30 41 1 6 37
M  V30 42 1 15 38
M  V30 43 1 17 39
M  V30 44 1 18 40
M  V30 45 1 19 41
M  V30 46 1 21 42
M  V30 47 1 25 43
M  V30 48 1 27 44
M  V30 49 1 27 45
M  V30 50 1 27 46
M  V30 END BOND
M  V30 END CTAB
M  END
>  <Dataset>  (737) 
ChEMBL_Kinases

>  <Ligand_Instance>  (737) 
nan

>  <PDB_ID>  (737) 
nan

>  <Standardized_SMILES>  (737) 
C[C@@H]1COCCN1c1nc(-c2c(F)ncc3[nH]ccc23)cc2c1ncn2C

>  <Name>  (737) 
nan

>  <Pocket>  (737) 
nan

>  <ATP_Site>  (737) 
nan

>  <Peripheral>  (737) 
nan

>  <Num_H_Atoms_ProtBoundConf>  (737) 
nan

>  <Num_Resolved_Atoms>  (737) 
nan

>  <Num_Not_Resolved_Atoms>  (737) 
nan

$$$$
CHEMBL3355475
     RDKit          3D

  0  0  0  0  0  0  0  0  0  0999 V3000
M  V30 BEGIN CTAB
M  V30 COUNTS 46 50 0 0 0
M  V30 BEGIN ATOM
M  V30 1 C 1.867288 -4.349951 1.547172 0
M  V30 2 C 1.331032 -3.636188 0.290032 0 CFG=2
M  V30 3 C 2.314428 -3.963313 -0.792704 0
M  V30 4 O 3.437144 -3.214873 -0.837368 0
M  V30 5 C 3.566240 -2.116290 -0.100977 0
M  V30 6 C 2.627543 -1.878107 1.041982 0
M  V30 7 N 1.297689 -2.248156 0.583007 0
M  V30 8 C 0.181622 -1.372650 0.467432 0
M  V30 9 N 0.233932 -0.113680 0.932897 0
M  V30 10 C -0.738203 0.783400 0.890336 0
M  V30 11 C -0.704861 2.145383 1.396077 0
M  V30 12 C -1.748926 3.009251 1.262703 0
M  V30 13 N -1.759299 4.271379 1.718671 0
M  V30 14 C -0.710864 4.814689 2.367278 0
M  V30 15 C 0.384418 4.001025 2.541143 0
M  V30 16 N 1.565264 4.250151 3.142227 0
M  V30 17 C 2.340087 3.160601 3.079950 0
M  V30 18 C 1.599431 2.211854 2.414045 0
M  V30 19 C 0.363712 2.706750 2.060141 0
M  V30 20 C -1.910637 0.352420 0.302732 0
M  V30 21 C -2.063418 -0.930586 -0.208564 0
M  V30 22 C -0.992636 -1.813381 -0.124176 0
M  V30 23 N -1.419538 -2.951856 -0.688525 0
M  V30 24 C -2.684909 -2.859400 -1.126610 0
M  V30 25 N -3.067768 -1.608551 -0.823735 0
M  V30 26 C -4.370107 -1.075795 -1.118708 0
M  V30 27 H 2.974784 -4.410580 1.526483 0
M  V30 28 H 1.460892 -5.386598 1.617656 0
M  V30 29 H 1.557030 -3.837895 2.474028 0
M  V30 30 H 0.386541 -4.139770 0.083187 0
M  V30 31 H 1.780275 -3.876196 -1.762307 0
M  V30 32 H 2.599671 -5.034150 -0.695806 0
M  V30 33 H 4.602878 -2.032255 0.297419 0
M  V30 34 H 3.463841 -1.212560 -0.766151 0
M  V30 35 H 2.666547 -0.808690 1.315557 0
M  V30 36 H 2.929807 -2.426871 1.965766 0
M  V30 37 H -2.674284 2.782602 0.781411 0
M  V30 38 H -0.690162 5.821346 2.743284 0
M  V30 39 H 1.852892 5.142850 3.591877 0
M  V30 40 H 3.355337 3.005614 3.462221 0
M  V30 41 H 1.936814 1.215831 2.199394 0
M  V30 42 H -2.824785 0.926156 0.167810 0
M  V30 43 H -3.267302 -3.630314 -1.617872 0
M  V30 44 H -4.341967 -0.720464 -2.182085 0
M  V30 45 H -4.634507 -0.185856 -0.493923 0
M  V30 46 H -5.184667 -1.812796 -1.036503 0
M  V30 END ATOM
M  V30 BEGIN BOND
M  V30 1 1 1 2
M  V30 2 1 2 3
M  V30 3 1 3 4
M  V30 4 1 4 5
M  V30 5 1 5 6
M  V30 6 1 6 7
M  V30 7 1 7 8
M  V30 8 2 8 9
M  V30 9 1 9 10
M  V30 10 1 10 11
M  V30 11 2 11 12
M  V30 12 1 12 13
M  V30 13 2 13 14
M  V30 14 1 14 15
M  V30 15 1 15 16
M  V30 16 1 16 17
M  V30 17 2 17 18
M  V30 18 1 18 19
M  V30 19 2 10 20
M  V30 20 1 20 21
M  V30 21 2 21 22
M  V30 22 1 22 23
M  V30 23 2 23 24
M  V30 24 1 24 25
M  V30 25 1 25 26
M  V30 26 1 7 2
M  V30 27 1 22 8
M  V30 28 1 19 11
M  V30 29 1 25 21
M  V30 30 2 19 15
M  V30 31 1 1 27
M  V30 32 1 1 28
M  V30 33 1 1 29
M  V30 34 1 2 30 CFG=3
M  V30 35 1 3 31
M  V30 36 1 3 32
M  V30 37 1 5 33
M  V30 38 1 5 34
M  V30 39 1 6 35
M  V30 40 1 6 36
M  V30 41 1 12 37
M  V30 42 1 14 38
M  V30 43 1 16 39
M  V30 44 1 17 40
M  V30 45 1 18 41
M  V30 46 1 20 42
M  V30 47 1 24 43
M  V30 48 1 26 44
M  V30 49 1 26 45
M  V30 50 1 26 46
M  V30 END BOND
M  V30 END CTAB
M  END
>  <Dataset>  (738) 
ChEMBL_Kinases

>  <Ligand_Instance>  (738) 
nan

>  <PDB_ID>  (738) 
nan

>  <Standardized_SMILES>  (738) 
C[C@@H]1COCCN1c1nc(-c2cncc3[nH]ccc23)cc2c1ncn2C

>  <Name>  (738) 
nan

>  <Pocket>  (738) 
nan

>  <ATP_Site>  (738) 
nan

>  <Peripheral>  (738) 
nan

>  <Num_H_Atoms_ProtBoundConf>  (738) 
nan

>  <Num_Resolved_Atoms>  (738) 
nan

>  <Num_Not_Resolved_Atoms>  (738) 
nan

$$$$
CHEMBL3355474
     RDKit          3D

  0  0  0  0  0  0  0  0  0  0999 V3000
M  V30 BEGIN CTAB
M  V30 COUNTS 55 59 0 0 0
M  V30 BEGIN ATOM
M  V30 1 C 0.986737 -2.860227 4.702881 0
M  V30 2 C 1.869190 -2.482104 3.520668 0 CFG=2
M  V30 3 C 3.303644 -2.294224 4.040125 0
M  V30 4 O 3.193637 -1.414527 5.107695 0
M  V30 5 C 2.881162 -0.147843 4.681554 0
M  V30 6 C 1.813972 -0.027172 3.678450 0
M  V30 7 N 1.437122 -1.240278 2.976745 0
M  V30 8 C 0.647150 -1.086514 1.774016 0
M  V30 9 N 0.338345 0.130338 1.350483 0
M  V30 10 C -0.376744 0.469578 0.268516 0
M  V30 11 C -0.525620 1.884806 0.036326 0
M  V30 12 C 0.347857 2.746544 0.713360 0
M  V30 13 N 0.293829 4.082316 0.588710 0
M  V30 14 C -0.607091 4.690269 -0.197967 0
M  V30 15 C -1.500270 3.910006 -0.894061 0
M  V30 16 N -2.506181 4.228286 -1.725418 0
M  V30 17 C -3.088392 3.083096 -2.122742 0
M  V30 18 C -2.421292 2.052919 -1.520289 0
M  V30 19 C -1.426654 2.549324 -0.751644 0
M  V30 20 C -0.784480 -0.634124 -0.404195 0
M  V30 21 C -0.530372 -1.938480 -0.067177 0
M  V30 22 C 0.215042 -2.176762 1.066993 0
M  V30 23 N 0.321678 -3.490002 1.179645 0
M  V30 24 C -0.334939 -4.051868 0.150478 0
M  V30 25 N -0.886784 -3.096865 -0.658969 0
M  V30 26 C -1.651694 -3.349757 -1.842064 0 CFG=1
M  V30 27 C -2.870081 -2.479283 -2.002810 0
M  V30 28 S -0.650024 -3.354048 -3.311394 0
M  V30 29 C 0.005577 -1.720950 -3.541519 0
M  V30 30 O -1.472434 -3.686273 -4.523547 0
M  V30 31 O 0.435437 -4.379656 -3.233208 0
M  V30 32 H -0.021534 -3.030651 4.303271 0
M  V30 33 H 0.981032 -1.998696 5.386330 0
M  V30 34 H 1.372805 -3.793499 5.172419 0
M  V30 35 H 1.931152 -3.334145 2.850404 0
M  V30 36 H 3.921108 -1.942339 3.212114 0
M  V30 37 H 3.732120 -3.248283 4.389538 0
M  V30 38 H 2.704054 0.484617 5.590928 0
M  V30 39 H 3.822969 0.278350 4.226817 0
M  V30 40 H 0.873502 0.274463 4.227983 0
M  V30 41 H 1.954314 0.773707 2.925027 0
M  V30 42 H 1.137385 2.444036 1.389776 0
M  V30 43 H -0.655076 5.763158 -0.303128 0
M  V30 44 H -2.746371 5.204311 -1.980696 0
M  V30 45 H -3.914394 3.087541 -2.788716 0
M  V30 46 H -2.748758 1.061922 -1.702851 0
M  V30 47 H -1.329227 -0.466709 -1.287772 0
M  V30 48 H -0.370736 -5.130364 0.053730 0
M  V30 49 H -2.030600 -4.412370 -1.763881 0
M  V30 50 H -3.743727 -3.121652 -2.224901 0
M  V30 51 H -3.096537 -2.051483 -0.985778 0
M  V30 52 H -2.731188 -1.696089 -2.776851 0
M  V30 53 H -0.801294 -0.963765 -3.572225 0
M  V30 54 H 0.529251 -1.624049 -4.520108 0
M  V30 55 H 0.717501 -1.415475 -2.753824 0
M  V30 END ATOM
M  V30 BEGIN BOND
M  V30 1 1 1 2
M  V30 2 1 2 3
M  V30 3 1 3 4
M  V30 4 1 4 5
M  V30 5 1 5 6
M  V30 6 1 6 7
M  V30 7 1 7 8
M  V30 8 2 8 9
M  V30 9 1 9 10
M  V30 10 1 10 11
M  V30 11 2 11 12
M  V30 12 1 12 13
M  V30 13 2 13 14
M  V30 14 1 14 15
M  V30 15 1 15 16
M  V30 16 1 16 17
M  V30 17 2 17 18
M  V30 18 1 18 19
M  V30 19 2 10 20
M  V30 20 1 20 21
M  V30 21 2 21 22
M  V30 22 1 22 23
M  V30 23 2 23 24
M  V30 24 1 24 25
M  V30 25 1 25 26
M  V30 26 1 26 27
M  V30 27 1 26 28
M  V30 28 1 28 29
M  V30 29 2 28 30
M  V30 30 2 28 31
M  V30 31 1 7 2
M  V30 32 1 22 8
M  V30 33 1 19 11
M  V30 34 1 25 21
M  V30 35 2 19 15
M  V30 36 1 1 32
M  V30 37 1 1 33
M  V30 38 1 1 34
M  V30 39 1 2 35 CFG=3
M  V30 40 1 3 36
M  V30 41 1 3 37
M  V30 42 1 5 38
M  V30 43 1 5 39
M  V30 44 1 6 40
M  V30 45 1 6 41
M  V30 46 1 12 42
M  V30 47 1 14 43
M  V30 48 1 16 44
M  V30 49 1 17 45
M  V30 50 1 18 46
M  V30 51 1 20 47
M  V30 52 1 24 48
M  V30 53 1 26 49 CFG=1
M  V30 54 1 27 50
M  V30 55 1 27 51
M  V30 56 1 27 52
M  V30 57 1 29 53
M  V30 58 1 29 54
M  V30 59 1 29 55
M  V30 END BOND
M  V30 END CTAB
M  END
>  <Dataset>  (739) 
ChEMBL_Kinases

>  <Ligand_Instance>  (739) 
nan

>  <PDB_ID>  (739) 
nan

>  <Standardized_SMILES>  (739) 
C[C@@H]1COCCN1c1nc(-c2cncc3[nH]ccc23)cc2c1ncn2[C@@H](C)S(C)(=O)=O

>  <Name>  (739) 
nan

>  <Pocket>  (739) 
nan

>  <ATP_Site>  (739) 
nan

>  <Peripheral>  (739) 
nan

>  <Num_H_Atoms_ProtBoundConf>  (739) 
nan

>  <Num_Resolved_Atoms>  (739) 
nan

>  <Num_Not_Resolved_Atoms>  (739) 
nan

$$$$
CHEMBL3355473
     RDKit          3D

  0  0  0  0  0  0  0  0  0  0999 V3000
M  V30 BEGIN CTAB
M  V30 COUNTS 53 57 0 0 0
M  V30 BEGIN ATOM
M  V30 1 C 2.442352 -0.348516 1.660848 0
M  V30 2 C 1.776551 -0.341738 3.033369 0 CFG=2
M  V30 3 C 2.666470 -1.175243 3.932728 0
M  V30 4 O 2.139309 -1.403733 5.181818 0
M  V30 5 C 0.858944 -0.871324 5.329307 0
M  V30 6 C -0.022230 -1.489253 4.261839 0
M  V30 7 N 0.487809 -0.994069 2.984723 0
M  V30 8 C -0.129883 -1.077052 1.706296 0
M  V30 9 N -0.387001 0.081330 1.093802 0
M  V30 10 C -0.964276 0.197050 -0.114237 0
M  V30 11 C -1.240247 1.466566 -0.773613 0
M  V30 12 C -1.833036 1.576266 -2.013294 0
M  V30 13 C -2.086067 2.788027 -2.621303 0
M  V30 14 C -1.741994 3.962577 -1.985546 0
M  V30 15 C -1.148353 3.861630 -0.744681 0
M  V30 16 N -0.729895 4.863213 0.057302 0
M  V30 17 C -0.203308 4.358223 1.186053 0
M  V30 18 C -0.311202 2.990624 1.054411 0
M  V30 19 C -0.893179 2.637289 -0.131375 0
M  V30 20 C -1.280020 -1.015683 -0.689181 0
M  V30 21 C -1.037688 -2.244054 -0.102747 0
M  V30 22 C -0.443760 -2.291730 1.135343 0
M  V30 23 N -0.300032 -3.560918 1.519570 0
M  V30 24 C -0.804394 -4.330959 0.522689 0
M  V30 25 N -1.249378 -3.528316 -0.456521 0
M  V30 26 C -1.849179 -3.988794 -1.672915 0
M  V30 27 S -0.519781 -4.206710 -2.859059 0
M  V30 28 C 0.647418 -5.415256 -2.223144 0
M  V30 29 O -1.014432 -4.600199 -4.200862 0
M  V30 30 O 0.231119 -2.907505 -2.930991 0
M  V30 31 H 3.525169 -0.138677 1.747271 0
M  V30 32 H 2.010695 0.402537 0.978858 0
M  V30 33 H 2.375494 -1.350650 1.187764 0
M  V30 34 H 1.682101 0.708880 3.354248 0
M  V30 35 H 3.647490 -0.661118 3.972324 0
M  V30 36 H 2.839392 -2.139683 3.376788 0
M  V30 37 H 0.852826 0.221021 5.200463 0
M  V30 38 H 0.486300 -1.215984 6.316878 0
M  V30 39 H 0.208587 -2.589174 4.253769 0
M  V30 40 H -1.088906 -1.286199 4.409557 0
M  V30 41 H -2.120636 0.692994 -2.551371 0
M  V30 42 H -2.553094 2.825121 -3.594615 0
M  V30 43 H -1.944910 4.908978 -2.471308 0
M  V30 44 H -0.772218 5.909803 -0.101537 0
M  V30 45 H 0.223465 4.883756 2.037436 0
M  V30 46 H 0.027286 2.302039 1.804599 0
M  V30 47 H -1.743984 -1.081695 -1.649446 0
M  V30 48 H -0.833170 -5.431104 0.536925 0
M  V30 49 H -2.473436 -4.889165 -1.579945 0
M  V30 50 H -2.497076 -3.200391 -2.121054 0
M  V30 51 H 1.248798 -4.926460 -1.433502 0
M  V30 52 H 1.328528 -5.719264 -3.022577 0
M  V30 53 H 0.096728 -6.231289 -1.724550 0
M  V30 END ATOM
M  V30 BEGIN BOND
M  V30 1 1 1 2
M  V30 2 1 2 3
M  V30 3 1 3 4
M  V30 4 1 4 5
M  V30 5 1 5 6
M  V30 6 1 6 7
M  V30 7 1 7 8
M  V30 8 2 8 9
M  V30 9 1 9 10
M  V30 10 1 10 11
M  V30 11 2 11 12
M  V30 12 1 12 13
M  V30 13 2 13 14
M  V30 14 1 14 15
M  V30 15 1 15 16
M  V30 16 1 16 17
M  V30 17 2 17 18
M  V30 18 1 18 19
M  V30 19 2 10 20
M  V30 20 1 20 21
M  V30 21 2 21 22
M  V30 22 1 22 23
M  V30 23 2 23 24
M  V30 24 1 24 25
M  V30 25 1 25 26
M  V30 26 1 26 27
M  V30 27 1 27 28
M  V30 28 2 27 29
M  V30 29 2 27 30
M  V30 30 1 7 2
M  V30 31 1 22 8
M  V30 32 1 19 11
M  V30 33 1 25 21
M  V30 34 2 19 15
M  V30 35 1 1 31
M  V30 36 1 1 32
M  V30 37 1 1 33
M  V30 38 1 2 34 CFG=1
M  V30 39 1 3 35
M  V30 40 1 3 36
M  V30 41 1 5 37
M  V30 42 1 5 38
M  V30 43 1 6 39
M  V30 44 1 6 40
M  V30 45 1 12 41
M  V30 46 1 13 42
M  V30 47 1 14 43
M  V30 48 1 16 44
M  V30 49 1 17 45
M  V30 50 1 18 46
M  V30 51 1 20 47
M  V30 52 1 24 48
M  V30 53 1 26 49
M  V30 54 1 26 50
M  V30 55 1 28 51
M  V30 56 1 28 52
M  V30 57 1 28 53
M  V30 END BOND
M  V30 END CTAB
M  END
>  <Dataset>  (740) 
ChEMBL_Kinases

>  <Ligand_Instance>  (740) 
nan

>  <PDB_ID>  (740) 
nan

>  <Standardized_SMILES>  (740) 
C[C@@H]1COCCN1c1nc(-c2cccc3[nH]ccc23)cc2c1ncn2CS(C)(=O)=O

>  <Name>  (740) 
nan

>  <Pocket>  (740) 
nan

>  <ATP_Site>  (740) 
nan

>  <Peripheral>  (740) 
nan

>  <Num_H_Atoms_ProtBoundConf>  (740) 
nan

>  <Num_Resolved_Atoms>  (740) 
nan

>  <Num_Not_Resolved_Atoms>  (740) 
nan

$$$$
CHEMBL3355472
     RDKit          3D

  0  0  0  0  0  0  0  0  0  0999 V3000
M  V30 BEGIN CTAB
M  V30 COUNTS 50 54 0 0 0
M  V30 BEGIN ATOM
M  V30 1 C 0.455875 -3.718850 3.184992 0
M  V30 2 S 2.029479 -4.352250 2.726086 0
M  V30 3 O 3.058887 -3.994296 3.745611 0
M  V30 4 O 1.980551 -5.866726 2.657120 0
M  V30 5 C 2.510455 -3.815092 1.095276 0
M  V30 6 N 2.592809 -2.383654 1.001323 0
M  V30 7 C 3.680147 -1.611038 1.241543 0
M  V30 8 N 3.371279 -0.310498 1.049163 0
M  V30 9 C 2.100078 -0.252136 0.689781 0
M  V30 10 C 1.225780 0.734780 0.365741 0
M  V30 11 N 1.601468 2.107419 0.355377 0
M  V30 12 C 0.674369 3.182326 0.029029 0
M  V30 13 C 0.777657 4.361694 0.915323 0
M  V30 14 O 1.916189 4.540788 1.630168 0
M  V30 15 C 2.652447 3.439955 1.959342 0
M  V30 16 C 2.891583 2.681774 0.644643 0
M  V30 17 N -0.024526 0.458578 0.039203 0
M  V30 18 C -0.608140 -0.751210 -0.025876 0
M  V30 19 C -2.006191 -0.815302 -0.369762 0
M  V30 20 C -2.727011 0.376868 -0.223709 0
M  V30 21 C -4.063883 0.472264 -0.528888 0
M  V30 22 C -4.751227 -0.621647 -0.997749 0
M  V30 23 C -4.078334 -1.810100 -1.156609 0
M  V30 24 N -4.489453 -3.005692 -1.607982 0
M  V30 25 C -3.429649 -3.832798 -1.588846 0
M  V30 26 C -2.360834 -3.127636 -1.118419 0
M  V30 27 C -2.743985 -1.855754 -0.838458 0
M  V30 28 C 0.297320 -1.716132 0.306617 0
M  V30 29 C 1.607830 -1.536668 0.657382 0
M  V30 30 H 0.282705 -4.000653 4.243884 0
M  V30 31 H -0.354515 -4.189598 2.579182 0
M  V30 32 H 0.452840 -2.624721 3.118209 0
M  V30 33 H 3.460989 -4.322081 0.834943 0
M  V30 34 H 1.752768 -4.174773 0.373273 0
M  V30 35 H 4.659005 -1.998323 1.546230 0
M  V30 36 H -0.373785 2.831719 -0.030025 0
M  V30 37 H 0.940260 3.523807 -1.009474 0
M  V30 38 H -0.069721 4.295970 1.657328 0
M  V30 39 H 0.536645 5.309202 0.348951 0
M  V30 40 H 3.589152 3.739203 2.422769 0
M  V30 41 H 2.024051 2.821570 2.643061 0
M  V30 42 H 3.197669 3.474736 -0.075020 0
M  V30 43 H 3.723335 1.992882 0.716547 0
M  V30 44 H -2.257848 1.292920 0.142275 0
M  V30 45 H -4.582632 1.408981 -0.401176 0
M  V30 46 H -5.798418 -0.571437 -1.242473 0
M  V30 47 H -5.464239 -3.228288 -1.913469 0
M  V30 48 H -3.493483 -4.862709 -1.906452 0
M  V30 49 H -1.416764 -3.609839 -1.044566 0
M  V30 50 H -0.047462 -2.728973 0.327842 0
M  V30 END ATOM
M  V30 BEGIN BOND
M  V30 1 1 1 2
M  V30 2 2 2 3
M  V30 3 2 2 4
M  V30 4 1 2 5
M  V30 5 1 5 6
M  V30 6 1 6 7
M  V30 7 2 7 8
M  V30 8 1 8 9
M  V30 9 2 9 10
M  V30 10 1 10 11
M  V30 11 1 11 12
M  V30 12 1 12 13
M  V30 13 1 13 14
M  V30 14 1 14 15
M  V30 15 1 15 16
M  V30 16 1 10 17
M  V30 17 2 17 18
M  V30 18 1 18 19
M  V30 19 2 19 20
M  V30 20 1 20 21
M  V30 21 2 21 22
M  V30 22 1 22 23
M  V30 23 1 23 24
M  V30 24 1 24 25
M  V30 25 2 25 26
M  V30 26 1 26 27
M  V30 27 1 18 28
M  V30 28 2 28 29
M  V30 29 1 29 6
M  V30 30 1 29 9
M  V30 31 1 16 11
M  V30 32 1 27 19
M  V30 33 2 27 23
M  V30 34 1 1 30
M  V30 35 1 1 31
M  V30 36 1 1 32
M  V30 37 1 5 33
M  V30 38 1 5 34
M  V30 39 1 7 35
M  V30 40 1 12 36
M  V30 41 1 12 37
M  V30 42 1 13 38
M  V30 43 1 13 39
M  V30 44 1 15 40
M  V30 45 1 15 41
M  V30 46 1 16 42
M  V30 47 1 16 43
M  V30 48 1 20 44
M  V30 49 1 21 45
M  V30 50 1 22 46
M  V30 51 1 24 47
M  V30 52 1 25 48
M  V30 53 1 26 49
M  V30 54 1 28 50
M  V30 END BOND
M  V30 END CTAB
M  END
>  <Dataset>  (741) 
ChEMBL_Kinases

>  <Ligand_Instance>  (741) 
nan

>  <PDB_ID>  (741) 
nan

>  <Standardized_SMILES>  (741) 
CS(=O)(=O)Cn1cnc2c(N3CCOCC3)nc(-c3cccc4[nH]ccc34)cc21

>  <Name>  (741) 
nan

>  <Pocket>  (741) 
nan

>  <ATP_Site>  (741) 
nan

>  <Peripheral>  (741) 
nan

>  <Num_H_Atoms_ProtBoundConf>  (741) 
nan

>  <Num_Resolved_Atoms>  (741) 
nan

>  <Num_Not_Resolved_Atoms>  (741) 
nan

$$$$
CHEMBL3355182
     RDKit          3D

  0  0  0  0  0  0  0  0  0  0999 V3000
M  V30 BEGIN CTAB
M  V30 COUNTS 60 63 0 0 0
M  V30 BEGIN ATOM
M  V30 1 C 4.476904 -1.297674 4.029159 0
M  V30 2 N 3.560969 -1.256388 2.925654 0
M  V30 3 C 2.814242 -0.041718 2.835647 0
M  V30 4 C 3.624152 1.113977 2.292817 0
M  V30 5 C 4.274766 0.699172 1.017263 0
M  V30 6 C 4.003502 1.652712 -0.123469 0
M  V30 7 N 2.604639 1.782521 -0.424482 0
M  V30 8 C 2.087525 2.617943 -1.453785 0
M  V30 9 O 2.890982 3.284344 -2.144739 0
M  V30 10 C 0.662208 2.737294 -1.745427 0
M  V30 11 C 0.303033 3.585170 -2.772434 0
M  V30 12 C -1.057755 3.714280 -3.068528 0
M  V30 13 C -2.030349 3.021206 -2.364467 0
M  V30 14 C -1.663102 2.162650 -1.324144 0
M  V30 15 N -2.610144 1.420523 -0.560134 0
M  V30 16 C -2.289064 0.255262 0.068177 0
M  V30 17 C -3.420773 -0.217409 0.721806 0
M  V30 18 N -3.399928 -1.442265 1.482331 0
M  V30 19 C -3.711110 -2.659666 0.826914 0
M  V30 20 O -4.003221 -2.656863 -0.416816 0
M  V30 21 N -3.725123 -3.937993 1.468625 0
M  V30 22 C -4.064713 -5.049495 0.634248 0
M  V30 23 C -5.393424 -5.422907 0.515425 0
M  V30 24 C -5.718419 -6.480157 -0.277932 0
M  V30 25 C -4.737692 -7.171671 -0.955484 0
M  V30 26 C -3.399173 -6.811747 -0.848637 0
M  V30 27 C -3.070131 -5.729759 -0.036244 0
M  V30 28 Cl -1.388533 -5.291718 0.086815 0
M  V30 29 C -4.416370 0.704743 0.458884 0
M  V30 30 N -3.884704 1.673110 -0.315577 0
M  V30 31 C -0.311966 2.061750 -1.061977 0
M  V30 32 C 3.852291 -0.694769 0.615844 0
M  V30 33 C 4.145566 -1.690810 1.695868 0
M  V30 34 H 4.042719 -1.722341 4.951548 0
M  V30 35 H 5.322791 -1.972239 3.734254 0
M  V30 36 H 4.949151 -0.326977 4.262777 0
M  V30 37 H 1.925223 -0.199654 2.212880 0
M  V30 38 H 2.459281 0.187001 3.880355 0
M  V30 39 H 2.931639 1.974820 2.173748 0
M  V30 40 H 4.353451 1.396249 3.104628 0
M  V30 41 H 5.382030 0.707682 1.174401 0
M  V30 42 H 4.441683 2.648731 0.062184 0
M  V30 43 H 4.493003 1.247071 -1.032554 0
M  V30 44 H 1.950260 1.220919 0.160249 0
M  V30 45 H 0.987779 4.166628 -3.377151 0
M  V30 46 H -1.405431 4.371630 -3.872157 0
M  V30 47 H -3.083202 3.125328 -2.598487 0
M  V30 48 H -1.315909 -0.219240 0.057846 0
M  V30 49 H -3.177816 -1.574494 2.499297 0
M  V30 50 H -3.487395 -3.942455 2.482010 0
M  V30 51 H -6.127833 -4.844172 1.070985 0
M  V30 52 H -6.759788 -6.772194 -0.370577 0
M  V30 53 H -4.966988 -8.020185 -1.596414 0
M  V30 54 H -2.637375 -7.371315 -1.392678 0
M  V30 55 H -5.414914 0.580287 0.852360 0
M  V30 56 H -0.038894 1.396078 -0.256632 0
M  V30 57 H 4.424511 -0.921183 -0.324809 0
M  V30 58 H 2.751319 -0.687844 0.406660 0
M  V30 59 H 5.258359 -1.759841 1.803279 0
M  V30 60 H 3.693936 -2.666899 1.415669 0
M  V30 END ATOM
M  V30 BEGIN BOND
M  V30 1 1 1 2
M  V30 2 1 2 3
M  V30 3 1 3 4
M  V30 4 1 4 5
M  V30 5 1 5 6
M  V30 6 1 6 7
M  V30 7 1 7 8
M  V30 8 2 8 9
M  V30 9 1 8 10
M  V30 10 2 10 11
M  V30 11 1 11 12
M  V30 12 2 12 13
M  V30 13 1 13 14
M  V30 14 1 14 15
M  V30 15 1 15 16
M  V30 16 2 16 17
M  V30 17 1 17 18
M  V30 18 1 18 19
M  V30 19 2 19 20
M  V30 20 1 19 21
M  V30 21 1 21 22
M  V30 22 2 22 23
M  V30 23 1 23 24
M  V30 24 2 24 25
M  V30 25 1 25 26
M  V30 26 2 26 27
M  V30 27 1 27 28
M  V30 28 1 17 29
M  V30 29 2 29 30
M  V30 30 2 14 31
M  V30 31 1 5 32
M  V30 32 1 32 33
M  V30 33 1 33 2
M  V30 34 1 31 10
M  V30 35 1 30 15
M  V30 36 1 27 22
M  V30 37 1 1 34
M  V30 38 1 1 35
M  V30 39 1 1 36
M  V30 40 1 3 37
M  V30 41 1 3 38
M  V30 42 1 4 39
M  V30 43 1 4 40
M  V30 44 1 5 41
M  V30 45 1 6 42
M  V30 46 1 6 43
M  V30 47 1 7 44
M  V30 48 1 11 45
M  V30 49 1 12 46
M  V30 50 1 13 47
M  V30 51 1 16 48
M  V30 52 1 18 49
M  V30 53 1 21 50
M  V30 54 1 23 51
M  V30 55 1 24 52
M  V30 56 1 25 53
M  V30 57 1 26 54
M  V30 58 1 29 55
M  V30 59 1 31 56
M  V30 60 1 32 57
M  V30 61 1 32 58
M  V30 62 1 33 59
M  V30 63 1 33 60
M  V30 END BOND
M  V30 END CTAB
M  END
>  <Dataset>  (742) 
ChEMBL_Kinases

>  <Ligand_Instance>  (742) 
nan

>  <PDB_ID>  (742) 
nan

>  <Standardized_SMILES>  (742) 
CN1CCC(CNC(=O)c2cccc(-n3cc(NC(=O)Nc4ccccc4Cl)cn3)c2)CC1

>  <Name>  (742) 
nan

>  <Pocket>  (742) 
nan

>  <ATP_Site>  (742) 
nan

>  <Peripheral>  (742) 
nan

>  <Num_H_Atoms_ProtBoundConf>  (742) 
nan

>  <Num_Resolved_Atoms>  (742) 
nan

>  <Num_Not_Resolved_Atoms>  (742) 
nan

$$$$
CHEMBL3355164
     RDKit          3D

  0  0  0  0  0  0  0  0  0  0999 V3000
M  V30 BEGIN CTAB
M  V30 COUNTS 51 54 0 0 0
M  V30 BEGIN ATOM
M  V30 1 C 1.541199 -5.582131 5.754148 0
M  V30 2 C 2.209180 -4.506213 4.980807 0
M  V30 3 C 2.731840 -4.814533 3.721154 0
M  V30 4 C 3.364193 -3.816777 2.977201 0
M  V30 5 C 3.433212 -2.550765 3.554476 0
M  V30 6 N 4.071274 -1.458826 2.852283 0
M  V30 7 C 3.086949 -0.816039 2.080614 0
M  V30 8 O 1.933122 -1.353878 2.205279 0
M  V30 9 C 3.325324 0.356166 1.209141 0
M  V30 10 C 4.562343 0.954216 1.058420 0
M  V30 11 C 4.674961 2.049692 0.214959 0
M  V30 12 C 3.590557 2.571107 -0.486361 0
M  V30 13 C 2.371005 1.948857 -0.311749 0
M  V30 14 N 1.176661 2.379800 -0.969936 0
M  V30 15 C 0.452789 1.519044 -1.735950 0
M  V30 16 C -0.615009 2.272196 -2.204042 0
M  V30 17 N -1.616184 1.689356 -3.064689 0
M  V30 18 C -2.736707 1.100600 -2.421714 0
M  V30 19 O -2.738600 1.149709 -1.154493 0
M  V30 20 N -3.875533 0.452554 -3.023514 0
M  V30 21 C -4.865813 -0.054046 -2.108121 0
M  V30 22 C -5.966795 0.603577 -1.611263 0
M  V30 23 C -6.769536 -0.106039 -0.741676 0
M  V30 24 C -6.523782 -1.402230 -0.362196 0
M  V30 25 C -5.415575 -2.035627 -0.874492 0
M  V30 26 C -4.584739 -1.360849 -1.749055 0
M  V30 27 Cl -3.216016 -2.301317 -2.314299 0
M  V30 28 C -0.520415 3.549887 -1.722691 0
M  V30 29 N 0.595459 3.585553 -0.964333 0
M  V30 30 C 2.234562 0.844302 0.532670 0
M  V30 31 N 2.914310 -2.284489 4.782407 0
M  V30 32 C 2.299169 -3.229990 5.520394 0
M  V30 33 H 2.199665 -5.898160 6.573095 0
M  V30 34 H 1.186445 -6.403665 5.102404 0
M  V30 35 H 0.627446 -5.134650 6.207207 0
M  V30 36 H 2.660117 -5.799376 3.309496 0
M  V30 37 H 3.791034 -3.984155 1.996517 0
M  V30 38 H 5.060451 -1.071916 2.804535 0
M  V30 39 H 5.393662 0.544587 1.603955 0
M  V30 40 H 5.640993 2.497151 0.112857 0
M  V30 41 H 3.668467 3.424252 -1.145818 0
M  V30 42 H 0.665447 0.477211 -1.934529 0
M  V30 43 H -1.662329 1.622105 -4.125025 0
M  V30 44 H -3.822041 0.440243 -4.075811 0
M  V30 45 H -6.082247 1.601730 -1.955596 0
M  V30 46 H -7.635116 0.431257 -0.359698 0
M  V30 47 H -7.227279 -1.835041 0.319215 0
M  V30 48 H -5.245896 -3.069012 -0.553413 0
M  V30 49 H -1.224300 4.348730 -1.932317 0
M  V30 50 H 1.250065 0.366499 0.654085 0
M  V30 51 H 1.879715 -3.037367 6.500121 0
M  V30 END ATOM
M  V30 BEGIN BOND
M  V30 1 1 1 2
M  V30 2 2 2 3
M  V30 3 1 3 4
M  V30 4 2 4 5
M  V30 5 1 5 6
M  V30 6 1 6 7
M  V30 7 2 7 8
M  V30 8 1 7 9
M  V30 9 2 9 10
M  V30 10 1 10 11
M  V30 11 2 11 12
M  V30 12 1 12 13
M  V30 13 1 13 14
M  V30 14 1 14 15
M  V30 15 2 15 16
M  V30 16 1 16 17
M  V30 17 1 17 18
M  V30 18 2 18 19
M  V30 19 1 18 20
M  V30 20 1 20 21
M  V30 21 2 21 22
M  V30 22 1 22 23
M  V30 23 2 23 24
M  V30 24 1 24 25
M  V30 25 2 25 26
M  V30 26 1 26 27
M  V30 27 1 16 28
M  V30 28 2 28 29
M  V30 29 2 13 30
M  V30 30 1 5 31
M  V30 31 2 31 32
M  V30 32 1 32 2
M  V30 33 1 30 9
M  V30 34 1 29 14
M  V30 35 1 26 21
M  V30 36 1 1 33
M  V30 37 1 1 34
M  V30 38 1 1 35
M  V30 39 1 3 36
M  V30 40 1 4 37
M  V30 41 1 6 38
M  V30 42 1 10 39
M  V30 43 1 11 40
M  V30 44 1 12 41
M  V30 45 1 15 42
M  V30 46 1 17 43
M  V30 47 1 20 44
M  V30 48 1 22 45
M  V30 49 1 23 46
M  V30 50 1 24 47
M  V30 51 1 25 48
M  V30 52 1 28 49
M  V30 53 1 30 50
M  V30 54 1 32 51
M  V30 END BOND
M  V30 END CTAB
M  END
>  <Dataset>  (743) 
ChEMBL_Kinases

>  <Ligand_Instance>  (743) 
nan

>  <PDB_ID>  (743) 
nan

>  <Standardized_SMILES>  (743) 
Cc1ccc(NC(=O)c2cccc(-n3cc(NC(=O)Nc4ccccc4Cl)cn3)c2)nc1

>  <Name>  (743) 
nan

>  <Pocket>  (743) 
nan

>  <ATP_Site>  (743) 
nan

>  <Peripheral>  (743) 
nan

>  <Num_H_Atoms_ProtBoundConf>  (743) 
nan

>  <Num_Resolved_Atoms>  (743) 
nan

>  <Num_Not_Resolved_Atoms>  (743) 
nan

$$$$
CHEMBL3355157
     RDKit          3D

  0  0  0  0  0  0  0  0  0  0999 V3000
M  V30 BEGIN CTAB
M  V30 COUNTS 51 54 0 0 0
M  V30 BEGIN ATOM
M  V30 1 C 2.607286 -2.366118 7.320445 0
M  V30 2 C 2.702918 -1.264529 6.322447 0
M  V30 3 C 3.715883 -1.362127 5.384145 0
M  V30 4 C 3.922219 -0.409199 4.396581 0
M  V30 5 C 3.030546 0.653909 4.422499 0
M  V30 6 N 3.222341 1.661798 3.404531 0
M  V30 7 C 2.430041 1.258366 2.273106 0
M  V30 8 O 1.817445 0.163396 2.509649 0
M  V30 9 C 2.353884 2.029678 1.014611 0
M  V30 10 C 3.016894 3.213079 0.761000 0
M  V30 11 C 2.839043 3.811698 -0.471106 0
M  V30 12 F 3.514964 4.969434 -0.660519 0
M  V30 13 C 2.022969 3.259011 -1.441849 0
M  V30 14 C 1.361785 2.071509 -1.178492 0
M  V30 15 N 0.502854 1.447219 -2.139807 0
M  V30 16 C 0.306276 0.096075 -2.182720 0
M  V30 17 C -0.580656 -0.194803 -3.227241 0
M  V30 18 N -0.966972 -1.555145 -3.501385 0
M  V30 19 C -2.140860 -1.917782 -2.754417 0
M  V30 20 O -2.735047 -1.132364 -1.970333 0
M  V30 21 N -2.724923 -3.226759 -2.855610 0
M  V30 22 C -3.900719 -3.545500 -2.088779 0
M  V30 23 C -3.731345 -4.081332 -0.806913 0
M  V30 24 C -4.834104 -4.400921 -0.038342 0
M  V30 25 C -6.111569 -4.192690 -0.532444 0
M  V30 26 C -6.278516 -3.664737 -1.795456 0
M  V30 27 C -5.186626 -3.335250 -2.587680 0
M  V30 28 Cl -5.369692 -2.664700 -4.191912 0
M  V30 29 C -0.886061 1.042722 -3.782976 0
M  V30 30 N -0.219343 1.985285 -3.103900 0
M  V30 31 C 1.538144 1.461985 0.065888 0
M  V30 32 C 1.999210 0.772495 5.362085 0
M  V30 33 N 1.858558 -0.202119 6.301382 0
M  V30 34 H 2.897668 -3.349015 6.847309 0
M  V30 35 H 3.317439 -2.191384 8.136065 0
M  V30 36 H 1.553595 -2.502620 7.647046 0
M  V30 37 H 4.411071 -2.213280 5.382216 0
M  V30 38 H 4.698392 -0.474385 3.669762 0
M  V30 39 H 3.772874 2.556550 3.318688 0
M  V30 40 H 3.639737 3.592327 1.562310 0
M  V30 41 H 1.901223 3.749540 -2.399890 0
M  V30 42 H 0.769503 -0.614078 -1.510828 0
M  V30 43 H -0.548832 -2.289544 -4.129278 0
M  V30 44 H -2.279251 -3.944813 -3.497744 0
M  V30 45 H -2.763442 -4.269024 -0.360919 0
M  V30 46 H -4.748119 -4.821669 0.968367 0
M  V30 47 H -6.961895 -4.457099 0.103221 0
M  V30 48 H -7.275344 -3.502861 -2.179552 0
M  V30 49 H -1.561863 1.081437 -4.617017 0
M  V30 50 H 0.990974 0.519983 0.226044 0
M  V30 51 H 1.337143 1.621645 5.332375 0
M  V30 END ATOM
M  V30 BEGIN BOND
M  V30 1 1 1 2
M  V30 2 2 2 3
M  V30 3 1 3 4
M  V30 4 2 4 5
M  V30 5 1 5 6
M  V30 6 1 6 7
M  V30 7 2 7 8
M  V30 8 1 7 9
M  V30 9 2 9 10
M  V30 10 1 10 11
M  V30 11 1 11 12
M  V30 12 2 11 13
M  V30 13 1 13 14
M  V30 14 1 14 15
M  V30 15 1 15 16
M  V30 16 2 16 17
M  V30 17 1 17 18
M  V30 18 1 18 19
M  V30 19 2 19 20
M  V30 20 1 19 21
M  V30 21 1 21 22
M  V30 22 2 22 23
M  V30 23 1 23 24
M  V30 24 2 24 25
M  V30 25 1 25 26
M  V30 26 2 26 27
M  V30 27 1 27 28
M  V30 28 1 17 29
M  V30 29 2 29 30
M  V30 30 2 14 31
M  V30 31 1 5 32
M  V30 32 2 32 33
M  V30 33 1 33 2
M  V30 34 1 31 9
M  V30 35 1 30 15
M  V30 36 1 27 22
M  V30 37 1 1 34
M  V30 38 1 1 35
M  V30 39 1 1 36
M  V30 40 1 3 37
M  V30 41 1 4 38
M  V30 42 1 6 39
M  V30 43 1 10 40
M  V30 44 1 13 41
M  V30 45 1 16 42
M  V30 46 1 18 43
M  V30 47 1 21 44
M  V30 48 1 23 45
M  V30 49 1 24 46
M  V30 50 1 25 47
M  V30 51 1 26 48
M  V30 52 1 29 49
M  V30 53 1 31 50
M  V30 54 1 32 51
M  V30 END BOND
M  V30 END CTAB
M  END
>  <Dataset>  (744) 
ChEMBL_Kinases

>  <Ligand_Instance>  (744) 
nan

>  <PDB_ID>  (744) 
nan

>  <Standardized_SMILES>  (744) 
Cc1ccc(NC(=O)c2cc(F)cc(-n3cc(NC(=O)Nc4ccccc4Cl)cn3)c2)cn1

>  <Name>  (744) 
nan

>  <Pocket>  (744) 
nan

>  <ATP_Site>  (744) 
nan

>  <Peripheral>  (744) 
nan

>  <Num_H_Atoms_ProtBoundConf>  (744) 
nan

>  <Num_Resolved_Atoms>  (744) 
nan

>  <Num_Not_Resolved_Atoms>  (744) 
nan

$$$$
CHEMBL3355153
     RDKit          3D

  0  0  0  0  0  0  0  0  0  0999 V3000
M  V30 BEGIN CTAB
M  V30 COUNTS 54 57 0 0 0
M  V30 BEGIN ATOM
M  V30 1 C 6.365585 -3.226508 5.327074 0
M  V30 2 C 5.589113 -2.382555 4.369636 0
M  V30 3 C 4.808260 -1.324115 4.819225 0
M  V30 4 C 4.091283 -0.544522 3.937189 0
M  V30 5 C 4.124127 -0.788839 2.572700 0
M  V30 6 N 3.402787 -0.013733 1.622989 0
M  V30 7 C 3.889113 1.149766 0.965053 0
M  V30 8 O 5.040038 1.588496 1.190308 0
M  V30 9 C 3.081770 1.889050 0.000841 0
M  V30 10 C 3.626710 3.006124 -0.592807 0
M  V30 11 C 2.865774 3.722940 -1.517013 0
M  V30 12 C 1.568054 3.359242 -1.871733 0
M  V30 13 C 1.036867 2.237867 -1.268046 0
M  V30 14 N -0.285427 1.821086 -1.593904 0
M  V30 15 C -0.919412 0.748199 -1.079366 0
M  V30 16 C -2.197230 0.625093 -1.609113 0
M  V30 17 N -3.147181 -0.406064 -1.281025 0
M  V30 18 C -4.102173 -0.301273 -0.220511 0
M  V30 19 O -4.051547 0.783784 0.421445 0
M  V30 20 N -5.011494 -1.347168 0.055864 0
M  V30 21 C -5.937849 -1.123122 1.163060 0
M  V30 22 C -5.149982 -2.606430 -0.606322 0
M  V30 23 C -5.971147 -2.853313 -1.691506 0
M  V30 24 C -6.042670 -4.101018 -2.268567 0
M  V30 25 C -5.275503 -5.132379 -1.751377 0
M  V30 26 C -4.455805 -4.891472 -0.670309 0
M  V30 27 C -4.394008 -3.646829 -0.106154 0
M  V30 28 Cl -3.324081 -3.432557 1.265502 0
M  V30 29 C -2.296096 1.704878 -2.487013 0
M  V30 30 N -1.113085 2.379736 -2.427497 0
M  V30 31 C 1.796459 1.549694 -0.366553 0
M  V30 32 C 4.906278 -1.843597 2.159010 0
M  V30 33 N 5.580450 -2.568546 3.042951 0
M  V30 34 H 7.070610 -2.613040 5.927472 0
M  V30 35 H 5.680937 -3.747466 6.041648 0
M  V30 36 H 6.887017 -3.999376 4.741846 0
M  V30 37 H 4.764075 -1.110521 5.879813 0
M  V30 38 H 3.465599 0.295644 4.243977 0
M  V30 39 H 2.448263 -0.378734 1.437053 0
M  V30 40 H 4.637307 3.372079 -0.380269 0
M  V30 41 H 3.328837 4.608473 -1.972421 0
M  V30 42 H 0.994710 3.926393 -2.588930 0
M  V30 43 H -0.539992 0.040458 -0.350228 0
M  V30 44 H -3.098245 -1.272883 -1.886834 0
M  V30 45 H -6.378439 -2.056487 1.548013 0
M  V30 46 H -5.445203 -0.588838 2.017181 0
M  V30 47 H -6.691268 -0.403713 0.768423 0
M  V30 48 H -6.533992 -2.011769 -2.037551 0
M  V30 49 H -6.708336 -4.212799 -3.113490 0
M  V30 50 H -5.338183 -6.102830 -2.208696 0
M  V30 51 H -3.886116 -5.739333 -0.318512 0
M  V30 52 H -3.203293 1.864868 -3.053189 0
M  V30 53 H 1.348151 0.678721 0.084856 0
M  V30 54 H 4.990539 -2.104214 1.124506 0
M  V30 END ATOM
M  V30 BEGIN BOND
M  V30 1 1 1 2
M  V30 2 2 2 3
M  V30 3 1 3 4
M  V30 4 2 4 5
M  V30 5 1 5 6
M  V30 6 1 6 7
M  V30 7 2 7 8
M  V30 8 1 7 9
M  V30 9 2 9 10
M  V30 10 1 10 11
M  V30 11 2 11 12
M  V30 12 1 12 13
M  V30 13 1 13 14
M  V30 14 1 14 15
M  V30 15 2 15 16
M  V30 16 1 16 17
M  V30 17 1 17 18
M  V30 18 2 18 19
M  V30 19 1 18 20
M  V30 20 1 20 21
M  V30 21 1 20 22
M  V30 22 2 22 23
M  V30 23 1 23 24
M  V30 24 2 24 25
M  V30 25 1 25 26
M  V30 26 2 26 27
M  V30 27 1 27 28
M  V30 28 1 16 29
M  V30 29 2 29 30
M  V30 30 2 13 31
M  V30 31 1 5 32
M  V30 32 2 32 33
M  V30 33 1 33 2
M  V30 34 1 31 9
M  V30 35 1 30 14
M  V30 36 1 27 22
M  V30 37 1 1 34
M  V30 38 1 1 35
M  V30 39 1 1 36
M  V30 40 1 3 37
M  V30 41 1 4 38
M  V30 42 1 6 39
M  V30 43 1 10 40
M  V30 44 1 11 41
M  V30 45 1 12 42
M  V30 46 1 15 43
M  V30 47 1 17 44
M  V30 48 1 21 45
M  V30 49 1 21 46
M  V30 50 1 21 47
M  V30 51 1 23 48
M  V30 52 1 24 49
M  V30 53 1 25 50
M  V30 54 1 26 51
M  V30 55 1 29 52
M  V30 56 1 31 53
M  V30 57 1 32 54
M  V30 END BOND
M  V30 END CTAB
M  END
>  <Dataset>  (745) 
ChEMBL_Kinases

>  <Ligand_Instance>  (745) 
nan

>  <PDB_ID>  (745) 
nan

>  <Standardized_SMILES>  (745) 
Cc1ccc(NC(=O)c2cccc(-n3cc(NC(=O)N(C)c4ccccc4Cl)cn3)c2)cn1

>  <Name>  (745) 
nan

>  <Pocket>  (745) 
nan

>  <ATP_Site>  (745) 
nan

>  <Peripheral>  (745) 
nan

>  <Num_H_Atoms_ProtBoundConf>  (745) 
nan

>  <Num_Resolved_Atoms>  (745) 
nan

>  <Num_Not_Resolved_Atoms>  (745) 
nan

$$$$
CHEMBL3355148
     RDKit          3D

  0  0  0  0  0  0  0  0  0  0999 V3000
M  V30 BEGIN CTAB
M  V30 COUNTS 51 54 0 0 0
M  V30 BEGIN ATOM
M  V30 1 C 0.538536 -6.452909 4.610760 0
M  V30 2 C 1.397023 -5.318014 4.125946 0
M  V30 3 C 1.825790 -5.396115 2.811940 0
M  V30 4 C 2.628340 -4.374358 2.293643 0
M  V30 5 C 2.942944 -3.333176 3.155273 0
M  V30 6 N 3.772070 -2.293990 2.592581 0
M  V30 7 C 2.910386 -1.317200 2.023529 0
M  V30 8 O 1.680971 -1.630592 2.169265 0
M  V30 9 C 3.373508 -0.091558 1.347280 0
M  V30 10 C 4.701647 0.283424 1.169503 0
M  V30 11 C 4.980120 1.465622 0.513087 0
M  V30 12 C 3.997966 2.299761 0.020999 0
M  V30 13 C 2.679296 1.916066 0.203896 0
M  V30 14 N 1.591667 2.724797 -0.276534 0
M  V30 15 C 0.357508 2.240751 -0.582109 0
M  V30 16 C -0.470220 3.252047 -1.015387 0
M  V30 17 N -1.825934 3.211733 -1.435047 0
M  V30 18 C -2.614681 2.037333 -1.482477 0
M  V30 19 O -2.127399 0.933953 -1.140565 0
M  V30 20 N -3.976066 2.019953 -1.907844 0
M  V30 21 C -4.538880 0.719535 -1.862649 0
M  V30 22 C -5.127253 0.451735 -0.630425 0
M  V30 23 C -5.734017 -0.770959 -0.387098 0
M  V30 24 C -5.733556 -1.703747 -1.400801 0
M  V30 25 Cl -6.498528 -3.255005 -1.104615 0
M  V30 26 C -5.153338 -1.463675 -2.642019 0
M  V30 27 C -4.559347 -0.232542 -2.843119 0
M  V30 28 C 0.320738 4.373241 -0.958158 0
M  V30 29 N 1.537951 4.003872 -0.512050 0
M  V30 30 C 2.370930 0.724130 0.865043 0
M  V30 31 C 2.507275 -3.262386 4.476186 0
M  V30 32 N 1.738776 -4.278757 4.909392 0
M  V30 33 H 0.319172 -6.240956 5.679089 0
M  V30 34 H -0.455569 -6.367800 4.082221 0
M  V30 35 H 0.992949 -7.427246 4.436665 0
M  V30 36 H 1.574757 -6.221012 2.134209 0
M  V30 37 H 2.980774 -4.397532 1.281749 0
M  V30 38 H 4.818665 -2.118465 2.519701 0
M  V30 39 H 5.435912 -0.399400 1.570613 0
M  V30 40 H 6.031282 1.709315 0.402167 0
M  V30 41 H 4.214505 3.212723 -0.485883 0
M  V30 42 H 0.091162 1.200720 -0.488152 0
M  V30 43 H -2.304124 4.085186 -1.734799 0
M  V30 44 H -4.431515 2.925897 -2.205995 0
M  V30 45 H -5.165972 1.141722 0.218744 0
M  V30 46 H -6.196569 -1.003846 0.557348 0
M  V30 47 H -5.145751 -2.176328 -3.435212 0
M  V30 48 H -4.077446 0.059925 -3.772975 0
M  V30 49 H -0.015972 5.368940 -1.234282 0
M  V30 50 H 1.306747 0.466441 0.983493 0
M  V30 51 H 2.780472 -2.427961 5.108534 0
M  V30 END ATOM
M  V30 BEGIN BOND
M  V30 1 1 1 2
M  V30 2 2 2 3
M  V30 3 1 3 4
M  V30 4 2 4 5
M  V30 5 1 5 6
M  V30 6 1 6 7
M  V30 7 2 7 8
M  V30 8 1 7 9
M  V30 9 2 9 10
M  V30 10 1 10 11
M  V30 11 2 11 12
M  V30 12 1 12 13
M  V30 13 1 13 14
M  V30 14 1 14 15
M  V30 15 2 15 16
M  V30 16 1 16 17
M  V30 17 1 17 18
M  V30 18 2 18 19
M  V30 19 1 18 20
M  V30 20 1 20 21
M  V30 21 2 21 22
M  V30 22 1 22 23
M  V30 23 2 23 24
M  V30 24 1 24 25
M  V30 25 1 24 26
M  V30 26 2 26 27
M  V30 27 1 16 28
M  V30 28 2 28 29
M  V30 29 2 13 30
M  V30 30 1 5 31
M  V30 31 2 31 32
M  V30 32 1 32 2
M  V30 33 1 30 9
M  V30 34 1 29 14
M  V30 35 1 27 21
M  V30 36 1 1 33
M  V30 37 1 1 34
M  V30 38 1 1 35
M  V30 39 1 3 36
M  V30 40 1 4 37
M  V30 41 1 6 38
M  V30 42 1 10 39
M  V30 43 1 11 40
M  V30 44 1 12 41
M  V30 45 1 15 42
M  V30 46 1 17 43
M  V30 47 1 20 44
M  V30 48 1 22 45
M  V30 49 1 23 46
M  V30 50 1 26 47
M  V30 51 1 27 48
M  V30 52 1 28 49
M  V30 53 1 30 50
M  V30 54 1 31 51
M  V30 END BOND
M  V30 END CTAB
M  END
>  <Dataset>  (746) 
ChEMBL_Kinases

>  <Ligand_Instance>  (746) 
nan

>  <PDB_ID>  (746) 
nan

>  <Standardized_SMILES>  (746) 
Cc1ccc(NC(=O)c2cccc(-n3cc(NC(=O)Nc4ccc(Cl)cc4)cn3)c2)cn1

>  <Name>  (746) 
nan

>  <Pocket>  (746) 
nan

>  <ATP_Site>  (746) 
nan

>  <Peripheral>  (746) 
nan

>  <Num_H_Atoms_ProtBoundConf>  (746) 
nan

>  <Num_Resolved_Atoms>  (746) 
nan

>  <Num_Not_Resolved_Atoms>  (746) 
nan

$$$$
CHEMBL3355147
     RDKit          3D

  0  0  0  0  0  0  0  0  0  0999 V3000
M  V30 BEGIN CTAB
M  V30 COUNTS 51 54 0 0 0
M  V30 BEGIN ATOM
M  V30 1 C 0.897683 -6.299002 5.992563 0
M  V30 2 C 1.256400 -5.185200 5.053452 0
M  V30 3 C 1.580020 -5.450650 3.734280 0
M  V30 4 C 1.900069 -4.372109 2.927963 0
M  V30 5 C 1.908706 -3.066425 3.380545 0
M  V30 6 N 2.237187 -1.952061 2.555772 0
M  V30 7 C 3.521632 -1.402746 2.358855 0
M  V30 8 O 4.554484 -1.859465 2.914925 0
M  V30 9 C 3.740312 -0.251537 1.484284 0
M  V30 10 C 5.017874 0.245783 1.327469 0
M  V30 11 C 5.328686 1.342298 0.513622 0
M  V30 12 C 4.297821 1.959581 -0.169770 0
M  V30 13 C 3.007684 1.484210 -0.032759 0
M  V30 14 N 1.885355 2.083504 -0.718929 0
M  V30 15 C 1.055959 1.377610 -1.539854 0
M  V30 16 C 0.114536 2.305301 -1.999315 0
M  V30 17 N -0.970338 2.011849 -2.901031 0
M  V30 18 C -2.229619 1.604658 -2.361726 0
M  V30 19 O -2.228330 1.552051 -1.098825 0
M  V30 20 N -3.383017 1.285600 -3.151966 0
M  V30 21 C -4.521184 0.904620 -2.355807 0
M  V30 22 C -5.491851 1.750437 -1.859135 0
M  V30 23 C -6.525807 1.222471 -1.107547 0
M  V30 24 C -6.595706 -0.144307 -0.849441 0
M  V30 25 C -5.613854 -1.001295 -1.351614 0
M  V30 26 Cl -5.664614 -2.743014 -1.047505 0
M  V30 27 C -4.574355 -0.459775 -2.108903 0
M  V30 28 C 0.411618 3.541602 -1.436582 0
M  V30 29 N 1.500661 3.340245 -0.666897 0
M  V30 30 C 2.752921 0.404635 0.778090 0
M  V30 31 C 1.575735 -2.876295 4.706997 0
M  V30 32 N 1.259329 -3.905003 5.518090 0
M  V30 33 H 1.768333 -6.817204 6.400387 0
M  V30 34 H 0.225112 -5.908321 6.809201 0
M  V30 35 H 0.270613 -7.013180 5.414646 0
M  V30 36 H 1.583281 -6.477906 3.340278 0
M  V30 37 H 2.164921 -4.513931 1.876371 0
M  V30 38 H 1.389733 -1.561723 2.087108 0
M  V30 39 H 5.869512 -0.177971 1.823492 0
M  V30 40 H 6.319275 1.727016 0.392740 0
M  V30 41 H 4.404663 2.804726 -0.821833 0
M  V30 42 H 1.085865 0.311937 -1.808355 0
M  V30 43 H -0.896781 2.078674 -3.958055 0
M  V30 44 H -3.200620 1.384034 -4.170290 0
M  V30 45 H -5.366079 2.800638 -2.104114 0
M  V30 46 H -7.273241 1.904093 -0.729824 0
M  V30 47 H -7.404005 -0.542729 -0.264112 0
M  V30 48 H -3.829390 -1.173124 -2.480085 0
M  V30 49 H -0.160213 4.448267 -1.621909 0
M  V30 50 H 1.741114 0.041898 0.877535 0
M  V30 51 H 1.549614 -1.889469 5.172174 0
M  V30 END ATOM
M  V30 BEGIN BOND
M  V30 1 1 1 2
M  V30 2 2 2 3
M  V30 3 1 3 4
M  V30 4 2 4 5
M  V30 5 1 5 6
M  V30 6 1 6 7
M  V30 7 2 7 8
M  V30 8 1 7 9
M  V30 9 2 9 10
M  V30 10 1 10 11
M  V30 11 2 11 12
M  V30 12 1 12 13
M  V30 13 1 13 14
M  V30 14 1 14 15
M  V30 15 2 15 16
M  V30 16 1 16 17
M  V30 17 1 17 18
M  V30 18 2 18 19
M  V30 19 1 18 20
M  V30 20 1 20 21
M  V30 21 2 21 22
M  V30 22 1 22 23
M  V30 23 2 23 24
M  V30 24 1 24 25
M  V30 25 1 25 26
M  V30 26 2 25 27
M  V30 27 1 16 28
M  V30 28 2 28 29
M  V30 29 2 13 30
M  V30 30 1 5 31
M  V30 31 2 31 32
M  V30 32 1 32 2
M  V30 33 1 30 9
M  V30 34 1 29 14
M  V30 35 1 27 21
M  V30 36 1 1 33
M  V30 37 1 1 34
M  V30 38 1 1 35
M  V30 39 1 3 36
M  V30 40 1 4 37
M  V30 41 1 6 38
M  V30 42 1 10 39
M  V30 43 1 11 40
M  V30 44 1 12 41
M  V30 45 1 15 42
M  V30 46 1 17 43
M  V30 47 1 20 44
M  V30 48 1 22 45
M  V30 49 1 23 46
M  V30 50 1 24 47
M  V30 51 1 27 48
M  V30 52 1 28 49
M  V30 53 1 30 50
M  V30 54 1 31 51
M  V30 END BOND
M  V30 END CTAB
M  END
>  <Dataset>  (747) 
ChEMBL_Kinases

>  <Ligand_Instance>  (747) 
nan

>  <PDB_ID>  (747) 
nan

>  <Standardized_SMILES>  (747) 
Cc1ccc(NC(=O)c2cccc(-n3cc(NC(=O)Nc4cccc(Cl)c4)cn3)c2)cn1

>  <Name>  (747) 
nan

>  <Pocket>  (747) 
nan

>  <ATP_Site>  (747) 
nan

>  <Peripheral>  (747) 
nan

>  <Num_H_Atoms_ProtBoundConf>  (747) 
nan

>  <Num_Resolved_Atoms>  (747) 
nan

>  <Num_Not_Resolved_Atoms>  (747) 
nan

$$$$
CHEMBL3355139
     RDKit          3D

  0  0  0  0  0  0  0  0  0  0999 V3000
M  V30 BEGIN CTAB
M  V30 COUNTS 61 65 0 0 0
M  V30 BEGIN ATOM
M  V30 1 C 2.340518 -2.149534 4.159123 0
M  V30 2 C 3.042689 -2.342928 2.843613 0 CFG=2
M  V30 3 C 4.373285 -2.970289 3.169613 0
M  V30 4 O 4.398756 -4.215604 3.420159 0
M  V30 5 N 5.619804 -2.288037 3.223451 0
M  V30 6 N 5.631666 -0.987802 2.708656 0
M  V30 7 C 4.571253 -0.475530 2.227619 0
M  V30 8 C 4.768819 0.889145 1.735682 0
M  V30 9 O 3.787044 1.274334 0.792228 0
M  V30 10 C 2.533508 0.702479 0.677307 0
M  V30 11 C 1.525202 1.275720 -0.083117 0
M  V30 12 C 0.299874 0.644725 -0.149204 0
M  V30 13 C -0.640994 1.419952 -0.938999 0
M  V30 14 C -1.211667 2.361511 -0.054351 0
M  V30 15 C -2.161203 3.294517 -0.492169 0
M  V30 16 C -2.560092 3.309685 -1.811683 0
M  V30 17 C -1.993680 2.384872 -2.661750 0
M  V30 18 C -1.063454 1.464935 -2.251816 0
M  V30 19 F -0.428395 0.527607 -2.965038 0
M  V30 20 C -0.030085 -0.520064 0.473780 0
M  V30 21 C -1.255875 -1.246658 0.408317 0 CFG=1
M  V30 22 C -2.551867 -0.513341 0.614780 0
M  V30 23 C -3.717903 -1.532180 0.631739 0
M  V30 24 N -3.818847 -2.019167 -0.686839 0
M  V30 25 C -5.077991 -2.207356 -1.276169 0
M  V30 26 C -2.688224 -1.938290 -1.529897 0
M  V30 27 C -1.442241 -2.241554 -0.708680 0
M  V30 28 C -0.302025 -2.334340 -1.659744 0
M  V30 29 C -1.638508 -3.673943 -0.166702 0
M  V30 30 C 1.054921 -1.017002 1.215906 0
M  V30 31 C 2.316165 -0.477215 1.356210 0
M  V30 32 N 3.304510 -1.116313 2.151927 0
M  V30 33 H 3.008903 -2.333496 5.049257 0
M  V30 34 H 1.522615 -2.873836 4.253895 0
M  V30 35 H 2.022144 -1.081849 4.295663 0
M  V30 36 H 2.551213 -3.092011 2.178458 0
M  V30 37 H 6.453553 -2.764174 3.630859 0
M  V30 38 H 5.779222 1.112082 1.356244 0
M  V30 39 H 4.610782 1.580885 2.614426 0
M  V30 40 H 1.810921 2.192724 -0.565323 0
M  V30 41 H -1.042571 2.526334 1.021331 0
M  V30 42 H -2.644695 4.043897 0.111696 0
M  V30 43 H -3.285086 4.001546 -2.206808 0
M  V30 44 H -2.231837 2.310249 -3.701925 0
M  V30 45 H -1.239091 -1.934021 1.347212 0
M  V30 46 H -2.657025 -0.014106 1.589790 0
M  V30 47 H -2.807610 0.078319 -0.270724 0
M  V30 48 H -4.616080 -0.896370 0.830057 0
M  V30 49 H -3.647179 -2.238129 1.450666 0
M  V30 50 H -5.883130 -1.848452 -0.635527 0
M  V30 51 H -5.235907 -3.287178 -1.494802 0
M  V30 52 H -5.086502 -1.704898 -2.287025 0
M  V30 53 H -2.638474 -0.947185 -2.003230 0
M  V30 54 H -2.686360 -2.700989 -2.347751 0
M  V30 55 H 0.472180 -1.540127 -1.494358 0
M  V30 56 H 0.163045 -3.341138 -1.732338 0
M  V30 57 H -0.675324 -2.138053 -2.680695 0
M  V30 58 H -0.727504 -4.291357 -0.308501 0
M  V30 59 H -2.466517 -4.192401 -0.660192 0
M  V30 60 H -1.741250 -3.607138 0.953094 0
M  V30 61 H 0.904788 -1.962075 1.768025 0
M  V30 END ATOM
M  V30 BEGIN BOND
M  V30 1 1 1 2
M  V30 2 1 2 3
M  V30 3 2 3 4
M  V30 4 1 3 5
M  V30 5 1 5 6
M  V30 6 2 6 7
M  V30 7 1 7 8
M  V30 8 1 8 9
M  V30 9 1 9 10
M  V30 10 2 10 11
M  V30 11 1 11 12
M  V30 12 1 12 13
M  V30 13 2 13 14
M  V30 14 1 14 15
M  V30 15 2 15 16
M  V30 16 1 16 17
M  V30 17 2 17 18
M  V30 18 1 18 19
M  V30 19 2 12 20
M  V30 20 1 20 21
M  V30 21 1 21 22
M  V30 22 1 22 23
M  V30 23 1 23 24
M  V30 24 1 24 25
M  V30 25 1 24 26
M  V30 26 1 26 27
M  V30 27 1 27 28
M  V30 28 1 27 29
M  V30 29 1 20 30
M  V30 30 2 30 31
M  V30 31 1 31 32
M  V30 32 1 32 2
M  V30 33 1 32 7
M  V30 34 1 31 10
M  V30 35 1 18 13
M  V30 36 1 27 21
M  V30 37 1 1 33
M  V30 38 1 1 34
M  V30 39 1 1 35
M  V30 40 1 2 36 CFG=3
M  V30 41 1 5 37
M  V30 42 1 8 38
M  V30 43 1 8 39
M  V30 44 1 11 40
M  V30 45 1 14 41
M  V30 46 1 15 42
M  V30 47 1 16 43
M  V30 48 1 17 44
M  V30 49 1 21 45 CFG=1
M  V30 50 1 22 46
M  V30 51 1 22 47
M  V30 52 1 23 48
M  V30 53 1 23 49
M  V30 54 1 25 50
M  V30 55 1 25 51
M  V30 56 1 25 52
M  V30 57 1 26 53
M  V30 58 1 26 54
M  V30 59 1 28 55
M  V30 60 1 28 56
M  V30 61 1 28 57
M  V30 62 1 29 58
M  V30 63 1 29 59
M  V30 64 1 29 60
M  V30 65 1 30 61
M  V30 END BOND
M  V30 END CTAB
M  END
>  <Dataset>  (748) 
ChEMBL_Kinases

>  <Ligand_Instance>  (748) 
nan

>  <PDB_ID>  (748) 
nan

>  <Standardized_SMILES>  (748) 
C[C@@H]1C(=O)NN=C2COc3cc(-c4ccccc4F)c([C@H]4CCN(C)CC4(C)C)cc3N21

>  <Name>  (748) 
nan

>  <Pocket>  (748) 
nan

>  <ATP_Site>  (748) 
nan

>  <Peripheral>  (748) 
nan

>  <Num_H_Atoms_ProtBoundConf>  (748) 
nan

>  <Num_Resolved_Atoms>  (748) 
nan

>  <Num_Not_Resolved_Atoms>  (748) 
nan

$$$$
CHEMBL3355137
     RDKit          3D

  0  0  0  0  0  0  0  0  0  0999 V3000
M  V30 BEGIN CTAB
M  V30 COUNTS 61 65 0 0 0
M  V30 BEGIN ATOM
M  V30 1 C 3.308341 1.778391 5.214801 0
M  V30 2 C 2.495826 1.027037 4.222207 0
M  V30 3 C 1.201065 1.440829 4.029105 0
M  V30 4 C 0.356106 0.821445 3.136365 0
M  V30 5 C 0.768260 -0.258132 2.380071 0
M  V30 6 C 0.146216 -1.129611 1.403354 0
M  V30 7 C -0.461380 -2.193181 2.087590 0
M  V30 8 C -1.115092 -3.197394 1.405175 0
M  V30 9 C -1.181600 -3.169808 0.035851 0
M  V30 10 C -0.570513 -2.106717 -0.580241 0
M  V30 11 C 0.115302 -1.043007 0.030045 0
M  V30 12 C 0.701130 0.039260 -0.711179 0 CFG=2
M  V30 13 C 1.969925 0.669258 -0.430209 0
M  V30 14 C 1.884142 1.969319 0.286328 0
M  V30 15 N 0.643869 2.594146 0.458976 0
M  V30 16 C 0.722986 4.010070 0.273791 0
M  V30 17 C -0.525268 2.068045 -0.117240 0
M  V30 18 C -0.246164 1.098125 -1.203515 0 CFG=2
M  V30 19 C -1.488085 0.534435 -1.843011 0
M  V30 20 N -1.810189 -4.082598 -0.855464 0
M  V30 21 C -2.444444 -5.161327 -0.092833 0
M  V30 22 N -3.452237 -5.948242 -0.404535 0
M  V30 23 N -4.042071 -5.751045 -1.659955 0
M  V30 24 C -3.416740 -4.697195 -2.384293 0
M  V30 25 O -4.054417 -4.045746 -3.262061 0
M  V30 26 C -1.977503 -4.227507 -2.220200 0 CFG=1
M  V30 27 C -1.513702 -3.371385 -3.287093 0
M  V30 28 C -1.955415 -5.495064 1.304817 0
M  V30 29 O -1.736597 -4.281185 2.018116 0
M  V30 30 C 2.097713 -0.672305 2.588121 0
M  V30 31 F 2.736824 -1.718180 1.963531 0
M  V30 32 C 2.943959 -0.054884 3.479952 0
M  V30 33 H 3.052912 2.838098 5.236337 0
M  V30 34 H 4.376682 1.565463 4.989396 0
M  V30 35 H 3.132706 1.275931 6.205887 0
M  V30 36 H 0.718176 2.265444 4.534893 0
M  V30 37 H -0.674223 1.051837 2.910755 0
M  V30 38 H -0.493972 -2.351762 3.165822 0
M  V30 39 H -0.579829 -2.012200 -1.623577 0
M  V30 40 H 0.927851 -0.513034 -1.749141 0
M  V30 41 H 2.804065 0.019200 -0.086192 0
M  V30 42 H 2.407574 0.969398 -1.455083 0
M  V30 43 H 2.361582 1.892275 1.314984 0
M  V30 44 H 2.569632 2.756946 -0.184450 0
M  V30 45 H 1.250438 4.504263 1.105438 0
M  V30 46 H -0.331121 4.389788 0.296732 0
M  V30 47 H 1.116338 4.278379 -0.726627 0
M  V30 48 H -1.235360 2.877474 -0.429692 0
M  V30 49 H -1.115103 1.504978 0.660236 0
M  V30 50 H 0.241228 1.698469 -2.033777 0
M  V30 51 H -2.129752 -0.038370 -1.148798 0
M  V30 52 H -1.202132 0.004557 -2.766119 0
M  V30 53 H -2.097051 1.398122 -2.184820 0
M  V30 54 H -4.848988 -6.266810 -2.099008 0
M  V30 55 H -1.463274 -5.238681 -2.461258 0
M  V30 56 H -1.838188 -3.807898 -4.315051 0
M  V30 57 H -1.970573 -2.357524 -3.400289 0
M  V30 58 H -0.414120 -3.401946 -3.438406 0
M  V30 59 H -2.672359 -6.059484 1.887210 0
M  V30 60 H -0.986426 -6.028080 1.279432 0
M  V30 61 H 3.965223 -0.321295 3.684229 0
M  V30 END ATOM
M  V30 BEGIN BOND
M  V30 1 1 1 2
M  V30 2 2 2 3
M  V30 3 1 3 4
M  V30 4 2 4 5
M  V30 5 1 5 6
M  V30 6 2 6 7
M  V30 7 1 7 8
M  V30 8 2 8 9
M  V30 9 1 9 10
M  V30 10 2 10 11
M  V30 11 1 11 12
M  V30 12 1 12 13
M  V30 13 1 13 14
M  V30 14 1 14 15
M  V30 15 1 15 16
M  V30 16 1 15 17
M  V30 17 1 17 18
M  V30 18 1 18 19
M  V30 19 1 9 20
M  V30 20 1 20 21
M  V30 21 2 21 22
M  V30 22 1 22 23
M  V30 23 1 23 24
M  V30 24 2 24 25
M  V30 25 1 24 26
M  V30 26 1 26 27
M  V30 27 1 21 28
M  V30 28 1 28 29
M  V30 29 1 5 30
M  V30 30 1 30 31
M  V30 31 2 30 32
M  V30 32 1 32 2
M  V30 33 1 11 6
M  V30 34 1 18 12
M  V30 35 1 26 20
M  V30 36 1 29 8
M  V30 37 1 1 33
M  V30 38 1 1 34
M  V30 39 1 1 35
M  V30 40 1 3 36
M  V30 41 1 4 37
M  V30 42 1 7 38
M  V30 43 1 10 39
M  V30 44 1 12 40 CFG=3
M  V30 45 1 13 41
M  V30 46 1 13 42
M  V30 47 1 14 43
M  V30 48 1 14 44
M  V30 49 1 16 45
M  V30 50 1 16 46
M  V30 51 1 16 47
M  V30 52 1 17 48
M  V30 53 1 17 49
M  V30 54 1 18 50 CFG=3
M  V30 55 1 19 51
M  V30 56 1 19 52
M  V30 57 1 19 53
M  V30 58 1 23 54
M  V30 59 1 26 55 CFG=3
M  V30 60 1 27 56
M  V30 61 1 27 57
M  V30 62 1 27 58
M  V30 63 1 28 59
M  V30 64 1 28 60
M  V30 65 1 32 61
M  V30 END BOND
M  V30 END CTAB
M  END
>  <Dataset>  (749) 
ChEMBL_Kinases

>  <Ligand_Instance>  (749) 
nan

>  <PDB_ID>  (749) 
nan

>  <Standardized_SMILES>  (749) 
Cc1ccc(-c2cc3c(cc2[C@@H]2CCN(C)C[C@@H]2C)N2C(=NNC(=O)[C@H]2C)CO3)c(F)c1

>  <Name>  (749) 
nan

>  <Pocket>  (749) 
nan

>  <ATP_Site>  (749) 
nan

>  <Peripheral>  (749) 
nan

>  <Num_H_Atoms_ProtBoundConf>  (749) 
nan

>  <Num_Resolved_Atoms>  (749) 
nan

>  <Num_Not_Resolved_Atoms>  (749) 
nan

$$$$
CHEMBL3355136
     RDKit          3D

  0  0  0  0  0  0  0  0  0  0999 V3000
M  V30 BEGIN CTAB
M  V30 COUNTS 64 69 0 0 0
M  V30 BEGIN ATOM
M  V30 1 C 3.620333 -2.176620 3.080897 0
M  V30 2 C 4.240117 -1.476981 1.885340 0 CFG=2
M  V30 3 C 5.710622 -1.413796 2.210430 0
M  V30 4 O 6.280863 -2.541945 2.031639 0
M  V30 5 N 6.442751 -0.281076 2.663565 0
M  V30 6 N 5.719168 0.914934 2.676277 0
M  V30 7 C 4.485036 0.980359 2.305164 0
M  V30 8 C 3.959633 2.364119 2.416938 0
M  V30 9 O 2.718218 2.524287 1.769239 0
M  V30 10 C 1.992479 1.457002 1.330131 0
M  V30 11 C 0.704628 1.683069 0.824109 0
M  V30 12 C -0.080956 0.617794 0.360302 0
M  V30 13 C -1.381014 1.062034 -0.105621 0
M  V30 14 C -1.172019 1.774785 -1.301558 0
M  V30 15 C -2.225959 2.371228 -2.008252 0
M  V30 16 C -3.511805 2.268280 -1.534927 0
M  V30 17 C -3.703274 1.578623 -0.379313 0
M  V30 18 C -2.685455 0.989694 0.324785 0
M  V30 19 O -4.952539 1.423198 0.169745 0
M  V30 20 C -6.056672 2.251124 -0.137970 0
M  V30 21 C -5.837299 3.105428 -1.345395 0
M  V30 22 O -4.670578 2.778560 -2.078981 0
M  V30 23 C 0.315070 -0.698132 0.354639 0
M  V30 24 C -0.421234 -1.844112 -0.102137 0 CFG=2
M  V30 25 C -1.025432 -1.816067 -1.484705 0
M  V30 26 C -1.405147 -3.283199 -1.756446 0
M  V30 27 N -0.685591 -4.183122 -0.914901 0
M  V30 28 C -0.628597 -5.506779 -1.422213 0
M  V30 29 C -1.026921 -4.115558 0.491931 0
M  V30 30 C -1.255287 -2.637834 0.836509 0 CFG=2
M  V30 31 C -2.727710 -2.336606 0.839505 0
M  V30 32 C 1.616305 -0.805534 0.881851 0
M  V30 33 C 2.470858 0.165534 1.362499 0
M  V30 34 N 3.743404 -0.145402 1.851396 0
M  V30 35 H 2.624130 -1.721335 3.250340 0
M  V30 36 H 4.208515 -2.012896 4.005218 0
M  V30 37 H 3.433753 -3.255371 2.875980 0
M  V30 38 H 4.048496 -2.116148 1.019652 0
M  V30 39 H 7.437174 -0.420656 2.945348 0
M  V30 40 H 4.674603 3.016033 1.832696 0
M  V30 41 H 3.938201 2.717499 3.467592 0
M  V30 42 H 0.363485 2.710396 0.814597 0
M  V30 43 H -0.232413 1.970762 -1.841343 0
M  V30 44 H -2.123500 2.928570 -2.928724 0
M  V30 45 H -2.694914 0.437451 1.252170 0
M  V30 46 H -6.208345 2.883440 0.774373 0
M  V30 47 H -6.945247 1.623178 -0.278051 0
M  V30 48 H -5.811634 4.186059 -1.021267 0
M  V30 49 H -6.719426 3.020554 -2.032331 0
M  V30 50 H 0.450838 -2.611757 -0.327577 0
M  V30 51 H -1.941785 -1.241898 -1.587939 0
M  V30 52 H -0.236797 -1.563732 -2.201359 0
M  V30 53 H -2.480594 -3.470536 -1.658213 0
M  V30 54 H -1.149402 -3.551887 -2.807908 0
M  V30 55 H 0.416779 -5.727108 -1.747247 0
M  V30 56 H -1.259702 -5.585607 -2.305237 0
M  V30 57 H -0.856391 -6.265786 -0.633583 0
M  V30 58 H -0.154746 -4.497326 1.057497 0
M  V30 59 H -1.892305 -4.738595 0.705807 0
M  V30 60 H -0.875399 -2.489121 1.866026 0
M  V30 61 H -3.258680 -3.334584 0.860851 0
M  V30 62 H -3.118230 -1.834060 -0.039175 0
M  V30 63 H -3.029563 -1.861747 1.793710 0
M  V30 64 H 2.037568 -1.826461 0.927338 0
M  V30 END ATOM
M  V30 BEGIN BOND
M  V30 1 1 1 2
M  V30 2 1 2 3
M  V30 3 2 3 4
M  V30 4 1 3 5
M  V30 5 1 5 6
M  V30 6 2 6 7
M  V30 7 1 7 8
M  V30 8 1 8 9
M  V30 9 1 9 10
M  V30 10 2 10 11
M  V30 11 1 11 12
M  V30 12 1 12 13
M  V30 13 2 13 14
M  V30 14 1 14 15
M  V30 15 2 15 16
M  V30 16 1 16 17
M  V30 17 2 17 18
M  V30 18 1 17 19
M  V30 19 1 19 20
M  V30 20 1 20 21
M  V30 21 1 21 22
M  V30 22 2 12 23
M  V30 23 1 23 24
M  V30 24 1 24 25
M  V30 25 1 25 26
M  V30 26 1 26 27
M  V30 27 1 27 28
M  V30 28 1 27 29
M  V30 29 1 29 30
M  V30 30 1 30 31
M  V30 31 1 23 32
M  V30 32 2 32 33
M  V30 33 1 33 34
M  V30 34 1 34 2
M  V30 35 1 34 7
M  V30 36 1 33 10
M  V30 37 1 18 13
M  V30 38 1 30 24
M  V30 39 1 22 16
M  V30 40 1 1 35
M  V30 41 1 1 36
M  V30 42 1 1 37
M  V30 43 1 2 38 CFG=3
M  V30 44 1 5 39
M  V30 45 1 8 40
M  V30 46 1 8 41
M  V30 47 1 11 42
M  V30 48 1 14 43
M  V30 49 1 15 44
M  V30 50 1 18 45
M  V30 51 1 20 46
M  V30 52 1 20 47
M  V30 53 1 21 48
M  V30 54 1 21 49
M  V30 55 1 24 50 CFG=3
M  V30 56 1 25 51
M  V30 57 1 25 52
M  V30 58 1 26 53
M  V30 59 1 26 54
M  V30 60 1 28 55
M  V30 61 1 28 56
M  V30 62 1 28 57
M  V30 63 1 29 58
M  V30 64 1 29 59
M  V30 65 1 30 60 CFG=1
M  V30 66 1 31 61
M  V30 67 1 31 62
M  V30 68 1 31 63
M  V30 69 1 32 64
M  V30 END BOND
M  V30 END CTAB
M  END
>  <Dataset>  (750) 
ChEMBL_Kinases

>  <Ligand_Instance>  (750) 
nan

>  <PDB_ID>  (750) 
nan

>  <Standardized_SMILES>  (750) 
C[C@@H]1C(=O)NN=C2COc3cc(-c4ccc5c(c4)OCCO5)c([C@@H]4CCN(C)C[C@@H]4C)cc3N21

>  <Name>  (750) 
nan

>  <Pocket>  (750) 
nan

>  <ATP_Site>  (750) 
nan

>  <Peripheral>  (750) 
nan

>  <Num_H_Atoms_ProtBoundConf>  (750) 
nan

>  <Num_Resolved_Atoms>  (750) 
nan

>  <Num_Not_Resolved_Atoms>  (750) 
nan

$$$$
CHEMBL3355135
     RDKit          3D

  0  0  0  0  0  0  0  0  0  0999 V3000
M  V30 BEGIN CTAB
M  V30 COUNTS 66 70 0 0 0
M  V30 BEGIN ATOM
M  V30 1 C 3.409442 3.678978 5.355574 0
M  V30 2 O 3.943449 2.920959 4.286286 0
M  V30 3 C 3.137833 2.016430 3.600078 0
M  V30 4 C 1.812698 1.863063 3.970493 0
M  V30 5 C 1.049653 0.951284 3.255363 0
M  V30 6 C 1.531586 0.179680 2.188140 0
M  V30 7 C 0.514420 -0.704812 1.636276 0
M  V30 8 C 0.033243 -1.602701 2.599688 0
M  V30 9 C -0.907892 -2.548250 2.268564 0
M  V30 10 C -1.414245 -2.654549 0.993361 0
M  V30 11 C -0.902146 -1.745881 0.095823 0
M  V30 12 C 0.016238 -0.786129 0.321074 0
M  V30 13 C 0.544635 0.207491 -0.592263 0 CFG=2
M  V30 14 C -0.417217 1.412640 -0.526823 0
M  V30 15 C -1.733672 1.139509 -1.177661 0
M  V30 16 N -1.648868 0.474379 -2.454531 0
M  V30 17 C -2.520949 1.160904 -3.379007 0
M  V30 18 C -0.290683 0.574976 -2.929299 0
M  V30 19 C 0.715080 -0.119671 -2.015900 0 CFG=2
M  V30 20 C 0.913898 -1.572159 -2.349126 0
M  V30 21 N -2.380497 -3.533360 0.453996 0
M  V30 22 C -2.860351 -4.437871 1.501285 0
M  V30 23 N -3.980763 -5.123100 1.608506 0
M  V30 24 N -4.901193 -4.991534 0.561979 0
M  V30 25 C -4.434635 -4.113651 -0.449390 0
M  V30 26 O -5.307575 -3.535703 -1.189786 0
M  V30 27 C -2.977926 -3.760606 -0.775558 0 CFG=1
M  V30 28 C -2.867658 -2.976563 -1.986316 0
M  V30 29 C -2.003692 -4.690208 2.724673 0
M  V30 30 O -1.428313 -3.471187 3.170384 0
M  V30 31 C 2.855874 0.369852 1.862120 0
M  V30 32 C 3.620347 1.261986 2.553584 0
M  V30 33 O 4.949423 1.434052 2.203438 0
M  V30 34 C 5.450048 0.657450 1.124916 0
M  V30 35 H 3.266829 3.045576 6.277030 0
M  V30 36 H 2.450546 4.166941 5.050575 0
M  V30 37 H 4.080584 4.549871 5.590002 0
M  V30 38 H 1.427061 2.436961 4.775607 0
M  V30 39 H 0.013350 0.897699 3.619107 0
M  V30 40 H 0.341188 -1.632636 3.635655 0
M  V30 41 H -1.202755 -1.737492 -0.908423 0
M  V30 42 H 1.505342 0.641194 -0.199063 0
M  V30 43 H -0.610760 1.612635 0.555843 0
M  V30 44 H 0.064545 2.319258 -0.956430 0
M  V30 45 H -2.194540 2.152765 -1.366539 0
M  V30 46 H -2.463282 0.640642 -0.495636 0
M  V30 47 H -1.915509 1.978549 -3.861591 0
M  V30 48 H -3.359081 1.693677 -2.876569 0
M  V30 49 H -2.882625 0.499748 -4.191370 0
M  V30 50 H -0.074314 1.665480 -3.042638 0
M  V30 51 H -0.184161 0.185074 -3.978157 0
M  V30 52 H 1.698472 0.366705 -2.334065 0
M  V30 53 H 0.105981 -1.954746 -3.034148 0
M  V30 54 H 1.070374 -2.226466 -1.463440 0
M  V30 55 H 1.844565 -1.765270 -2.963818 0
M  V30 56 H -5.843692 -5.413452 0.399001 0
M  V30 57 H -2.627734 -4.814116 -1.086287 0
M  V30 58 H -1.953475 -3.072870 -2.607441 0
M  V30 59 H -3.641469 -3.366645 -2.764745 0
M  V30 60 H -3.256112 -1.935939 -1.885594 0
M  V30 61 H -1.162589 -5.358991 2.457226 0
M  V30 62 H -2.549634 -5.126645 3.552696 0
M  V30 63 H 3.205731 -0.247218 1.051849 0
M  V30 64 H 6.567803 0.725211 1.069671 0
M  V30 65 H 5.092120 0.988131 0.136999 0
M  V30 66 H 5.224432 -0.423630 1.251994 0
M  V30 END ATOM
M  V30 BEGIN BOND
M  V30 1 1 1 2
M  V30 2 1 2 3
M  V30 3 2 3 4
M  V30 4 1 4 5
M  V30 5 2 5 6
M  V30 6 1 6 7
M  V30 7 2 7 8
M  V30 8 1 8 9
M  V30 9 2 9 10
M  V30 10 1 10 11
M  V30 11 2 11 12
M  V30 12 1 12 13
M  V30 13 1 13 14
M  V30 14 1 14 15
M  V30 15 1 15 16
M  V30 16 1 16 17
M  V30 17 1 16 18
M  V30 18 1 18 19
M  V30 19 1 19 20
M  V30 20 1 10 21
M  V30 21 1 21 22
M  V30 22 2 22 23
M  V30 23 1 23 24
M  V30 24 1 24 25
M  V30 25 2 25 26
M  V30 26 1 25 27
M  V30 27 1 27 28
M  V30 28 1 22 29
M  V30 29 1 29 30
M  V30 30 1 6 31
M  V30 31 2 31 32
M  V30 32 1 32 33
M  V30 33 1 33 34
M  V30 34 1 32 3
M  V30 35 1 12 7
M  V30 36 1 19 13
M  V30 37 1 27 21
M  V30 38 1 30 9
M  V30 39 1 1 35
M  V30 40 1 1 36
M  V30 41 1 1 37
M  V30 42 1 4 38
M  V30 43 1 5 39
M  V30 44 1 8 40
M  V30 45 1 11 41
M  V30 46 1 13 42 CFG=1
M  V30 47 1 14 43
M  V30 48 1 14 44
M  V30 49 1 15 45
M  V30 50 1 15 46
M  V30 51 1 17 47
M  V30 52 1 17 48
M  V30 53 1 17 49
M  V30 54 1 18 50
M  V30 55 1 18 51
M  V30 56 1 19 52 CFG=3
M  V30 57 1 20 53
M  V30 58 1 20 54
M  V30 59 1 20 55
M  V30 60 1 24 56
M  V30 61 1 27 57 CFG=3
M  V30 62 1 28 58
M  V30 63 1 28 59
M  V30 64 1 28 60
M  V30 65 1 29 61
M  V30 66 1 29 62
M  V30 67 1 31 63
M  V30 68 1 34 64
M  V30 69 1 34 65
M  V30 70 1 34 66
M  V30 END BOND
M  V30 END CTAB
M  END
>  <Dataset>  (751) 
ChEMBL_Kinases

>  <Ligand_Instance>  (751) 
nan

>  <PDB_ID>  (751) 
nan

>  <Standardized_SMILES>  (751) 
COc1ccc(-c2cc3c(cc2[C@@H]2CCN(C)C[C@@H]2C)N2C(=NNC(=O)[C@H]2C)CO3)cc1OC

>  <Name>  (751) 
nan

>  <Pocket>  (751) 
nan

>  <ATP_Site>  (751) 
nan

>  <Peripheral>  (751) 
nan

>  <Num_H_Atoms_ProtBoundConf>  (751) 
nan

>  <Num_Resolved_Atoms>  (751) 
nan

>  <Num_Not_Resolved_Atoms>  (751) 
nan

$$$$
CHEMBL3355116
     RDKit          3D

  0  0  0  0  0  0  0  0  0  0999 V3000
M  V30 BEGIN CTAB
M  V30 COUNTS 54 58 0 0 0
M  V30 BEGIN ATOM
M  V30 1 C 1.906223 -3.703705 2.891421 0
M  V30 2 C 2.698049 -3.681862 1.577727 0
M  V30 3 C 3.877741 -4.560299 1.786341 0
M  V30 4 O 3.557002 -5.765696 1.937034 0
M  V30 5 N 5.232812 -4.135837 1.820099 0
M  V30 6 N 5.486046 -2.791343 1.559132 0
M  V30 7 C 4.526844 -1.972221 1.298661 0
M  V30 8 C 4.995750 -0.590042 1.049502 0
M  V30 9 O 3.973294 0.259826 0.608075 0
M  V30 10 C 2.630837 -0.021729 0.539585 0
M  V30 11 C 1.664660 0.896656 0.174185 0
M  V30 12 C 0.309352 0.536138 0.127264 0
M  V30 13 C -0.433051 1.692961 -0.345896 0
M  V30 14 C -1.144484 1.926219 -1.502069 0
M  V30 15 C -1.801295 3.114767 -1.727676 0
M  V30 16 C -1.778759 4.137007 -0.803174 0
M  V30 17 C -1.083871 3.964925 0.371369 0
M  V30 18 C -0.430132 2.755542 0.574439 0
M  V30 19 C -0.059776 -0.747234 0.451217 0
M  V30 20 N -1.428372 -1.047492 0.444435 0
M  V30 21 C -2.743074 -0.564525 0.234314 0
M  V30 22 C -3.093656 0.700767 1.022369 0
M  V30 23 C -3.372604 -0.644371 -1.107079 0
M  V30 24 N -3.745668 -2.025527 -0.834788 0
M  V30 25 C -4.976944 -2.446731 -1.447078 0
M  V30 26 C -3.791141 -1.669149 0.555013 0
M  V30 27 C 0.927610 -1.634415 0.808674 0
M  V30 28 C 2.260613 -1.307416 0.861305 0
M  V30 29 N 3.154753 -2.343352 1.251880 0
M  V30 30 H 0.969703 -4.298654 2.784301 0
M  V30 31 H 1.723631 -2.662771 3.241741 0
M  V30 32 H 2.472982 -4.201071 3.708804 0
M  V30 33 H 2.062199 -4.064412 0.753059 0
M  V30 34 H 5.948664 -4.862548 2.038834 0
M  V30 35 H 5.888908 -0.583099 0.400760 0
M  V30 36 H 5.356797 -0.138097 2.019802 0
M  V30 37 H 2.114361 1.870612 -0.051390 0
M  V30 38 H -1.087574 1.087850 -2.170967 0
M  V30 39 H -2.319021 3.135272 -2.695791 0
M  V30 40 H -2.320696 5.036068 -1.059567 0
M  V30 41 H -1.059978 4.758203 1.099876 0
M  V30 42 H 0.098049 2.710367 1.540778 0
M  V30 43 H -1.527051 -2.051138 0.694767 0
M  V30 44 H -2.303967 0.944062 1.754327 0
M  V30 45 H -3.302744 1.523289 0.318549 0
M  V30 46 H -4.008241 0.510666 1.641026 0
M  V30 47 H -4.269144 0.036552 -1.139741 0
M  V30 48 H -2.676681 -0.515697 -1.928215 0
M  V30 49 H -4.810766 -2.374536 -2.560549 0
M  V30 50 H -5.871183 -1.902852 -1.121512 0
M  V30 51 H -5.047164 -3.551994 -1.270147 0
M  V30 52 H -4.731370 -1.199199 0.900553 0
M  V30 53 H -3.356308 -2.407171 1.269053 0
M  V30 54 H 0.628792 -2.655019 1.064065 0
M  V30 END ATOM
M  V30 BEGIN BOND
M  V30 1 1 1 2
M  V30 2 1 2 3
M  V30 3 2 3 4
M  V30 4 1 3 5
M  V30 5 1 5 6
M  V30 6 2 6 7
M  V30 7 1 7 8
M  V30 8 1 8 9
M  V30 9 1 9 10
M  V30 10 2 10 11
M  V30 11 1 11 12
M  V30 12 1 12 13
M  V30 13 2 13 14
M  V30 14 1 14 15
M  V30 15 2 15 16
M  V30 16 1 16 17
M  V30 17 2 17 18
M  V30 18 2 12 19
M  V30 19 1 19 20
M  V30 20 1 20 21
M  V30 21 1 21 22
M  V30 22 1 21 23
M  V30 23 1 23 24
M  V30 24 1 24 25
M  V30 25 1 24 26
M  V30 26 1 19 27
M  V30 27 2 27 28
M  V30 28 1 28 29
M  V30 29 1 29 2
M  V30 30 1 29 7
M  V30 31 1 28 10
M  V30 32 1 18 13
M  V30 33 1 26 21
M  V30 34 1 1 30
M  V30 35 1 1 31
M  V30 36 1 1 32
M  V30 37 1 2 33
M  V30 38 1 5 34
M  V30 39 1 8 35
M  V30 40 1 8 36
M  V30 41 1 11 37
M  V30 42 1 14 38
M  V30 43 1 15 39
M  V30 44 1 16 40
M  V30 45 1 17 41
M  V30 46 1 18 42
M  V30 47 1 20 43
M  V30 48 1 22 44
M  V30 49 1 22 45
M  V30 50 1 22 46
M  V30 51 1 23 47
M  V30 52 1 23 48
M  V30 53 1 25 49
M  V30 54 1 25 50
M  V30 55 1 25 51
M  V30 56 1 26 52
M  V30 57 1 26 53
M  V30 58 1 27 54
M  V30 END BOND
M  V30 END CTAB
M  END
>  <Dataset>  (752) 
ChEMBL_Kinases

>  <Ligand_Instance>  (752) 
nan

>  <PDB_ID>  (752) 
nan

>  <Standardized_SMILES>  (752) 
CC1C(=O)NN=C2COc3cc(-c4ccccc4)c(NC4(C)CN(C)C4)cc3N21

>  <Name>  (752) 
nan

>  <Pocket>  (752) 
nan

>  <ATP_Site>  (752) 
nan

>  <Peripheral>  (752) 
nan

>  <Num_H_Atoms_ProtBoundConf>  (752) 
nan

>  <Num_Resolved_Atoms>  (752) 
nan

>  <Num_Not_Resolved_Atoms>  (752) 
nan

$$$$
CHEMBL3355117
     RDKit          3D

  0  0  0  0  0  0  0  0  0  0999 V3000
M  V30 BEGIN CTAB
M  V30 COUNTS 57 61 0 0 0
M  V30 BEGIN ATOM
M  V30 1 C 1.139002 -3.609043 3.346596 0
M  V30 2 C 1.491571 -3.869398 1.908791 0 CFG=2
M  V30 3 C 2.332182 -5.117419 1.835210 0
M  V30 4 O 1.746558 -6.246637 1.891651 0
M  V30 5 N 3.748979 -5.132805 1.705778 0
M  V30 6 N 4.378523 -3.914000 1.438986 0
M  V30 7 C 3.713999 -2.814715 1.313222 0
M  V30 8 C 4.525430 -1.602715 1.030643 0
M  V30 9 O 3.744356 -0.553157 0.510566 0
M  V30 10 C 2.369168 -0.452564 0.612838 0
M  V30 11 C 1.834734 0.761383 0.237237 0
M  V30 12 C 0.459676 0.893710 0.328403 0
M  V30 13 C -0.149561 2.157203 -0.047047 0
M  V30 14 C 0.278422 2.525860 -1.332781 0
M  V30 15 C -0.135618 3.698743 -1.947149 0
M  V30 16 C -0.998338 4.556414 -1.300172 0
M  V30 17 C -1.416845 4.193842 -0.039642 0
M  V30 18 C -1.010477 3.032929 0.575858 0
M  V30 19 C -0.314738 -0.150581 0.775065 0
M  V30 20 N -1.703360 -0.209444 0.934182 0
M  V30 21 C -2.853932 0.291628 1.651692 0
M  V30 22 C -2.310828 -1.156915 0.005485 0
M  V30 23 C -3.017369 -2.237092 0.760761 0
M  V30 24 C -1.510583 -1.576481 -1.170954 0
M  V30 25 N -2.686717 -1.375528 -2.009019 0
M  V30 26 C -2.364225 -0.877138 -3.310657 0
M  V30 27 C -3.158483 -0.438047 -1.027100 0
M  V30 28 C 0.275945 -1.365896 1.145485 0
M  V30 29 C 1.662660 -1.543602 1.069392 0
M  V30 30 N 2.297605 -2.760295 1.435927 0
M  V30 31 H 0.086413 -3.911729 3.500044 0
M  V30 32 H 1.822030 -4.141850 4.049112 0
M  V30 33 H 1.233054 -2.534408 3.600843 0
M  V30 34 H 0.615427 -4.088412 1.267224 0
M  V30 35 H 4.269238 -6.022064 1.809139 0
M  V30 36 H 5.352158 -1.817179 0.338961 0
M  V30 37 H 4.960423 -1.190486 1.988122 0
M  V30 38 H 2.449531 1.578625 -0.113403 0
M  V30 39 H 0.958906 1.966779 -1.985759 0
M  V30 40 H 0.168939 4.016755 -2.929715 0
M  V30 41 H -1.404983 5.496453 -1.646593 0
M  V30 42 H -2.093741 4.793520 0.557107 0
M  V30 43 H -1.271018 2.668924 1.556403 0
M  V30 44 H -3.442146 -0.530488 2.158870 0
M  V30 45 H -3.575603 0.819725 1.006022 0
M  V30 46 H -2.547603 0.929698 2.531151 0
M  V30 47 H -2.620108 -2.354036 1.789530 0
M  V30 48 H -4.099376 -1.960129 0.865494 0
M  V30 49 H -2.987638 -3.220568 0.247124 0
M  V30 50 H -0.700972 -0.924048 -1.491150 0
M  V30 51 H -1.277781 -2.680714 -1.217755 0
M  V30 52 H -2.343942 -1.764623 -3.993156 0
M  V30 53 H -3.120720 -0.193530 -3.745690 0
M  V30 54 H -1.364475 -0.399321 -3.347024 0
M  V30 55 H -4.229718 -0.534503 -0.754576 0
M  V30 56 H -2.900068 0.629266 -1.189681 0
M  V30 57 H -0.241952 -2.253650 1.511202 0
M  V30 END ATOM
M  V30 BEGIN BOND
M  V30 1 1 1 2
M  V30 2 1 2 3
M  V30 3 2 3 4
M  V30 4 1 3 5
M  V30 5 1 5 6
M  V30 6 2 6 7
M  V30 7 1 7 8
M  V30 8 1 8 9
M  V30 9 1 9 10
M  V30 10 2 10 11
M  V30 11 1 11 12
M  V30 12 1 12 13
M  V30 13 2 13 14
M  V30 14 1 14 15
M  V30 15 2 15 16
M  V30 16 1 16 17
M  V30 17 2 17 18
M  V30 18 2 12 19
M  V30 19 1 19 20
M  V30 20 1 20 21
M  V30 21 1 20 22
M  V30 22 1 22 23
M  V30 23 1 22 24
M  V30 24 1 24 25
M  V30 25 1 25 26
M  V30 26 1 25 27
M  V30 27 1 19 28
M  V30 28 2 28 29
M  V30 29 1 29 30
M  V30 30 1 30 2
M  V30 31 1 30 7
M  V30 32 1 29 10
M  V30 33 1 18 13
M  V30 34 1 27 22
M  V30 35 1 1 31
M  V30 36 1 1 32
M  V30 37 1 1 33
M  V30 38 1 2 34 CFG=3
M  V30 39 1 5 35
M  V30 40 1 8 36
M  V30 41 1 8 37
M  V30 42 1 11 38
M  V30 43 1 14 39
M  V30 44 1 15 40
M  V30 45 1 16 41
M  V30 46 1 17 42
M  V30 47 1 18 43
M  V30 48 1 21 44
M  V30 49 1 21 45
M  V30 50 1 21 46
M  V30 51 1 23 47
M  V30 52 1 23 48
M  V30 53 1 23 49
M  V30 54 1 24 50
M  V30 55 1 24 51
M  V30 56 1 26 52
M  V30 57 1 26 53
M  V30 58 1 26 54
M  V30 59 1 27 55
M  V30 60 1 27 56
M  V30 61 1 28 57
M  V30 END BOND
M  V30 END CTAB
M  END
>  <Dataset>  (753) 
ChEMBL_Kinases

>  <Ligand_Instance>  (753) 
nan

>  <PDB_ID>  (753) 
nan

>  <Standardized_SMILES>  (753) 
C[C@@H]1C(=O)NN=C2COc3cc(-c4ccccc4)c(N(C)C4(C)CN(C)C4)cc3N21

>  <Name>  (753) 
nan

>  <Pocket>  (753) 
nan

>  <ATP_Site>  (753) 
nan

>  <Peripheral>  (753) 
nan

>  <Num_H_Atoms_ProtBoundConf>  (753) 
nan

>  <Num_Resolved_Atoms>  (753) 
nan

>  <Num_Not_Resolved_Atoms>  (753) 
nan

$$$$
CHEMBL3355118
     RDKit          3D

  0  0  0  0  0  0  0  0  0  0999 V3000
M  V30 BEGIN CTAB
M  V30 COUNTS 57 61 0 0 0
M  V30 BEGIN ATOM
M  V30 1 C 2.421119 -3.871736 -0.550810 0
M  V30 2 C 3.116060 -2.558640 -0.823363 0 CFG=2
M  V30 3 C 4.531078 -2.769823 -1.294980 0
M  V30 4 O 4.798104 -3.015526 -2.518732 0
M  V30 5 N 5.649035 -2.712829 -0.433717 0
M  V30 6 N 5.489314 -2.167486 0.841025 0
M  V30 7 C 4.334666 -1.719017 1.232577 0
M  V30 8 C 4.295518 -1.163942 2.609449 0
M  V30 9 O 3.306558 -0.177562 2.769184 0
M  V30 10 C 2.175628 -0.188307 1.979868 0
M  V30 11 C 1.104550 0.607339 2.403529 0
M  V30 12 C -0.075172 0.644703 1.650751 0
M  V30 13 C -1.120187 1.506966 2.191565 0
M  V30 14 C -1.397734 2.844536 1.991738 0
M  V30 15 C -2.465534 3.417750 2.643906 0
M  V30 16 C -3.268810 2.699121 3.491833 0
M  V30 17 C -3.016771 1.363427 3.710902 0
M  V30 18 C -1.942064 0.774141 3.058333 0
M  V30 19 F -1.815491 -0.552161 3.371854 0
M  V30 20 C -0.134051 -0.125234 0.491393 0
M  V30 21 N -1.356151 -0.044454 -0.231841 0
M  V30 22 C -1.692104 1.273880 -0.768898 0
M  V30 23 C -2.450274 -0.908704 -0.629008 0
M  V30 24 C -3.804741 -0.485731 -0.113554 0
M  V30 25 C -2.517510 -0.951887 -2.157553 0
M  V30 26 N -3.089020 -2.267663 -1.979469 0
M  V30 27 C -2.777385 -3.236198 -2.992686 0
M  V30 28 C -2.223243 -2.354475 -0.788985 0
M  V30 29 C 0.948639 -0.891243 0.118590 0
M  V30 30 C 2.123073 -0.947816 0.839892 0
M  V30 31 N 3.193954 -1.765207 0.384524 0
M  V30 32 H 1.734832 -4.107647 -1.393374 0
M  V30 33 H 3.115256 -4.714209 -0.420521 0
M  V30 34 H 1.792250 -3.792740 0.374089 0
M  V30 35 H 2.630391 -2.020836 -1.674626 0
M  V30 36 H 6.597770 -3.060796 -0.703592 0
M  V30 37 H 4.059151 -1.969828 3.358115 0
M  V30 38 H 5.296871 -0.795993 2.921084 0
M  V30 39 H 1.202539 1.188615 3.315106 0
M  V30 40 H -0.688195 3.282946 1.303792 0
M  V30 41 H -2.593600 4.462083 2.418947 0
M  V30 42 H -4.086674 3.228538 3.963297 0
M  V30 43 H -3.679497 0.859785 4.382706 0
M  V30 44 H -0.844545 1.989586 -0.714651 0
M  V30 45 H -1.909333 1.237773 -1.878091 0
M  V30 46 H -2.639730 1.655185 -0.339157 0
M  V30 47 H -3.706813 0.240020 0.700323 0
M  V30 48 H -4.308577 -1.441908 0.203139 0
M  V30 49 H -4.458085 -0.048132 -0.899411 0
M  V30 50 H -1.501139 -1.046541 -2.602635 0
M  V30 51 H -3.154022 -0.199317 -2.624758 0
M  V30 52 H -3.328726 -4.164468 -2.736252 0
M  V30 53 H -3.028047 -2.931104 -4.005171 0
M  V30 54 H -1.681996 -3.486826 -2.886754 0
M  V30 55 H -1.193964 -2.624585 -1.003649 0
M  V30 56 H -2.789698 -3.034614 -0.087322 0
M  V30 57 H 0.884541 -1.474959 -0.776859 0
M  V30 END ATOM
M  V30 BEGIN BOND
M  V30 1 1 1 2
M  V30 2 1 2 3
M  V30 3 2 3 4
M  V30 4 1 3 5
M  V30 5 1 5 6
M  V30 6 2 6 7
M  V30 7 1 7 8
M  V30 8 1 8 9
M  V30 9 1 9 10
M  V30 10 2 10 11
M  V30 11 1 11 12
M  V30 12 1 12 13
M  V30 13 2 13 14
M  V30 14 1 14 15
M  V30 15 2 15 16
M  V30 16 1 16 17
M  V30 17 2 17 18
M  V30 18 1 18 19
M  V30 19 2 12 20
M  V30 20 1 20 21
M  V30 21 1 21 22
M  V30 22 1 21 23
M  V30 23 1 23 24
M  V30 24 1 23 25
M  V30 25 1 25 26
M  V30 26 1 26 27
M  V30 27 1 26 28
M  V30 28 1 20 29
M  V30 29 2 29 30
M  V30 30 1 30 31
M  V30 31 1 31 2
M  V30 32 1 31 7
M  V30 33 1 30 10
M  V30 34 1 18 13
M  V30 35 1 28 23
M  V30 36 1 1 32
M  V30 37 1 1 33
M  V30 38 1 1 34
M  V30 39 1 2 35 CFG=3
M  V30 40 1 5 36
M  V30 41 1 8 37
M  V30 42 1 8 38
M  V30 43 1 11 39
M  V30 44 1 14 40
M  V30 45 1 15 41
M  V30 46 1 16 42
M  V30 47 1 17 43
M  V30 48 1 22 44
M  V30 49 1 22 45
M  V30 50 1 22 46
M  V30 51 1 24 47
M  V30 52 1 24 48
M  V30 53 1 24 49
M  V30 54 1 25 50
M  V30 55 1 25 51
M  V30 56 1 27 52
M  V30 57 1 27 53
M  V30 58 1 27 54
M  V30 59 1 28 55
M  V30 60 1 28 56
M  V30 61 1 29 57
M  V30 END BOND
M  V30 END CTAB
M  END
>  <Dataset>  (754) 
ChEMBL_Kinases

>  <Ligand_Instance>  (754) 
nan

>  <PDB_ID>  (754) 
nan

>  <Standardized_SMILES>  (754) 
C[C@@H]1C(=O)NN=C2COc3cc(-c4ccccc4F)c(N(C)C4(C)CN(C)C4)cc3N21

>  <Name>  (754) 
nan

>  <Pocket>  (754) 
nan

>  <ATP_Site>  (754) 
nan

>  <Peripheral>  (754) 
nan

>  <Num_H_Atoms_ProtBoundConf>  (754) 
nan

>  <Num_Resolved_Atoms>  (754) 
nan

>  <Num_Not_Resolved_Atoms>  (754) 
nan

$$$$
CHEMBL3355119
     RDKit          3D

  0  0  0  0  0  0  0  0  0  0999 V3000
M  V30 BEGIN CTAB
M  V30 COUNTS 58 62 0 0 0
M  V30 BEGIN ATOM
M  V30 1 C 1.478301 -4.376682 2.490378 0
M  V30 2 C 2.248793 -3.742215 1.369403 0 CFG=2
M  V30 3 C 3.487903 -4.580719 1.187764 0
M  V30 4 O 3.390163 -5.659626 0.538565 0
M  V30 5 N 4.775138 -4.255270 1.692448 0
M  V30 6 N 4.951851 -2.957461 2.176346 0
M  V30 7 C 3.996713 -2.106558 2.163179 0
M  V30 8 C 4.417213 -0.810244 2.722071 0
M  V30 9 O 3.555346 0.191323 2.226175 0
M  V30 10 C 2.283890 0.008292 1.749365 0
M  V30 11 C 1.396328 1.068840 1.532511 0
M  V30 12 C 0.108490 0.823514 1.043472 0
M  V30 13 C -0.619636 2.074053 0.947456 0
M  V30 14 C -0.815093 3.063806 0.007861 0
M  V30 15 C -1.586200 4.173151 0.259782 0
M  V30 16 C -2.212711 4.364117 1.471846 0
M  V30 17 C -2.041576 3.394187 2.442665 0
M  V30 18 C -1.256376 2.260163 2.192046 0
M  V30 19 F -1.244329 1.467378 3.307614 0
M  V30 20 C -0.374490 -0.406288 0.747520 0
M  V30 21 C -1.700537 -0.671164 0.205938 0 CFG=1
M  V30 22 C -2.882647 -0.151272 0.965678 0
M  V30 23 C -1.844931 -0.704441 -1.278866 0
M  V30 24 C -1.500658 0.495269 -2.082901 0
M  V30 25 C -3.119955 -1.352299 -1.785044 0
M  V30 26 N -2.423687 -2.243077 -2.661827 0
M  V30 27 C -2.427382 -1.974936 -4.063720 0
M  V30 28 C -1.214112 -1.940221 -1.942642 0
M  V30 29 C 0.578327 -1.409271 0.994588 0
M  V30 30 C 1.862087 -1.273527 1.472194 0
M  V30 31 N 2.699100 -2.405811 1.664474 0
M  V30 32 H 2.050652 -5.178102 3.026086 0
M  V30 33 H 1.280165 -3.585731 3.255793 0
M  V30 34 H 0.556737 -4.858102 2.120889 0
M  V30 35 H 1.706818 -3.839456 0.406823 0
M  V30 36 H 5.527931 -4.984852 1.683278 0
M  V30 37 H 4.234553 -0.831015 3.830859 0
M  V30 38 H 5.465372 -0.536405 2.488075 0
M  V30 39 H 1.827660 2.030040 1.782099 0
M  V30 40 H -0.265170 2.792021 -0.880692 0
M  V30 41 H -1.614529 4.833537 -0.609676 0
M  V30 42 H -2.794669 5.261857 1.575851 0
M  V30 43 H -2.565514 3.624919 3.356092 0
M  V30 44 H -1.805165 -1.818692 0.458372 0
M  V30 45 H -3.764939 -0.807736 0.679601 0
M  V30 46 H -3.230567 0.854505 0.668938 0
M  V30 47 H -2.749971 -0.337889 2.024739 0
M  V30 48 H -0.411407 0.686371 -1.949493 0
M  V30 49 H -1.573128 0.203286 -3.177111 0
M  V30 50 H -2.127811 1.366633 -1.896065 0
M  V30 51 H -3.701452 -1.917039 -1.031896 0
M  V30 52 H -3.794807 -0.624684 -2.292453 0
M  V30 53 H -2.809811 -2.906978 -4.576528 0
M  V30 54 H -1.426584 -1.783520 -4.510150 0
M  V30 55 H -3.128079 -1.166722 -4.381722 0
M  V30 56 H -0.329856 -1.709882 -2.538502 0
M  V30 57 H -1.053765 -2.719692 -1.169969 0
M  V30 58 H 0.276620 -2.447536 0.787692 0
M  V30 END ATOM
M  V30 BEGIN BOND
M  V30 1 1 1 2
M  V30 2 1 2 3
M  V30 3 2 3 4
M  V30 4 1 3 5
M  V30 5 1 5 6
M  V30 6 2 6 7
M  V30 7 1 7 8
M  V30 8 1 8 9
M  V30 9 1 9 10
M  V30 10 2 10 11
M  V30 11 1 11 12
M  V30 12 1 12 13
M  V30 13 2 13 14
M  V30 14 1 14 15
M  V30 15 2 15 16
M  V30 16 1 16 17
M  V30 17 2 17 18
M  V30 18 1 18 19
M  V30 19 2 12 20
M  V30 20 1 20 21
M  V30 21 1 21 22
M  V30 22 1 21 23
M  V30 23 1 23 24
M  V30 24 1 23 25
M  V30 25 1 25 26
M  V30 26 1 26 27
M  V30 27 1 26 28
M  V30 28 1 20 29
M  V30 29 2 29 30
M  V30 30 1 30 31
M  V30 31 1 31 2
M  V30 32 1 31 7
M  V30 33 1 30 10
M  V30 34 1 18 13
M  V30 35 1 28 23
M  V30 36 1 1 32
M  V30 37 1 1 33
M  V30 38 1 1 34
M  V30 39 1 2 35 CFG=3
M  V30 40 1 5 36
M  V30 41 1 8 37
M  V30 42 1 8 38
M  V30 43 1 11 39
M  V30 44 1 14 40
M  V30 45 1 15 41
M  V30 46 1 16 42
M  V30 47 1 17 43
M  V30 48 1 21 44 CFG=1
M  V30 49 1 22 45
M  V30 50 1 22 46
M  V30 51 1 22 47
M  V30 52 1 24 48
M  V30 53 1 24 49
M  V30 54 1 24 50
M  V30 55 1 25 51
M  V30 56 1 25 52
M  V30 57 1 27 53
M  V30 58 1 27 54
M  V30 59 1 27 55
M  V30 60 1 28 56
M  V30 61 1 28 57
M  V30 62 1 29 58
M  V30 END BOND
M  V30 END CTAB
M  END
>  <Dataset>  (755) 
ChEMBL_Kinases

>  <Ligand_Instance>  (755) 
nan

>  <PDB_ID>  (755) 
nan

>  <Standardized_SMILES>  (755) 
C[C@@H]1C(=O)NN=C2COc3cc(-c4ccccc4F)c([C@@H](C)C4(C)CN(C)C4)cc3N21

>  <Name>  (755) 
nan

>  <Pocket>  (755) 
nan

>  <ATP_Site>  (755) 
nan

>  <Peripheral>  (755) 
nan

>  <Num_H_Atoms_ProtBoundConf>  (755) 
nan

>  <Num_Resolved_Atoms>  (755) 
nan

>  <Num_Not_Resolved_Atoms>  (755) 
nan

$$$$
CHEMBL3355120
     RDKit          3D

  0  0  0  0  0  0  0  0  0  0999 V3000
M  V30 BEGIN CTAB
M  V30 COUNTS 52 56 0 0 0
M  V30 BEGIN ATOM
M  V30 1 C 0.335119 -3.943795 1.899036 0
M  V30 2 C 1.309536 -3.843781 0.745521 0 CFG=2
M  V30 3 C 2.121548 -5.088399 0.739099 0
M  V30 4 O 1.420509 -6.124394 0.491738 0
M  V30 5 N 3.522026 -5.154009 0.977389 0
M  V30 6 N 4.213137 -3.950721 1.137394 0
M  V30 7 C 3.585138 -2.827059 1.068055 0
M  V30 8 C 4.504920 -1.666432 1.265853 0
M  V30 9 O 3.891631 -0.428267 0.997216 0
M  V30 10 C 2.529160 -0.270951 0.765491 0
M  V30 11 C 1.996739 1.003122 0.613727 0
M  V30 12 C 0.635971 1.199573 0.380311 0
M  V30 13 C 0.047897 2.526560 0.216766 0
M  V30 14 C 0.007039 3.015800 -1.093214 0
M  V30 15 C -0.546498 4.280564 -1.298722 0
M  V30 16 C -1.034676 5.021322 -0.254508 0
M  V30 17 C -0.998709 4.545449 1.046540 0
M  V30 18 C -0.455221 3.307385 1.235999 0
M  V30 19 F -0.399350 2.801532 2.493685 0
M  V30 20 C -0.225534 0.100135 0.294319 0
M  V30 21 C -1.670945 0.282653 0.047713 0
M  V30 22 C -2.478535 0.424325 1.312081 0
M  V30 23 C -3.276991 -0.861712 1.377153 0
M  V30 24 N -3.390932 -1.349767 0.039402 0
M  V30 25 C -3.527960 -2.780847 -0.052059 0
M  V30 26 C -2.307616 -0.809654 -0.747569 0
M  V30 27 C 0.358175 -1.154826 0.453547 0
M  V30 28 C 1.698319 -1.378399 0.684943 0
M  V30 29 N 2.188981 -2.704156 0.832492 0
M  V30 30 H -0.714037 -4.108400 1.528637 0
M  V30 31 H 0.398910 -3.028927 2.534164 0
M  V30 32 H 0.525957 -4.808393 2.567393 0
M  V30 33 H 0.788300 -3.819226 -0.234384 0
M  V30 34 H 3.916287 -6.132961 1.011480 0
M  V30 35 H 5.421463 -1.783091 0.618358 0
M  V30 36 H 4.814413 -1.662901 2.331505 0
M  V30 37 H 2.642397 1.866810 0.676217 0
M  V30 38 H 0.370050 2.501669 -1.990044 0
M  V30 39 H -0.591066 4.687010 -2.311387 0
M  V30 40 H -1.467718 6.005456 -0.397823 0
M  V30 41 H -1.373466 5.099667 1.895392 0
M  V30 42 H -1.824485 1.228567 -0.527928 0
M  V30 43 H -3.210080 1.261435 1.250872 0
M  V30 44 H -1.852465 0.542558 2.219855 0
M  V30 45 H -2.754463 -1.587026 2.053068 0
M  V30 46 H -4.301728 -0.669953 1.773375 0
M  V30 47 H -3.210256 -3.137017 -1.058866 0
M  V30 48 H -2.971587 -3.351047 0.696995 0
M  V30 49 H -4.602440 -3.084206 0.048327 0
M  V30 50 H -2.777876 -0.440820 -1.705890 0
M  V30 51 H -1.644508 -1.622491 -1.059274 0
M  V30 52 H -0.270142 -2.024504 0.394251 0
M  V30 END ATOM
M  V30 BEGIN BOND
M  V30 1 1 1 2
M  V30 2 1 2 3
M  V30 3 2 3 4
M  V30 4 1 3 5
M  V30 5 1 5 6
M  V30 6 2 6 7
M  V30 7 1 7 8
M  V30 8 1 8 9
M  V30 9 1 9 10
M  V30 10 2 10 11
M  V30 11 1 11 12
M  V30 12 1 12 13
M  V30 13 2 13 14
M  V30 14 1 14 15
M  V30 15 2 15 16
M  V30 16 1 16 17
M  V30 17 2 17 18
M  V30 18 1 18 19
M  V30 19 2 12 20
M  V30 20 1 20 21
M  V30 21 1 21 22
M  V30 22 1 22 23
M  V30 23 1 23 24
M  V30 24 1 24 25
M  V30 25 1 24 26
M  V30 26 1 20 27
M  V30 27 2 27 28
M  V30 28 1 28 29
M  V30 29 1 29 2
M  V30 30 1 29 7
M  V30 31 1 28 10
M  V30 32 1 18 13
M  V30 33 1 26 21
M  V30 34 1 1 30
M  V30 35 1 1 31
M  V30 36 1 1 32
M  V30 37 1 2 33 CFG=3
M  V30 38 1 5 34
M  V30 39 1 8 35
M  V30 40 1 8 36
M  V30 41 1 11 37
M  V30 42 1 14 38
M  V30 43 1 15 39
M  V30 44 1 16 40
M  V30 45 1 17 41
M  V30 46 1 21 42
M  V30 47 1 22 43
M  V30 48 1 22 44
M  V30 49 1 23 45
M  V30 50 1 23 46
M  V30 51 1 25 47
M  V30 52 1 25 48
M  V30 53 1 25 49
M  V30 54 1 26 50
M  V30 55 1 26 51
M  V30 56 1 27 52
M  V30 END BOND
M  V30 END CTAB
M  END
>  <Dataset>  (756) 
ChEMBL_Kinases

>  <Ligand_Instance>  (756) 
nan

>  <PDB_ID>  (756) 
nan

>  <Standardized_SMILES>  (756) 
C[C@@H]1C(=O)NN=C2COc3cc(-c4ccccc4F)c(C4CCN(C)C4)cc3N21

>  <Name>  (756) 
nan

>  <Pocket>  (756) 
nan

>  <ATP_Site>  (756) 
nan

>  <Peripheral>  (756) 
nan

>  <Num_H_Atoms_ProtBoundConf>  (756) 
nan

>  <Num_Resolved_Atoms>  (756) 
nan

>  <Num_Not_Resolved_Atoms>  (756) 
nan

$$$$
CHEMBL3355121
     RDKit          3D

  0  0  0  0  0  0  0  0  0  0999 V3000
M  V30 BEGIN CTAB
M  V30 COUNTS 52 56 0 0 0
M  V30 BEGIN ATOM
M  V30 1 C 0.979131 -3.664871 3.078966 0
M  V30 2 C 1.744311 -3.787087 1.783882 0 CFG=2
M  V30 3 C 2.679143 -4.930354 1.950976 0
M  V30 4 O 2.169204 -6.096313 2.003081 0
M  V30 5 N 4.086695 -4.754567 2.050691 0
M  V30 6 N 4.661108 -3.496982 1.846396 0
M  V30 7 C 3.907809 -2.488432 1.565227 0
M  V30 8 C 4.704510 -1.262305 1.388950 0
M  V30 9 O 3.913069 -0.259601 0.787145 0
M  V30 10 C 2.536207 -0.321696 0.659830 0
M  V30 11 C 1.845643 0.787688 0.197742 0
M  V30 12 C 0.466426 0.708939 0.076062 0
M  V30 13 C -0.126887 1.942265 -0.425016 0
M  V30 14 C -0.326958 2.326946 -1.761053 0
M  V30 15 C -0.894113 3.556872 -2.004218 0
M  V30 16 C -1.260775 4.398372 -0.983336 0
M  V30 17 C -1.069573 4.032399 0.335406 0
M  V30 18 C -0.504550 2.808427 0.611576 0
M  V30 19 F -0.355357 2.534007 1.925051 0
M  V30 20 C -0.316164 -0.353983 0.362763 0
M  V30 21 C -1.719371 -0.547485 0.286328 0 CFG=1
M  V30 22 C -2.601470 -0.259372 1.456602 0
M  V30 23 C -3.939055 -0.674517 0.812625 0
M  V30 24 N -3.810499 -0.446922 -0.604332 0
M  V30 25 C -3.915253 -1.714823 -1.282637 0
M  V30 26 C -2.492096 0.178520 -0.794285 0
M  V30 27 C 0.449066 -1.439804 0.824599 0
M  V30 28 C 1.816786 -1.453835 0.977294 0
M  V30 29 N 2.495060 -2.610223 1.454582 0
M  V30 30 H 0.000721 -4.166136 2.923358 0
M  V30 31 H 0.891871 -2.614505 3.424358 0
M  V30 32 H 1.475091 -4.207000 3.917955 0
M  V30 33 H 1.089588 -4.067705 0.923227 0
M  V30 34 H 4.646630 -5.627589 2.285151 0
M  V30 35 H 5.514181 -1.481672 0.646241 0
M  V30 36 H 5.100493 -0.860881 2.342253 0
M  V30 37 H 2.426219 1.653562 -0.041828 0
M  V30 38 H 0.003547 1.576905 -2.466845 0
M  V30 39 H -1.015853 3.781418 -3.057857 0
M  V30 40 H -1.706707 5.361878 -1.264850 0
M  V30 41 H -1.387100 4.755448 1.074938 0
M  V30 42 H -1.910900 -1.646179 0.048603 0
M  V30 43 H -2.723533 0.799231 1.683359 0
M  V30 44 H -2.489870 -0.935077 2.311482 0
M  V30 45 H -4.765852 -0.023369 1.176071 0
M  V30 46 H -4.215074 -1.704646 1.076355 0
M  V30 47 H -2.962832 -1.920921 -1.812587 0
M  V30 48 H -4.167314 -2.532572 -0.571193 0
M  V30 49 H -4.773774 -1.661283 -2.008491 0
M  V30 50 H -2.094387 0.042697 -1.803321 0
M  V30 51 H -2.645198 1.255962 -0.504847 0
M  V30 52 H -0.047656 -2.385372 1.101256 0
M  V30 END ATOM
M  V30 BEGIN BOND
M  V30 1 1 1 2
M  V30 2 1 2 3
M  V30 3 2 3 4
M  V30 4 1 3 5
M  V30 5 1 5 6
M  V30 6 2 6 7
M  V30 7 1 7 8
M  V30 8 1 8 9
M  V30 9 1 9 10
M  V30 10 2 10 11
M  V30 11 1 11 12
M  V30 12 1 12 13
M  V30 13 2 13 14
M  V30 14 1 14 15
M  V30 15 2 15 16
M  V30 16 1 16 17
M  V30 17 2 17 18
M  V30 18 1 18 19
M  V30 19 2 12 20
M  V30 20 1 20 21
M  V30 21 1 21 22
M  V30 22 1 22 23
M  V30 23 1 23 24
M  V30 24 1 24 25
M  V30 25 1 24 26
M  V30 26 1 20 27
M  V30 27 2 27 28
M  V30 28 1 28 29
M  V30 29 1 29 2
M  V30 30 1 29 7
M  V30 31 1 28 10
M  V30 32 1 18 13
M  V30 33 1 26 21
M  V30 34 1 1 30
M  V30 35 1 1 31
M  V30 36 1 1 32
M  V30 37 1 2 33 CFG=3
M  V30 38 1 5 34
M  V30 39 1 8 35
M  V30 40 1 8 36
M  V30 41 1 11 37
M  V30 42 1 14 38
M  V30 43 1 15 39
M  V30 44 1 16 40
M  V30 45 1 17 41
M  V30 46 1 21 42 CFG=3
M  V30 47 1 22 43
M  V30 48 1 22 44
M  V30 49 1 23 45
M  V30 50 1 23 46
M  V30 51 1 25 47
M  V30 52 1 25 48
M  V30 53 1 25 49
M  V30 54 1 26 50
M  V30 55 1 26 51
M  V30 56 1 27 52
M  V30 END BOND
M  V30 END CTAB
M  END
>  <Dataset>  (757) 
ChEMBL_Kinases

>  <Ligand_Instance>  (757) 
nan

>  <PDB_ID>  (757) 
nan

>  <Standardized_SMILES>  (757) 
C[C@@H]1C(=O)NN=C2COc3cc(-c4ccccc4F)c([C@H]4CCN(C)C4)cc3N21

>  <Name>  (757) 
nan

>  <Pocket>  (757) 
nan

>  <ATP_Site>  (757) 
nan

>  <Peripheral>  (757) 
nan

>  <Num_H_Atoms_ProtBoundConf>  (757) 
nan

>  <Num_Resolved_Atoms>  (757) 
nan

>  <Num_Not_Resolved_Atoms>  (757) 
nan

$$$$
CHEMBL3355122
     RDKit          3D

  0  0  0  0  0  0  0  0  0  0999 V3000
M  V30 BEGIN CTAB
M  V30 COUNTS 55 59 0 0 0
M  V30 BEGIN ATOM
M  V30 1 C 0.859783 -4.345505 2.160821 0
M  V30 2 C 2.221756 -4.005825 1.812490 0 CFG=2
M  V30 3 C 3.207411 -4.310889 2.953211 0
M  V30 4 O 2.656998 -4.621485 4.057692 0
M  V30 5 N 4.625461 -4.276097 2.878465 0
M  V30 6 N 5.096090 -3.418296 1.878844 0
M  V30 7 C 4.170155 -2.793883 1.181073 0
M  V30 8 C 4.820305 -1.902020 0.140342 0
M  V30 9 O 4.197560 -0.617894 0.177756 0
M  V30 10 C 2.795785 -0.530963 0.189616 0
M  V30 11 C 2.078216 0.544765 -0.280011 0
M  V30 12 C 0.696404 0.558541 -0.236705 0
M  V30 13 C 0.183916 1.793294 -0.799297 0
M  V30 14 C -0.096023 2.151344 -2.131119 0
M  V30 15 C -0.548747 3.424784 -2.396789 0
M  V30 16 C -0.737398 4.358905 -1.410364 0
M  V30 17 C -0.469896 4.028380 -0.106081 0
M  V30 18 C -0.014266 2.761924 0.202501 0
M  V30 19 F 0.208142 2.575148 1.526512 0
M  V30 20 C -0.021797 -0.493268 0.273787 0
M  V30 21 C -1.441930 -0.584293 0.377978 0
M  V30 22 C -2.136838 -0.091861 1.609085 0
M  V30 23 C -3.559296 -0.683680 1.502610 0
M  V30 24 N -4.210757 0.028620 0.427624 0
M  V30 25 C -5.647830 -0.139244 0.421529 0
M  V30 26 C -3.614350 -0.413871 -0.821133 0
M  V30 27 C -2.153346 0.052229 -0.791039 0
M  V30 28 C 0.793278 -1.548504 0.730514 0
M  V30 29 C 2.168221 -1.632899 0.720303 0
M  V30 30 N 2.705847 -2.832329 1.253140 0
M  V30 31 H 0.215536 -4.641812 1.306325 0
M  V30 32 H 0.855465 -5.357010 2.737439 0
M  V30 33 H 0.342071 -3.727883 2.937138 0
M  V30 34 H 2.548743 -4.855894 1.102243 0
M  V30 35 H 5.138641 -4.883362 3.565439 0
M  V30 36 H 5.894945 -1.828154 0.248747 0
M  V30 37 H 4.592379 -2.327619 -0.858136 0
M  V30 38 H 2.726963 1.343435 -0.670737 0
M  V30 39 H 0.097311 1.324038 -2.788581 0
M  V30 40 H -0.733524 3.594799 -3.456257 0
M  V30 41 H -1.099326 5.347765 -1.702139 0
M  V30 42 H -0.636866 4.803624 0.626840 0
M  V30 43 H -1.705785 -1.692984 0.290459 0
M  V30 44 H -2.300789 1.003533 1.548167 0
M  V30 45 H -1.751152 -0.464728 2.556471 0
M  V30 46 H -3.535228 -1.771479 1.385340 0
M  V30 47 H -4.039661 -0.375835 2.471882 0
M  V30 48 H -6.073491 -0.198972 1.425809 0
M  V30 49 H -5.871824 -1.138332 -0.054770 0
M  V30 50 H -6.105160 0.640276 -0.197727 0
M  V30 51 H -3.719322 -1.472939 -1.030924 0
M  V30 52 H -4.094882 0.162743 -1.632706 0
M  V30 53 H -2.209967 1.148652 -0.616027 0
M  V30 54 H -1.637400 -0.244988 -1.710546 0
M  V30 55 H 0.214549 -2.362938 1.120145 0
M  V30 END ATOM
M  V30 BEGIN BOND
M  V30 1 1 1 2
M  V30 2 1 2 3
M  V30 3 2 3 4
M  V30 4 1 3 5
M  V30 5 1 5 6
M  V30 6 2 6 7
M  V30 7 1 7 8
M  V30 8 1 8 9
M  V30 9 1 9 10
M  V30 10 2 10 11
M  V30 11 1 11 12
M  V30 12 1 12 13
M  V30 13 2 13 14
M  V30 14 1 14 15
M  V30 15 2 15 16
M  V30 16 1 16 17
M  V30 17 2 17 18
M  V30 18 1 18 19
M  V30 19 2 12 20
M  V30 20 1 20 21
M  V30 21 1 21 22
M  V30 22 1 22 23
M  V30 23 1 23 24
M  V30 24 1 24 25
M  V30 25 1 24 26
M  V30 26 1 26 27
M  V30 27 1 20 28
M  V30 28 2 28 29
M  V30 29 1 29 30
M  V30 30 1 30 2
M  V30 31 1 30 7
M  V30 32 1 29 10
M  V30 33 1 18 13
M  V30 34 1 27 21
M  V30 35 1 1 31
M  V30 36 1 1 32
M  V30 37 1 1 33
M  V30 38 1 2 34 CFG=3
M  V30 39 1 5 35
M  V30 40 1 8 36
M  V30 41 1 8 37
M  V30 42 1 11 38
M  V30 43 1 14 39
M  V30 44 1 15 40
M  V30 45 1 16 41
M  V30 46 1 17 42
M  V30 47 1 21 43
M  V30 48 1 22 44
M  V30 49 1 22 45
M  V30 50 1 23 46
M  V30 51 1 23 47
M  V30 52 1 25 48
M  V30 53 1 25 49
M  V30 54 1 25 50
M  V30 55 1 26 51
M  V30 56 1 26 52
M  V30 57 1 27 53
M  V30 58 1 27 54
M  V30 59 1 28 55
M  V30 END BOND
M  V30 END CTAB
M  END
>  <Dataset>  (758) 
ChEMBL_Kinases

>  <Ligand_Instance>  (758) 
nan

>  <PDB_ID>  (758) 
nan

>  <Standardized_SMILES>  (758) 
C[C@@H]1C(=O)NN=C2COc3cc(-c4ccccc4F)c(C4CCN(C)CC4)cc3N21

>  <Name>  (758) 
nan

>  <Pocket>  (758) 
nan

>  <ATP_Site>  (758) 
nan

>  <Peripheral>  (758) 
nan

>  <Num_H_Atoms_ProtBoundConf>  (758) 
nan

>  <Num_Resolved_Atoms>  (758) 
nan

>  <Num_Not_Resolved_Atoms>  (758) 
nan

$$$$
CHEMBL3355123
     RDKit          3D

  0  0  0  0  0  0  0  0  0  0999 V3000
M  V30 BEGIN CTAB
M  V30 COUNTS 55 59 0 0 0
M  V30 BEGIN ATOM
M  V30 1 C 1.460816 -3.050825 2.800135 0
M  V30 2 C 0.531059 -3.832758 1.880337 0 CFG=2
M  V30 3 C 0.754992 -5.272716 2.165802 0
M  V30 4 O 0.276116 -5.592437 3.291446 0
M  V30 5 N 1.423176 -6.155469 1.273947 0
M  V30 6 N 1.832215 -5.691092 0.022159 0
M  V30 7 C 1.610228 -4.483587 -0.323392 0
M  V30 8 C 2.116117 -4.174616 -1.685918 0
M  V30 9 O 1.732195 -2.890896 -2.142252 0
M  V30 10 C 1.089123 -1.967199 -1.338015 0
M  V30 11 C 0.841188 -0.719312 -1.869300 0
M  V30 12 C 0.199481 0.190701 -1.056107 0
M  V30 13 C -0.043424 1.515277 -1.670266 0
M  V30 14 C -1.268570 1.564432 -2.304442 0
M  V30 15 C -1.722654 2.699389 -2.952044 0
M  V30 16 C -0.887977 3.800983 -2.939291 0
M  V30 17 C 0.338583 3.762381 -2.308341 0
M  V30 18 C 0.774129 2.626635 -1.669797 0
M  V30 19 F 1.945640 2.443329 -1.015165 0
M  V30 20 C -0.232526 -0.018929 0.267066 0
M  V30 21 C -0.892508 1.077860 0.970779 0 CFG=2
M  V30 22 C -0.012608 1.923936 1.834148 0
M  V30 23 C -0.092752 1.643628 3.301183 0
M  V30 24 N -0.638185 0.372895 3.625515 0
M  V30 25 C -1.888038 0.078827 3.005747 0
M  V30 26 C -2.138861 0.666730 1.670569 0 CFG=2
M  V30 27 C -2.954312 -0.320436 0.848608 0
M  V30 28 C 0.072211 -1.294141 0.676633 0
M  V30 29 C 0.705904 -2.273685 -0.050327 0
M  V30 30 N 0.948453 -3.551894 0.523261 0
M  V30 31 H 2.007701 -2.262330 2.245238 0
M  V30 32 H 0.928314 -2.619410 3.667716 0
M  V30 33 H 2.251104 -3.710895 3.213349 0
M  V30 34 H -0.518751 -3.530141 2.067993 0
M  V30 35 H 1.578284 -7.146976 1.619298 0
M  V30 36 H 3.228287 -4.185103 -1.696865 0
M  V30 37 H 1.737059 -4.978246 -2.361436 0
M  V30 38 H 1.134389 -0.468372 -2.869621 0
M  V30 39 H -1.992406 0.736316 -2.362547 0
M  V30 40 H -2.674995 2.788676 -3.463865 0
M  V30 41 H -1.142099 4.757507 -3.420474 0
M  V30 42 H 1.052637 4.581639 -2.252092 0
M  V30 43 H -1.273357 1.811186 0.157141 0
M  V30 44 H 1.048921 1.839890 1.451683 0
M  V30 45 H -0.222399 3.013726 1.725719 0
M  V30 46 H -0.618158 2.432153 3.860362 0
M  V30 47 H 0.958437 1.657878 3.714396 0
M  V30 48 H 0.011451 -0.403921 3.767332 0
M  V30 49 H -2.713422 0.450047 3.704865 0
M  V30 50 H -2.101134 -1.018066 2.964937 0
M  V30 51 H -2.832424 1.541597 1.814089 0
M  V30 52 H -3.542657 -0.923937 1.567864 0
M  V30 53 H -3.698086 0.197249 0.211065 0
M  V30 54 H -2.326327 -1.024303 0.270528 0
M  V30 55 H -0.214500 -1.554110 1.677896 0
M  V30 END ATOM
M  V30 BEGIN BOND
M  V30 1 1 1 2
M  V30 2 1 2 3
M  V30 3 2 3 4
M  V30 4 1 3 5
M  V30 5 1 5 6
M  V30 6 2 6 7
M  V30 7 1 7 8
M  V30 8 1 8 9
M  V30 9 1 9 10
M  V30 10 2 10 11
M  V30 11 1 11 12
M  V30 12 1 12 13
M  V30 13 2 13 14
M  V30 14 1 14 15
M  V30 15 2 15 16
M  V30 16 1 16 17
M  V30 17 2 17 18
M  V30 18 1 18 19
M  V30 19 2 12 20
M  V30 20 1 20 21
M  V30 21 1 21 22
M  V30 22 1 22 23
M  V30 23 1 23 24
M  V30 24 1 24 25
M  V30 25 1 25 26
M  V30 26 1 26 27
M  V30 27 1 20 28
M  V30 28 2 28 29
M  V30 29 1 29 30
M  V30 30 1 30 2
M  V30 31 1 30 7
M  V30 32 1 29 10
M  V30 33 1 18 13
M  V30 34 1 26 21
M  V30 35 1 1 31
M  V30 36 1 1 32
M  V30 37 1 1 33
M  V30 38 1 2 34 CFG=3
M  V30 39 1 5 35
M  V30 40 1 8 36
M  V30 41 1 8 37
M  V30 42 1 11 38
M  V30 43 1 14 39
M  V30 44 1 15 40
M  V30 45 1 16 41
M  V30 46 1 17 42
M  V30 47 1 21 43 CFG=3
M  V30 48 1 22 44
M  V30 49 1 22 45
M  V30 50 1 23 46
M  V30 51 1 23 47
M  V30 52 1 24 48
M  V30 53 1 25 49
M  V30 54 1 25 50
M  V30 55 1 26 51 CFG=1
M  V30 56 1 27 52
M  V30 57 1 27 53
M  V30 58 1 27 54
M  V30 59 1 28 55
M  V30 END BOND
M  V30 END CTAB
M  END
>  <Dataset>  (759) 
ChEMBL_Kinases

>  <Ligand_Instance>  (759) 
nan

>  <PDB_ID>  (759) 
nan

>  <Standardized_SMILES>  (759) 
C[C@@H]1C(=O)NN=C2COc3cc(-c4ccccc4F)c([C@@H]4CCNC[C@@H]4C)cc3N21

>  <Name>  (759) 
nan

>  <Pocket>  (759) 
nan

>  <ATP_Site>  (759) 
nan

>  <Peripheral>  (759) 
nan

>  <Num_H_Atoms_ProtBoundConf>  (759) 
nan

>  <Num_Resolved_Atoms>  (759) 
nan

>  <Num_Not_Resolved_Atoms>  (759) 
nan

$$$$
CHEMBL3355134
     RDKit          3D

  0  0  0  0  0  0  0  0  0  0999 V3000
M  V30 BEGIN CTAB
M  V30 COUNTS 58 62 0 0 0
M  V30 BEGIN ATOM
M  V30 1 C 1.711850 -3.471533 1.759948 0
M  V30 2 C 2.713043 -2.674870 0.937099 0 CFG=2
M  V30 3 C 4.025581 -3.360612 1.052360 0
M  V30 4 O 3.994308 -4.490182 0.469278 0
M  V30 5 N 5.179224 -2.857578 1.713680 0
M  V30 6 N 5.120013 -1.571485 2.201551 0
M  V30 7 C 4.048844 -0.869269 2.052536 0
M  V30 8 C 4.143715 0.494904 2.633129 0
M  V30 9 O 3.072256 1.334143 2.263178 0
M  V30 10 C 1.942861 0.881784 1.632985 0
M  V30 11 C 0.908403 1.770990 1.435391 0
M  V30 12 C -0.213310 1.310344 0.806013 0
M  V30 13 C -1.300013 2.296195 0.613702 0
M  V30 14 C -1.255410 3.015872 -0.563372 0
M  V30 15 F -0.281280 2.824045 -1.469817 0
M  V30 16 C -2.230733 3.964572 -0.835391 0
M  V30 17 C -3.194576 4.102854 0.141738 0
M  V30 18 C -3.281902 3.409906 1.330011 0
M  V30 19 C -2.296769 2.480474 1.559838 0
M  V30 20 F -2.282225 1.735927 2.702465 0
M  V30 21 C -0.436036 0.007817 0.328217 0
M  V30 22 C -1.710694 -0.356037 -0.321932 0 CFG=2
M  V30 23 C -2.653841 -1.069043 0.605625 0
M  V30 24 C -2.600663 -2.560973 0.504974 0
M  V30 25 N -1.741861 -3.035102 -0.555355 0
M  V30 26 C -1.992451 -4.467575 -0.708459 0
M  V30 27 C -2.105001 -2.368547 -1.779519 0
M  V30 28 C -1.525875 -0.949655 -1.665661 0 CFG=2
M  V30 29 C -0.101685 -1.032896 -2.157366 0
M  V30 30 C 0.650249 -0.802416 0.571998 0
M  V30 31 C 1.805939 -0.417167 1.194282 0
M  V30 32 N 2.870650 -1.324768 1.399896 0
M  V30 33 H 2.201983 -4.216429 2.427513 0
M  V30 34 H 1.143329 -2.789580 2.429573 0
M  V30 35 H 1.038632 -4.042526 1.092683 0
M  V30 36 H 2.417033 -2.662652 -0.135859 0
M  V30 37 H 5.996420 -3.504596 1.783069 0
M  V30 38 H 5.120038 0.973214 2.396038 0
M  V30 39 H 4.115845 0.418059 3.758482 0
M  V30 40 H 0.983341 2.791047 1.765660 0
M  V30 41 H -2.271406 4.571856 -1.731745 0
M  V30 42 H -3.974122 4.851745 -0.060995 0
M  V30 43 H -4.077172 3.591927 2.030395 0
M  V30 44 H -2.242511 0.638883 -0.517135 0
M  V30 45 H -2.384333 -0.778681 1.642960 0
M  V30 46 H -3.706952 -0.753060 0.456227 0
M  V30 47 H -3.605581 -2.998585 0.328294 0
M  V30 48 H -2.228429 -3.024492 1.449879 0
M  V30 49 H -2.972401 -4.664771 -1.189802 0
M  V30 50 H -1.197035 -4.951944 -1.314744 0
M  V30 51 H -2.032330 -4.955469 0.297258 0
M  V30 52 H -1.630558 -2.841280 -2.647628 0
M  V30 53 H -3.206237 -2.278466 -1.879781 0
M  V30 54 H -2.085653 -0.383485 -2.467769 0
M  V30 55 H 0.556509 -0.229364 -1.794289 0
M  V30 56 H -0.124436 -0.876938 -3.281130 0
M  V30 57 H 0.324216 -2.058523 -2.066451 0
M  V30 58 H 0.603807 -1.813863 0.263542 0
M  V30 END ATOM
M  V30 BEGIN BOND
M  V30 1 1 1 2
M  V30 2 1 2 3
M  V30 3 2 3 4
M  V30 4 1 3 5
M  V30 5 1 5 6
M  V30 6 2 6 7
M  V30 7 1 7 8
M  V30 8 1 8 9
M  V30 9 1 9 10
M  V30 10 2 10 11
M  V30 11 1 11 12
M  V30 12 1 12 13
M  V30 13 2 13 14
M  V30 14 1 14 15
M  V30 15 1 14 16
M  V30 16 2 16 17
M  V30 17 1 17 18
M  V30 18 2 18 19
M  V30 19 1 19 20
M  V30 20 2 12 21
M  V30 21 1 21 22
M  V30 22 1 22 23
M  V30 23 1 23 24
M  V30 24 1 24 25
M  V30 25 1 25 26
M  V30 26 1 25 27
M  V30 27 1 27 28
M  V30 28 1 28 29
M  V30 29 1 21 30
M  V30 30 2 30 31
M  V30 31 1 31 32
M  V30 32 1 32 2
M  V30 33 1 32 7
M  V30 34 1 31 10
M  V30 35 1 19 13
M  V30 36 1 28 22
M  V30 37 1 1 33
M  V30 38 1 1 34
M  V30 39 1 1 35
M  V30 40 1 2 36 CFG=3
M  V30 41 1 5 37
M  V30 42 1 8 38
M  V30 43 1 8 39
M  V30 44 1 11 40
M  V30 45 1 16 41
M  V30 46 1 17 42
M  V30 47 1 18 43
M  V30 48 1 22 44 CFG=3
M  V30 49 1 23 45
M  V30 50 1 23 46
M  V30 51 1 24 47
M  V30 52 1 24 48
M  V30 53 1 26 49
M  V30 54 1 26 50
M  V30 55 1 26 51
M  V30 56 1 27 52
M  V30 57 1 27 53
M  V30 58 1 28 54 CFG=3
M  V30 59 1 29 55
M  V30 60 1 29 56
M  V30 61 1 29 57
M  V30 62 1 30 58
M  V30 END BOND
M  V30 END CTAB
M  END
>  <Dataset>  (760) 
ChEMBL_Kinases

>  <Ligand_Instance>  (760) 
nan

>  <PDB_ID>  (760) 
nan

>  <Standardized_SMILES>  (760) 
C[C@@H]1C(=O)NN=C2COc3cc(-c4c(F)cccc4F)c([C@@H]4CCN(C)C[C@@H]4C)cc3N21

>  <Name>  (760) 
nan

>  <Pocket>  (760) 
nan

>  <ATP_Site>  (760) 
nan

>  <Peripheral>  (760) 
nan

>  <Num_H_Atoms_ProtBoundConf>  (760) 
nan

>  <Num_Resolved_Atoms>  (760) 
nan

>  <Num_Not_Resolved_Atoms>  (760) 
nan

$$$$
CHEMBL3355125
     RDKit          3D

  0  0  0  0  0  0  0  0  0  0999 V3000
M  V30 BEGIN CTAB
M  V30 COUNTS 61 65 0 0 0
M  V30 BEGIN ATOM
M  V30 1 C 2.450264 -2.175881 3.725504 0
M  V30 2 C 3.279765 -2.104770 2.470781 0 CFG=2
M  V30 3 C 4.641408 -2.583039 2.826728 0
M  V30 4 O 4.714973 -3.821249 3.049259 0
M  V30 5 N 5.787679 -1.747249 2.918706 0
M  V30 6 N 5.678569 -0.432934 2.514329 0
M  V30 7 C 4.555001 0.011052 2.065632 0
M  V30 8 C 4.571037 1.437693 1.665317 0
M  V30 9 O 3.454079 1.803595 0.909139 0
M  V30 10 C 2.289429 1.102703 0.766879 0
M  V30 11 C 1.161206 1.594431 0.142044 0
M  V30 12 C 0.026660 0.815645 0.042979 0
M  V30 13 C -1.055558 1.545584 -0.596638 0
M  V30 14 C -1.698040 2.269738 0.434230 0
M  V30 15 C -2.791320 3.105984 0.175775 0
M  V30 16 C -3.264996 3.236075 -1.116473 0
M  V30 17 C -2.632371 2.526822 -2.114418 0
M  V30 18 C -1.558666 1.703723 -1.871809 0
M  V30 19 F -0.840421 0.970832 -2.736192 0
M  V30 20 C -0.110401 -0.453109 0.517342 0
M  V30 21 C -1.240583 -1.327931 0.404877 0
M  V30 22 C -2.614060 -0.844873 0.729148 0
M  V30 23 C -3.514013 -2.095311 0.550794 0
M  V30 24 N -3.715576 -2.247520 -0.847669 0
M  V30 25 C -4.443940 -3.425400 -1.186682 0
M  V30 26 C -2.540564 -1.992324 -1.627162 0
M  V30 27 C -1.259901 -2.161843 -0.834188 0
M  V30 28 C -0.111137 -1.926665 -1.781732 0
M  V30 29 C -1.210137 -3.667359 -0.504753 0
M  V30 30 C 1.077020 -0.882458 1.139615 0
M  V30 31 C 2.250059 -0.173896 1.283467 0
M  V30 32 N 3.365484 -0.757950 1.942279 0
M  V30 33 H 1.653219 -2.957362 3.684051 0
M  V30 34 H 2.009650 -1.180310 3.918392 0
M  V30 35 H 3.043710 -2.420020 4.631240 0
M  V30 36 H 2.927709 -2.781375 1.664570 0
M  V30 37 H 6.698062 -2.126892 3.287915 0
M  V30 38 H 4.632013 2.031654 2.611476 0
M  V30 39 H 5.510910 1.638679 1.120687 0
M  V30 40 H 1.284928 2.601537 -0.230600 0
M  V30 41 H -1.489232 2.313116 1.515940 0
M  V30 42 H -3.336792 3.688866 0.888798 0
M  V30 43 H -4.100087 3.853982 -1.418342 0
M  V30 44 H -2.900214 2.537907 -3.163039 0
M  V30 45 H -1.066679 -2.108693 1.250428 0
M  V30 46 H -2.780801 -0.588469 1.791030 0
M  V30 47 H -3.044854 -0.142380 -0.001715 0
M  V30 48 H -3.144210 -2.953959 1.103695 0
M  V30 49 H -4.507043 -1.807347 1.005036 0
M  V30 50 H -4.531649 -4.143631 -0.339160 0
M  V30 51 H -4.100319 -3.952723 -2.098142 0
M  V30 52 H -5.498372 -3.096496 -1.417319 0
M  V30 53 H -2.560593 -1.017232 -2.148151 0
M  V30 54 H -2.506452 -2.763348 -2.432827 0
M  V30 55 H -0.504028 -1.703622 -2.792696 0
M  V30 56 H 0.492302 -1.028071 -1.510740 0
M  V30 57 H 0.534388 -2.818882 -1.935237 0
M  V30 58 H -0.430837 -4.194802 -1.054767 0
M  V30 59 H -2.155770 -4.174188 -0.706735 0
M  V30 60 H -0.947592 -3.766967 0.586851 0
M  V30 61 H 1.089869 -1.901700 1.567684 0
M  V30 END ATOM
M  V30 BEGIN BOND
M  V30 1 1 1 2
M  V30 2 1 2 3
M  V30 3 2 3 4
M  V30 4 1 3 5
M  V30 5 1 5 6
M  V30 6 2 6 7
M  V30 7 1 7 8
M  V30 8 1 8 9
M  V30 9 1 9 10
M  V30 10 2 10 11
M  V30 11 1 11 12
M  V30 12 1 12 13
M  V30 13 2 13 14
M  V30 14 1 14 15
M  V30 15 2 15 16
M  V30 16 1 16 17
M  V30 17 2 17 18
M  V30 18 1 18 19
M  V30 19 2 12 20
M  V30 20 1 20 21
M  V30 21 1 21 22
M  V30 22 1 22 23
M  V30 23 1 23 24
M  V30 24 1 24 25
M  V30 25 1 24 26
M  V30 26 1 26 27
M  V30 27 1 27 28
M  V30 28 1 27 29
M  V30 29 1 20 30
M  V30 30 2 30 31
M  V30 31 1 31 32
M  V30 32 1 32 2
M  V30 33 1 32 7
M  V30 34 1 31 10
M  V30 35 1 18 13
M  V30 36 1 27 21
M  V30 37 1 1 33
M  V30 38 1 1 34
M  V30 39 1 1 35
M  V30 40 1 2 36 CFG=3
M  V30 41 1 5 37
M  V30 42 1 8 38
M  V30 43 1 8 39
M  V30 44 1 11 40
M  V30 45 1 14 41
M  V30 46 1 15 42
M  V30 47 1 16 43
M  V30 48 1 17 44
M  V30 49 1 21 45
M  V30 50 1 22 46
M  V30 51 1 22 47
M  V30 52 1 23 48
M  V30 53 1 23 49
M  V30 54 1 25 50
M  V30 55 1 25 51
M  V30 56 1 25 52
M  V30 57 1 26 53
M  V30 58 1 26 54
M  V30 59 1 28 55
M  V30 60 1 28 56
M  V30 61 1 28 57
M  V30 62 1 29 58
M  V30 63 1 29 59
M  V30 64 1 29 60
M  V30 65 1 30 61
M  V30 END BOND
M  V30 END CTAB
M  END
>  <Dataset>  (761) 
ChEMBL_Kinases

>  <Ligand_Instance>  (761) 
nan

>  <PDB_ID>  (761) 
nan

>  <Standardized_SMILES>  (761) 
C[C@@H]1C(=O)NN=C2COc3cc(-c4ccccc4F)c(C4CCN(C)CC4(C)C)cc3N21

>  <Name>  (761) 
nan

>  <Pocket>  (761) 
nan

>  <ATP_Site>  (761) 
nan

>  <Peripheral>  (761) 
nan

>  <Num_H_Atoms_ProtBoundConf>  (761) 
nan

>  <Num_Resolved_Atoms>  (761) 
nan

>  <Num_Not_Resolved_Atoms>  (761) 
nan

$$$$
CHEMBL3355126
     RDKit          3D

  0  0  0  0  0  0  0  0  0  0999 V3000
M  V30 BEGIN CTAB
M  V30 COUNTS 61 65 0 0 0
M  V30 BEGIN ATOM
M  V30 1 C 1.335774 -1.140002 5.915664 0
M  V30 2 C 1.943938 -2.184992 5.010378 0
M  V30 3 N 1.584346 -2.052193 3.629683 0
M  V30 4 C 2.160692 -0.880749 3.055449 0
M  V30 5 C 1.832466 -0.706969 1.583992 0
M  V30 6 C 0.360656 -0.831107 1.424409 0 CFG=1
M  V30 7 C -0.222269 -0.453408 0.149486 0
M  V30 8 C -0.583840 -1.241627 -0.937937 0
M  V30 9 C -1.155065 -0.790163 -2.108419 0
M  V30 10 C -1.384702 0.564941 -2.202282 0
M  V30 11 C -1.055374 1.415042 -1.168559 0
M  V30 12 C -0.484935 0.915262 -0.014910 0
M  V30 13 C -0.211244 2.012487 0.941650 0
M  V30 14 C 0.932344 2.801604 0.962085 0
M  V30 15 C 1.052318 3.794093 1.890465 0
M  V30 16 C 0.082969 4.062003 2.826574 0
M  V30 17 C -1.046941 3.250936 2.774675 0
M  V30 18 C -1.224421 2.228058 1.855384 0
M  V30 19 F -2.384500 1.531564 1.939959 0
M  V30 20 O -1.964859 0.978063 -3.412510 0
M  V30 21 C -1.784433 0.209607 -4.597433 0
M  V30 22 C -2.091187 -1.241838 -4.302662 0
M  V30 23 N -2.868655 -1.940266 -5.102157 0
M  V30 24 N -3.079100 -3.280842 -4.715076 0
M  V30 25 C -2.495576 -3.853023 -3.539843 0
M  V30 26 O -3.187375 -4.852362 -3.156769 0
M  V30 27 C -1.241698 -3.172660 -3.038048 0 CFG=1
M  V30 28 C -0.219597 -3.510070 -4.149977 0
M  V30 29 N -1.473023 -1.779659 -3.108376 0
M  V30 30 C 0.002307 -2.242823 1.876275 0 CFG=1
M  V30 31 C 1.038299 -3.248308 1.430199 0
M  V30 32 C 0.162876 -2.191204 3.407341 0
M  V30 33 H 0.713910 -1.608327 6.725898 0
M  V30 34 H 0.692570 -0.449605 5.353138 0
M  V30 35 H 2.104296 -0.553089 6.437123 0
M  V30 36 H 3.022837 -2.217738 5.148863 0
M  V30 37 H 1.547620 -3.186109 5.350501 0
M  V30 38 H 1.772125 0.056179 3.548214 0
M  V30 39 H 3.245350 -0.888302 3.255503 0
M  V30 40 H 2.265789 0.277912 1.284948 0
M  V30 41 H 2.419487 -1.446483 1.004883 0
M  V30 42 H -0.107102 -0.159984 2.208843 0
M  V30 43 H -0.389108 -2.270699 -0.806718 0
M  V30 44 H -1.290647 2.446885 -1.378709 0
M  V30 45 H 1.645395 2.528420 0.194381 0
M  V30 46 H 1.989430 4.333059 1.798696 0
M  V30 47 H 0.228268 4.849522 3.530557 0
M  V30 48 H -1.802444 3.488262 3.532651 0
M  V30 49 H -2.483911 0.617376 -5.352367 0
M  V30 50 H -0.770269 0.274985 -5.004625 0
M  V30 51 H -3.706801 -3.795784 -5.388146 0
M  V30 52 H -0.835164 -3.634339 -2.171163 0
M  V30 53 H -0.132454 -4.618184 -4.209296 0
M  V30 54 H 0.748310 -3.047278 -3.914028 0
M  V30 55 H -0.610969 -3.165016 -5.127920 0
M  V30 56 H -1.020748 -2.536678 1.618538 0
M  V30 57 H 1.432519 -3.089038 0.425243 0
M  V30 58 H 0.606459 -4.263730 1.559996 0
M  V30 59 H 1.925501 -3.227531 2.110307 0
M  V30 60 H -0.142158 -3.188330 3.778625 0
M  V30 61 H -0.426096 -1.356367 3.802783 0
M  V30 END ATOM
M  V30 BEGIN BOND
M  V30 1 1 1 2
M  V30 2 1 2 3
M  V30 3 1 3 4
M  V30 4 1 4 5
M  V30 5 1 5 6
M  V30 6 1 6 7
M  V30 7 2 7 8
M  V30 8 1 8 9
M  V30 9 2 9 10
M  V30 10 1 10 11
M  V30 11 2 11 12
M  V30 12 1 12 13
M  V30 13 2 13 14
M  V30 14 1 14 15
M  V30 15 2 15 16
M  V30 16 1 16 17
M  V30 17 2 17 18
M  V30 18 1 18 19
M  V30 19 1 10 20
M  V30 20 1 20 21
M  V30 21 1 21 22
M  V30 22 2 22 23
M  V30 23 1 23 24
M  V30 24 1 24 25
M  V30 25 2 25 26
M  V30 26 1 25 27
M  V30 27 1 27 28
M  V30 28 1 27 29
M  V30 29 1 6 30
M  V30 30 1 30 31
M  V30 31 1 30 32
M  V30 32 1 32 3
M  V30 33 1 12 7
M  V30 34 1 18 13
M  V30 35 1 29 22
M  V30 36 1 29 9
M  V30 37 1 1 33
M  V30 38 1 1 34
M  V30 39 1 1 35
M  V30 40 1 2 36
M  V30 41 1 2 37
M  V30 42 1 4 38
M  V30 43 1 4 39
M  V30 44 1 5 40
M  V30 45 1 5 41
M  V30 46 1 6 42 CFG=1
M  V30 47 1 8 43
M  V30 48 1 11 44
M  V30 49 1 14 45
M  V30 50 1 15 46
M  V30 51 1 16 47
M  V30 52 1 17 48
M  V30 53 1 21 49
M  V30 54 1 21 50
M  V30 55 1 24 51
M  V30 56 1 27 52 CFG=1
M  V30 57 1 28 53
M  V30 58 1 28 54
M  V30 59 1 28 55
M  V30 60 1 30 56 CFG=1
M  V30 61 1 31 57
M  V30 62 1 31 58
M  V30 63 1 31 59
M  V30 64 1 32 60
M  V30 65 1 32 61
M  V30 END BOND
M  V30 END CTAB
M  END
>  <Dataset>  (762) 
ChEMBL_Kinases

>  <Ligand_Instance>  (762) 
nan

>  <PDB_ID>  (762) 
nan

>  <Standardized_SMILES>  (762) 
CCN1CC[C@@H](c2cc3c(cc2-c2ccccc2F)OCC2=NNC(=O)[C@@H](C)N23)[C@@H](C)C1

>  <Name>  (762) 
nan

>  <Pocket>  (762) 
nan

>  <ATP_Site>  (762) 
nan

>  <Peripheral>  (762) 
nan

>  <Num_H_Atoms_ProtBoundConf>  (762) 
nan

>  <Num_Resolved_Atoms>  (762) 
nan

>  <Num_Not_Resolved_Atoms>  (762) 
nan

$$$$
CHEMBL3355128
     RDKit          3D

  0  0  0  0  0  0  0  0  0  0999 V3000
M  V30 BEGIN CTAB
M  V30 COUNTS 58 62 0 0 0
M  V30 BEGIN ATOM
M  V30 1 C 1.064604 -3.411552 -2.656489 0
M  V30 2 C 2.403211 -2.921322 -2.404555 0 CFG=2
M  V30 3 C 3.422611 -4.067675 -2.308732 0
M  V30 4 O 2.913373 -5.244625 -2.322221 0
M  V30 5 N 4.832579 -3.963819 -2.209625 0
M  V30 6 N 5.240108 -2.745641 -1.657790 0
M  V30 7 C 4.274198 -1.914579 -1.329231 0
M  V30 8 C 4.887506 -0.657494 -0.750476 0
M  V30 9 O 4.168603 -0.276958 0.418507 0
M  V30 10 C 2.771217 -0.279226 0.418372 0
M  V30 11 C 1.978778 0.489441 1.238831 0
M  V30 12 C 0.576850 0.436995 1.182223 0
M  V30 13 C 0.026525 1.336104 2.174042 0
M  V30 14 C 0.331431 2.685969 1.894458 0
M  V30 15 C -0.032406 3.770654 2.673839 0
M  V30 16 C -0.752020 3.527878 3.820656 0
M  V30 17 C -1.072218 2.244141 4.137301 0
M  V30 18 F -1.775621 1.878666 5.237371 0
M  V30 19 C -0.692044 1.198683 3.337910 0
M  V30 20 C -0.028248 -0.401305 0.285912 0
M  V30 21 C -1.466067 -0.468560 0.210852 0 CFG=2
M  V30 22 C -2.267334 0.773712 0.146499 0
M  V30 23 C -3.727109 0.348730 -0.080774 0
M  V30 24 N -4.238333 -0.491315 0.957163 0
M  V30 25 C -5.220186 -1.443458 0.495588 0
M  V30 26 C -3.254630 -1.073094 1.829719 0
M  V30 27 C -2.030483 -1.549071 1.076298 0 CFG=2
M  V30 28 C -1.079255 -2.182597 2.031447 0
M  V30 29 C 0.841838 -1.150126 -0.512438 0
M  V30 30 C 2.215834 -1.137439 -0.496802 0
M  V30 31 N 2.814562 -2.016876 -1.435914 0
M  V30 32 H 0.545712 -3.945066 -1.821841 0
M  V30 33 H 0.407362 -2.743590 -3.252374 0
M  V30 34 H 1.128265 -4.302312 -3.404227 0
M  V30 35 H 2.749981 -2.486615 -3.414657 0
M  V30 36 H 5.383949 -4.783643 -2.549750 0
M  V30 37 H 4.703535 0.133768 -1.504409 0
M  V30 38 H 5.929816 -0.758398 -0.487078 0
M  V30 39 H 2.586089 1.112915 1.905702 0
M  V30 40 H 0.902036 3.003949 1.005989 0
M  V30 41 H 0.214812 4.787968 2.434204 0
M  V30 42 H -1.102201 4.262972 4.519245 0
M  V30 43 H -0.911323 0.169443 3.555909 0
M  V30 44 H -1.639622 -0.900347 -0.868678 0
M  V30 45 H -2.298228 1.421793 1.008531 0
M  V30 46 H -2.006460 1.311276 -0.807967 0
M  V30 47 H -4.364941 1.269376 -0.081317 0
M  V30 48 H -3.863560 -0.154647 -1.053423 0
M  V30 49 H -5.006369 -2.432939 0.940208 0
M  V30 50 H -5.247772 -1.533365 -0.609656 0
M  V30 51 H -6.212517 -1.118174 0.870119 0
M  V30 52 H -3.704714 -1.948386 2.324209 0
M  V30 53 H -3.006934 -0.337762 2.591001 0
M  V30 54 H -2.400952 -2.416453 0.419874 0
M  V30 55 H -0.068467 -1.768709 2.035963 0
M  V30 56 H -0.936284 -3.286870 1.845451 0
M  V30 57 H -1.463438 -2.112641 3.073026 0
M  V30 58 H 0.298960 -1.775635 -1.188731 0
M  V30 END ATOM
M  V30 BEGIN BOND
M  V30 1 1 1 2
M  V30 2 1 2 3
M  V30 3 2 3 4
M  V30 4 1 3 5
M  V30 5 1 5 6
M  V30 6 2 6 7
M  V30 7 1 7 8
M  V30 8 1 8 9
M  V30 9 1 9 10
M  V30 10 2 10 11
M  V30 11 1 11 12
M  V30 12 1 12 13
M  V30 13 2 13 14
M  V30 14 1 14 15
M  V30 15 2 15 16
M  V30 16 1 16 17
M  V30 17 1 17 18
M  V30 18 2 17 19
M  V30 19 2 12 20
M  V30 20 1 20 21
M  V30 21 1 21 22
M  V30 22 1 22 23
M  V30 23 1 23 24
M  V30 24 1 24 25
M  V30 25 1 24 26
M  V30 26 1 26 27
M  V30 27 1 27 28
M  V30 28 1 20 29
M  V30 29 2 29 30
M  V30 30 1 30 31
M  V30 31 1 31 2
M  V30 32 1 31 7
M  V30 33 1 30 10
M  V30 34 1 19 13
M  V30 35 1 27 21
M  V30 36 1 1 32
M  V30 37 1 1 33
M  V30 38 1 1 34
M  V30 39 1 2 35 CFG=3
M  V30 40 1 5 36
M  V30 41 1 8 37
M  V30 42 1 8 38
M  V30 43 1 11 39
M  V30 44 1 14 40
M  V30 45 1 15 41
M  V30 46 1 16 42
M  V30 47 1 19 43
M  V30 48 1 21 44 CFG=3
M  V30 49 1 22 45
M  V30 50 1 22 46
M  V30 51 1 23 47
M  V30 52 1 23 48
M  V30 53 1 25 49
M  V30 54 1 25 50
M  V30 55 1 25 51
M  V30 56 1 26 52
M  V30 57 1 26 53
M  V30 58 1 27 54 CFG=3
M  V30 59 1 28 55
M  V30 60 1 28 56
M  V30 61 1 28 57
M  V30 62 1 29 58
M  V30 END BOND
M  V30 END CTAB
M  END
>  <Dataset>  (763) 
ChEMBL_Kinases

>  <Ligand_Instance>  (763) 
nan

>  <PDB_ID>  (763) 
nan

>  <Standardized_SMILES>  (763) 
C[C@@H]1C(=O)NN=C2COc3cc(-c4cccc(F)c4)c([C@@H]4CCN(C)C[C@@H]4C)cc3N21

>  <Name>  (763) 
nan

>  <Pocket>  (763) 
nan

>  <ATP_Site>  (763) 
nan

>  <Peripheral>  (763) 
nan

>  <Num_H_Atoms_ProtBoundConf>  (763) 
nan

>  <Num_Resolved_Atoms>  (763) 
nan

>  <Num_Not_Resolved_Atoms>  (763) 
nan

$$$$
CHEMBL3355129
     RDKit          3D

  0  0  0  0  0  0  0  0  0  0999 V3000
M  V30 BEGIN CTAB
M  V30 COUNTS 58 62 0 0 0
M  V30 BEGIN ATOM
M  V30 1 C 2.820381 -0.740236 -3.202700 0
M  V30 2 C 3.275066 0.503328 -2.620589 0 CFG=2
M  V30 3 C 4.811751 0.585459 -2.577853 0
M  V30 4 O 5.410942 -0.477197 -2.906910 0
M  V30 5 N 5.602851 1.706605 -2.215412 0
M  V30 6 N 4.926865 2.593409 -1.370822 0
M  V30 7 C 3.694787 2.253034 -1.056493 0
M  V30 8 C 3.104445 3.304659 -0.143617 0
M  V30 9 O 2.443018 2.664395 0.945764 0
M  V30 10 C 1.584655 1.585358 0.702378 0
M  V30 11 C 0.541909 1.205229 1.508914 0
M  V30 12 C -0.283036 0.107495 1.199637 0
M  V30 13 C -1.297541 0.026554 2.227468 0
M  V30 14 C -2.677218 0.079142 2.197040 0
M  V30 15 C -3.515274 -0.020735 3.271128 0
M  V30 16 C -2.973643 -0.188571 4.511537 0
M  V30 17 F -3.815136 -0.285594 5.561664 0
M  V30 18 C -1.610485 -0.257966 4.695521 0
M  V30 19 C -0.843572 -0.147892 3.553585 0
M  V30 20 C -0.065218 -0.633847 0.058286 0
M  V30 21 C -0.894191 -1.800965 -0.260874 0 CFG=2
M  V30 22 C -2.269511 -1.574085 -0.801725 0
M  V30 23 C -3.387000 -2.294817 -0.114557 0
M  V30 24 N -3.020582 -2.953457 1.100610 0
M  V30 25 C -4.197425 -3.626291 1.617263 0
M  V30 26 C -1.937864 -3.832560 0.845323 0
M  V30 27 C -0.681559 -3.035613 0.551226 0 CFG=2
M  V30 28 C 0.076154 -2.867965 1.831847 0
M  V30 29 C 1.026778 -0.161243 -0.698858 0
M  V30 30 C 1.866097 0.897332 -0.453822 0
M  V30 31 N 2.873677 1.096847 -1.433931 0
M  V30 32 H 1.855910 -0.711561 -3.751389 0
M  V30 33 H 3.518622 -1.014263 -4.094384 0
M  V30 34 H 2.978416 -1.664028 -2.591399 0
M  V30 35 H 3.103630 1.291831 -3.446425 0
M  V30 36 H 6.574666 1.742448 -2.609506 0
M  V30 37 H 3.807002 4.056577 0.176917 0
M  V30 38 H 2.318704 3.808913 -0.739701 0
M  V30 39 H 0.468870 1.859315 2.376944 0
M  V30 40 H -3.090872 0.233233 1.215794 0
M  V30 41 H -4.576748 0.039241 3.078922 0
M  V30 42 H -1.150839 -0.389710 5.662396 0
M  V30 43 H 0.228416 -0.205461 3.724273 0
M  V30 44 H -0.365162 -2.119487 -1.253958 0
M  V30 45 H -2.415924 -0.480199 -0.922053 0
M  V30 46 H -2.379121 -1.911233 -1.881446 0
M  V30 47 H -4.242880 -1.601896 0.140459 0
M  V30 48 H -3.886807 -3.078529 -0.723136 0
M  V30 49 H -4.298130 -4.651986 1.191267 0
M  V30 50 H -4.252710 -3.618065 2.713411 0
M  V30 51 H -5.133054 -3.103586 1.272282 0
M  V30 52 H -2.159574 -4.541547 0.001074 0
M  V30 53 H -1.715998 -4.480212 1.724066 0
M  V30 54 H -0.058872 -3.826406 -0.009311 0
M  V30 55 H 0.719537 -2.002158 1.914145 0
M  V30 56 H -0.609122 -2.875439 2.725005 0
M  V30 57 H 0.758032 -3.749362 2.053436 0
M  V30 58 H 1.158497 -0.754092 -1.581442 0
M  V30 END ATOM
M  V30 BEGIN BOND
M  V30 1 1 1 2
M  V30 2 1 2 3
M  V30 3 2 3 4
M  V30 4 1 3 5
M  V30 5 1 5 6
M  V30 6 2 6 7
M  V30 7 1 7 8
M  V30 8 1 8 9
M  V30 9 1 9 10
M  V30 10 2 10 11
M  V30 11 1 11 12
M  V30 12 1 12 13
M  V30 13 2 13 14
M  V30 14 1 14 15
M  V30 15 2 15 16
M  V30 16 1 16 17
M  V30 17 1 16 18
M  V30 18 2 18 19
M  V30 19 2 12 20
M  V30 20 1 20 21
M  V30 21 1 21 22
M  V30 22 1 22 23
M  V30 23 1 23 24
M  V30 24 1 24 25
M  V30 25 1 24 26
M  V30 26 1 26 27
M  V30 27 1 27 28
M  V30 28 1 20 29
M  V30 29 2 29 30
M  V30 30 1 30 31
M  V30 31 1 31 2
M  V30 32 1 31 7
M  V30 33 1 30 10
M  V30 34 1 19 13
M  V30 35 1 27 21
M  V30 36 1 1 32
M  V30 37 1 1 33
M  V30 38 1 1 34
M  V30 39 1 2 35 CFG=3
M  V30 40 1 5 36
M  V30 41 1 8 37
M  V30 42 1 8 38
M  V30 43 1 11 39
M  V30 44 1 14 40
M  V30 45 1 15 41
M  V30 46 1 18 42
M  V30 47 1 19 43
M  V30 48 1 21 44 CFG=3
M  V30 49 1 22 45
M  V30 50 1 22 46
M  V30 51 1 23 47
M  V30 52 1 23 48
M  V30 53 1 25 49
M  V30 54 1 25 50
M  V30 55 1 25 51
M  V30 56 1 26 52
M  V30 57 1 26 53
M  V30 58 1 27 54 CFG=3
M  V30 59 1 28 55
M  V30 60 1 28 56
M  V30 61 1 28 57
M  V30 62 1 29 58
M  V30 END BOND
M  V30 END CTAB
M  END
>  <Dataset>  (764) 
ChEMBL_Kinases

>  <Ligand_Instance>  (764) 
nan

>  <PDB_ID>  (764) 
nan

>  <Standardized_SMILES>  (764) 
C[C@@H]1C(=O)NN=C2COc3cc(-c4ccc(F)cc4)c([C@@H]4CCN(C)C[C@@H]4C)cc3N21

>  <Name>  (764) 
nan

>  <Pocket>  (764) 
nan

>  <ATP_Site>  (764) 
nan

>  <Peripheral>  (764) 
nan

>  <Num_H_Atoms_ProtBoundConf>  (764) 
nan

>  <Num_Resolved_Atoms>  (764) 
nan

>  <Num_Not_Resolved_Atoms>  (764) 
nan

$$$$
CHEMBL3355130
     RDKit          3D

  0  0  0  0  0  0  0  0  0  0999 V3000
M  V30 BEGIN CTAB
M  V30 COUNTS 61 65 0 0 0
M  V30 BEGIN ATOM
M  V30 1 C -1.342541 0.924035 3.885412 0
M  V30 2 C 0.066032 1.339458 3.879024 0
M  V30 3 C 0.510964 2.385637 4.653724 0
M  V30 4 C 1.861170 2.734713 4.628329 0
M  V30 5 C 2.707943 2.015346 3.823340 0
M  V30 6 C 2.266064 0.962530 3.041959 0
M  V30 7 C 0.910860 0.614685 3.069159 0
M  V30 8 C 0.604146 -0.500800 2.178986 0
M  V30 9 C 0.600439 -1.751876 2.814546 0
M  V30 10 C 0.316971 -2.913751 2.082404 0
M  V30 11 C 0.046756 -2.786986 0.740109 0
M  V30 12 C 0.069660 -1.529948 0.191328 0
M  V30 13 C 0.331296 -0.352684 0.812416 0
M  V30 14 C 0.356905 0.983606 0.213059 0 CFG=2
M  V30 15 C -1.061739 1.498955 0.131888 0
M  V30 16 C -1.789205 0.793096 -0.971867 0
M  V30 17 N -1.081447 0.698731 -2.218282 0
M  V30 18 C -1.957694 0.913059 -3.329299 0
M  V30 19 C 0.030571 1.614747 -2.196269 0
M  V30 20 C 0.986651 1.138422 -1.112552 0 CFG=2
M  V30 21 C 1.833430 -0.009606 -1.584144 0
M  V30 22 N -0.254280 -3.964262 -0.040568 0
M  V30 23 C -0.240864 -5.202941 0.700002 0
M  V30 24 N -0.240382 -6.324933 0.106217 0
M  V30 25 N -0.253336 -6.380608 -1.278307 0
M  V30 26 C -0.267411 -5.168013 -2.021963 0
M  V30 27 O -0.054605 -5.241712 -3.279783 0
M  V30 28 C -0.519637 -3.833222 -1.384902 0 CFG=1
M  V30 29 C -1.647633 -3.253638 -2.049443 0
M  V30 30 C -0.232778 -5.246243 2.176264 0
M  V30 31 O 0.334442 -4.105832 2.785219 0
M  V30 32 H -1.658361 0.696606 4.931417 0
M  V30 33 H -1.583369 0.132027 3.179378 0
M  V30 34 H -1.930729 1.821920 3.542258 0
M  V30 35 H -0.204882 2.911679 5.265240 0
M  V30 36 H 2.221555 3.561101 5.238229 0
M  V30 37 H 3.736561 2.327288 3.842887 0
M  V30 38 H 3.025984 0.464682 2.443842 0
M  V30 39 H 0.816278 -1.841334 3.880007 0
M  V30 40 H -0.149186 -1.518853 -0.858223 0
M  V30 41 H 0.871310 1.670630 0.939202 0
M  V30 42 H -0.994627 2.589669 -0.091846 0
M  V30 43 H -1.616800 1.374810 1.085860 0
M  V30 44 H -2.750213 1.332275 -1.205125 0
M  V30 45 H -2.119176 -0.199792 -0.594979 0
M  V30 46 H -1.440100 0.967328 -4.300233 0
M  V30 47 H -2.443894 1.913499 -3.167057 0
M  V30 48 H -2.799707 0.197559 -3.360446 0
M  V30 49 H 0.542786 1.688716 -3.178610 0
M  V30 50 H -0.371078 2.629802 -2.013006 0
M  V30 51 H 1.718503 2.003160 -1.026232 0
M  V30 52 H 1.368355 -0.579641 -2.441916 0
M  V30 53 H 2.812840 0.329738 -2.042228 0
M  V30 54 H 2.159773 -0.670455 -0.757664 0
M  V30 55 H -0.253203 -7.287476 -1.803138 0
M  V30 56 H 0.370746 -3.242369 -1.789023 0
M  V30 57 H -2.309305 -2.572306 -1.433644 0
M  V30 58 H -2.370289 -4.079851 -2.251958 0
M  V30 59 H -1.478250 -2.831434 -3.061229 0
M  V30 60 H -1.320123 -5.315727 2.474158 0
M  V30 61 H 0.230036 -6.183831 2.543504 0
M  V30 END ATOM
M  V30 BEGIN BOND
M  V30 1 1 1 2
M  V30 2 2 2 3
M  V30 3 1 3 4
M  V30 4 2 4 5
M  V30 5 1 5 6
M  V30 6 2 6 7
M  V30 7 1 7 8
M  V30 8 2 8 9
M  V30 9 1 9 10
M  V30 10 2 10 11
M  V30 11 1 11 12
M  V30 12 2 12 13
M  V30 13 1 13 14
M  V30 14 1 14 15
M  V30 15 1 15 16
M  V30 16 1 16 17
M  V30 17 1 17 18
M  V30 18 1 17 19
M  V30 19 1 19 20
M  V30 20 1 20 21
M  V30 21 1 11 22
M  V30 22 1 22 23
M  V30 23 2 23 24
M  V30 24 1 24 25
M  V30 25 1 25 26
M  V30 26 2 26 27
M  V30 27 1 26 28
M  V30 28 1 28 29
M  V30 29 1 23 30
M  V30 30 1 30 31
M  V30 31 1 7 2
M  V30 32 1 13 8
M  V30 33 1 20 14
M  V30 34 1 28 22
M  V30 35 1 31 10
M  V30 36 1 1 32
M  V30 37 1 1 33
M  V30 38 1 1 34
M  V30 39 1 3 35
M  V30 40 1 4 36
M  V30 41 1 5 37
M  V30 42 1 6 38
M  V30 43 1 9 39
M  V30 44 1 12 40
M  V30 45 1 14 41 CFG=1
M  V30 46 1 15 42
M  V30 47 1 15 43
M  V30 48 1 16 44
M  V30 49 1 16 45
M  V30 50 1 18 46
M  V30 51 1 18 47
M  V30 52 1 18 48
M  V30 53 1 19 49
M  V30 54 1 19 50
M  V30 55 1 20 51 CFG=1
M  V30 56 1 21 52
M  V30 57 1 21 53
M  V30 58 1 21 54
M  V30 59 1 25 55
M  V30 60 1 28 56 CFG=3
M  V30 61 1 29 57
M  V30 62 1 29 58
M  V30 63 1 29 59
M  V30 64 1 30 60
M  V30 65 1 30 61
M  V30 END BOND
M  V30 END CTAB
M  END
>  <Dataset>  (765) 
ChEMBL_Kinases

>  <Ligand_Instance>  (765) 
nan

>  <PDB_ID>  (765) 
nan

>  <Standardized_SMILES>  (765) 
Cc1ccccc1-c1cc2c(cc1[C@@H]1CCN(C)C[C@@H]1C)N1C(=NNC(=O)[C@H]1C)CO2

>  <Name>  (765) 
nan

>  <Pocket>  (765) 
nan

>  <ATP_Site>  (765) 
nan

>  <Peripheral>  (765) 
nan

>  <Num_H_Atoms_ProtBoundConf>  (765) 
nan

>  <Num_Resolved_Atoms>  (765) 
nan

>  <Num_Not_Resolved_Atoms>  (765) 
nan

$$$$
CHEMBL3355131
     RDKit          3D

  0  0  0  0  0  0  0  0  0  0999 V3000
M  V30 BEGIN CTAB
M  V30 COUNTS 61 65 0 0 0
M  V30 BEGIN ATOM
M  V30 1 C 6.308552 -2.975115 -1.632890 0
M  V30 2 C 4.992634 -2.675618 -1.032765 0
M  V30 3 C 3.851447 -3.135061 -1.660547 0
M  V30 4 C 2.579936 -2.907876 -1.180043 0
M  V30 5 C 2.390477 -2.190743 -0.019098 0
M  V30 6 C 1.179723 -1.793328 0.678207 0
M  V30 7 C 1.114004 -2.268092 1.996372 0
M  V30 8 C 0.000748 -2.017634 2.808350 0
M  V30 9 C -1.026712 -1.283817 2.253524 0
M  V30 10 C -0.933082 -0.837387 0.974274 0
M  V30 11 C 0.149066 -1.057969 0.127937 0
M  V30 12 C 0.227339 -0.532288 -1.227840 0 CFG=2
M  V30 13 C 0.722729 0.914674 -1.166607 0
M  V30 14 C -0.351605 1.879635 -0.804149 0
M  V30 15 N -1.422897 1.775562 -1.718328 0
M  V30 16 C -1.438404 2.743397 -2.780789 0
M  V30 17 C -1.914359 0.500820 -2.056744 0
M  V30 18 C -0.976954 -0.647280 -2.070316 0 CFG=2
M  V30 19 C -1.791723 -1.900309 -1.779675 0
M  V30 20 N -2.141803 -1.044292 3.105198 0
M  V30 21 C -2.152730 -1.547672 4.436399 0
M  V30 22 N -3.185750 -1.654166 5.200794 0
M  V30 23 N -4.420991 -1.242723 4.696498 0
M  V30 24 C -4.482308 -0.732269 3.382032 0
M  V30 25 O -5.642564 -0.662762 2.860644 0
M  V30 26 C -3.270773 -0.284509 2.605124 0 CFG=1
M  V30 27 C -3.139885 1.192768 2.821385 0
M  V30 28 C -0.900654 -2.013101 5.088751 0
M  V30 29 O -0.023336 -2.501350 4.094163 0
M  V30 30 C 3.520841 -1.728776 0.614534 0
M  V30 31 C 4.800030 -1.952568 0.139487 0
M  V30 32 H 7.121489 -2.639107 -0.950340 0
M  V30 33 H 6.436513 -2.552941 -2.635911 0
M  V30 34 H 6.439200 -4.074379 -1.708118 0
M  V30 35 H 3.902760 -3.715404 -2.591839 0
M  V30 36 H 1.669417 -3.267359 -1.638312 0
M  V30 37 H 1.913313 -2.846696 2.447654 0
M  V30 38 H -1.755691 -0.280744 0.609226 0
M  V30 39 H 1.068826 -1.046992 -1.741276 0
M  V30 40 H 1.279442 1.180233 -2.064099 0
M  V30 41 H 1.456208 0.924701 -0.317357 0
M  V30 42 H 0.098647 2.905661 -0.940932 0
M  V30 43 H -0.626360 1.796038 0.266987 0
M  V30 44 H -2.369278 3.347667 -2.682427 0
M  V30 45 H -0.548444 3.404536 -2.739635 0
M  V30 46 H -1.533310 2.215296 -3.752018 0
M  V30 47 H -2.839094 0.327849 -1.428767 0
M  V30 48 H -2.381363 0.617741 -3.084293 0
M  V30 49 H -0.644000 -0.784690 -3.134852 0
M  V30 50 H -2.736250 -1.653890 -1.223237 0
M  V30 51 H -1.188021 -2.683384 -1.267509 0
M  V30 52 H -2.171302 -2.390345 -2.712608 0
M  V30 53 H -5.288654 -1.315851 5.295178 0
M  V30 54 H -3.531954 -0.547348 1.540850 0
M  V30 55 H -3.490663 1.431775 3.842270 0
M  V30 56 H -2.051884 1.451361 2.775678 0
M  V30 57 H -3.677160 1.716952 2.016045 0
M  V30 58 H -1.054167 -2.762253 5.879211 0
M  V30 59 H -0.422331 -1.075722 5.490175 0
M  V30 60 H 3.556806 -1.153103 1.530449 0
M  V30 61 H 5.718495 -1.610369 0.601357 0
M  V30 END ATOM
M  V30 BEGIN BOND
M  V30 1 1 1 2
M  V30 2 2 2 3
M  V30 3 1 3 4
M  V30 4 2 4 5
M  V30 5 1 5 6
M  V30 6 2 6 7
M  V30 7 1 7 8
M  V30 8 2 8 9
M  V30 9 1 9 10
M  V30 10 2 10 11
M  V30 11 1 11 12
M  V30 12 1 12 13
M  V30 13 1 13 14
M  V30 14 1 14 15
M  V30 15 1 15 16
M  V30 16 1 15 17
M  V30 17 1 17 18
M  V30 18 1 18 19
M  V30 19 1 9 20
M  V30 20 1 20 21
M  V30 21 2 21 22
M  V30 22 1 22 23
M  V30 23 1 23 24
M  V30 24 2 24 25
M  V30 25 1 24 26
M  V30 26 1 26 27
M  V30 27 1 21 28
M  V30 28 1 28 29
M  V30 29 1 5 30
M  V30 30 2 30 31
M  V30 31 1 31 2
M  V30 32 1 11 6
M  V30 33 1 18 12
M  V30 34 1 26 20
M  V30 35 1 29 8
M  V30 36 1 1 32
M  V30 37 1 1 33
M  V30 38 1 1 34
M  V30 39 1 3 35
M  V30 40 1 4 36
M  V30 41 1 7 37
M  V30 42 1 10 38
M  V30 43 1 12 39 CFG=3
M  V30 44 1 13 40
M  V30 45 1 13 41
M  V30 46 1 14 42
M  V30 47 1 14 43
M  V30 48 1 16 44
M  V30 49 1 16 45
M  V30 50 1 16 46
M  V30 51 1 17 47
M  V30 52 1 17 48
M  V30 53 1 18 49 CFG=3
M  V30 54 1 19 50
M  V30 55 1 19 51
M  V30 56 1 19 52
M  V30 57 1 23 53
M  V30 58 1 26 54 CFG=3
M  V30 59 1 27 55
M  V30 60 1 27 56
M  V30 61 1 27 57
M  V30 62 1 28 58
M  V30 63 1 28 59
M  V30 64 1 30 60
M  V30 65 1 31 61
M  V30 END BOND
M  V30 END CTAB
M  END
>  <Dataset>  (766) 
ChEMBL_Kinases

>  <Ligand_Instance>  (766) 
nan

>  <PDB_ID>  (766) 
nan

>  <Standardized_SMILES>  (766) 
Cc1ccc(-c2cc3c(cc2[C@@H]2CCN(C)C[C@@H]2C)N2C(=NNC(=O)[C@H]2C)CO3)cc1

>  <Name>  (766) 
nan

>  <Pocket>  (766) 
nan

>  <ATP_Site>  (766) 
nan

>  <Peripheral>  (766) 
nan

>  <Num_H_Atoms_ProtBoundConf>  (766) 
nan

>  <Num_Resolved_Atoms>  (766) 
nan

>  <Num_Not_Resolved_Atoms>  (766) 
nan

$$$$
CHEMBL3355132
     RDKit          3D

  0  0  0  0  0  0  0  0  0  0999 V3000
M  V30 BEGIN CTAB
M  V30 COUNTS 62 66 0 0 0
M  V30 BEGIN ATOM
M  V30 1 C -0.903061 0.731555 6.144132 0
M  V30 2 O -0.604943 1.991611 5.620419 0
M  V30 3 C -0.118750 2.231557 4.344025 0
M  V30 4 C 0.178690 3.478272 3.818387 0
M  V30 5 C 0.655324 3.691155 2.563074 0
M  V30 6 C 0.854933 2.592811 1.762720 0
M  V30 7 C 0.602471 1.295362 2.150639 0
M  V30 8 C 0.731525 0.039392 1.415487 0
M  V30 9 C 1.642248 -0.764854 2.124571 0
M  V30 10 C 2.006535 -2.014323 1.676912 0
M  V30 11 C 1.497185 -2.536881 0.514578 0
M  V30 12 C 0.614932 -1.714493 -0.138620 0
M  V30 13 C 0.188425 -0.458136 0.224080 0
M  V30 14 C -0.720184 0.472779 -0.365249 0 CFG=2
M  V30 15 C -2.056178 0.701287 0.283628 0
M  V30 16 C -2.673458 1.897609 -0.460097 0
M  V30 17 N -2.767590 1.755681 -1.852968 0
M  V30 18 C -4.027767 1.454752 -2.424927 0
M  V30 19 C -1.606833 1.311336 -2.537205 0
M  V30 20 C -0.940670 0.122679 -1.852234 0 CFG=2
M  V30 21 C -1.857503 -1.036897 -2.044693 0
M  V30 22 N 1.713972 -3.774460 -0.137906 0
M  V30 23 C 2.666967 -4.566503 0.644873 0
M  V30 24 N 2.879939 -5.864277 0.696893 0
M  V30 25 N 2.075380 -6.665015 -0.123681 0
M  V30 26 C 1.153917 -5.893104 -0.877552 0
M  V30 27 O 0.099468 -6.469629 -1.270256 0
M  V30 28 C 1.279383 -4.413820 -1.285419 0 CFG=1
M  V30 29 C 0.225513 -4.025327 -2.194738 0
M  V30 30 C 3.614290 -3.865772 1.596317 0
M  V30 31 O 2.910302 -2.876623 2.326626 0
M  V30 32 C 0.114073 1.194056 3.465178 0
M  V30 33 H -0.000549 0.062915 6.179386 0
M  V30 34 H -1.190344 0.880254 7.215600 0
M  V30 35 H -1.712608 0.263955 5.568546 0
M  V30 36 H 0.014105 4.341311 4.468579 0
M  V30 37 H 0.882034 4.649489 2.165307 0
M  V30 38 H 1.248761 2.724544 0.768627 0
M  V30 39 H 2.154327 -0.531068 3.065795 0
M  V30 40 H 0.160040 -1.988382 -1.061684 0
M  V30 41 H -0.256985 1.480733 -0.423554 0
M  V30 42 H -1.868703 1.118698 1.290563 0
M  V30 43 H -2.779350 -0.097764 0.209499 0
M  V30 44 H -2.102874 2.823835 -0.225878 0
M  V30 45 H -3.692079 2.069403 -0.034934 0
M  V30 46 H -4.657301 0.753266 -1.842291 0
M  V30 47 H -4.646010 2.400263 -2.461517 0
M  V30 48 H -3.895975 1.181365 -3.486558 0
M  V30 49 H -1.891128 0.960393 -3.549832 0
M  V30 50 H -0.889772 2.152653 -2.624451 0
M  V30 51 H 0.049672 0.020501 -2.303406 0
M  V30 52 H -1.451414 -1.759251 -2.807064 0
M  V30 53 H -2.130416 -1.488477 -1.092015 0
M  V30 54 H -2.848936 -0.737874 -2.507839 0
M  V30 55 H 2.050154 -7.699722 -0.260122 0
M  V30 56 H 2.214759 -4.520389 -1.953326 0
M  V30 57 H -0.776122 -3.960218 -1.703921 0
M  V30 58 H 0.423476 -3.240481 -2.952647 0
M  V30 59 H 0.001307 -4.912441 -2.915088 0
M  V30 60 H 4.061460 -4.535083 2.327784 0
M  V30 61 H 4.417115 -3.448546 0.957508 0
M  V30 62 H -0.116358 0.192099 3.865651 0
M  V30 END ATOM
M  V30 BEGIN BOND
M  V30 1 1 1 2
M  V30 2 1 2 3
M  V30 3 2 3 4
M  V30 4 1 4 5
M  V30 5 2 5 6
M  V30 6 1 6 7
M  V30 7 1 7 8
M  V30 8 2 8 9
M  V30 9 1 9 10
M  V30 10 2 10 11
M  V30 11 1 11 12
M  V30 12 2 12 13
M  V30 13 1 13 14
M  V30 14 1 14 15
M  V30 15 1 15 16
M  V30 16 1 16 17
M  V30 17 1 17 18
M  V30 18 1 17 19
M  V30 19 1 19 20
M  V30 20 1 20 21
M  V30 21 1 11 22
M  V30 22 1 22 23
M  V30 23 2 23 24
M  V30 24 1 24 25
M  V30 25 1 25 26
M  V30 26 2 26 27
M  V30 27 1 26 28
M  V30 28 1 28 29
M  V30 29 1 23 30
M  V30 30 1 30 31
M  V30 31 2 7 32
M  V30 32 1 32 3
M  V30 33 1 13 8
M  V30 34 1 20 14
M  V30 35 1 28 22
M  V30 36 1 31 10
M  V30 37 1 1 33
M  V30 38 1 1 34
M  V30 39 1 1 35
M  V30 40 1 4 36
M  V30 41 1 5 37
M  V30 42 1 6 38
M  V30 43 1 9 39
M  V30 44 1 12 40
M  V30 45 1 14 41 CFG=3
M  V30 46 1 15 42
M  V30 47 1 15 43
M  V30 48 1 16 44
M  V30 49 1 16 45
M  V30 50 1 18 46
M  V30 51 1 18 47
M  V30 52 1 18 48
M  V30 53 1 19 49
M  V30 54 1 19 50
M  V30 55 1 20 51 CFG=3
M  V30 56 1 21 52
M  V30 57 1 21 53
M  V30 58 1 21 54
M  V30 59 1 25 55
M  V30 60 1 28 56 CFG=3
M  V30 61 1 29 57
M  V30 62 1 29 58
M  V30 63 1 29 59
M  V30 64 1 30 60
M  V30 65 1 30 61
M  V30 66 1 32 62
M  V30 END BOND
M  V30 END CTAB
M  END
>  <Dataset>  (767) 
ChEMBL_Kinases

>  <Ligand_Instance>  (767) 
nan

>  <PDB_ID>  (767) 
nan

>  <Standardized_SMILES>  (767) 
COc1cccc(-c2cc3c(cc2[C@@H]2CCN(C)C[C@@H]2C)N2C(=NNC(=O)[C@H]2C)CO3)c1

>  <Name>  (767) 
nan

>  <Pocket>  (767) 
nan

>  <ATP_Site>  (767) 
nan

>  <Peripheral>  (767) 
nan

>  <Num_H_Atoms_ProtBoundConf>  (767) 
nan

>  <Num_Resolved_Atoms>  (767) 
nan

>  <Num_Not_Resolved_Atoms>  (767) 
nan

$$$$
CHEMBL3355133
     RDKit          3D

  0  0  0  0  0  0  0  0  0  0999 V3000
M  V30 BEGIN CTAB
M  V30 COUNTS 62 66 0 0 0
M  V30 BEGIN ATOM
M  V30 1 C 0.589026 2.584131 7.181780 0
M  V30 2 O 1.533309 2.624176 6.130505 0
M  V30 3 C 1.305951 1.809820 5.030814 0
M  V30 4 C 2.234715 1.869191 4.030476 0
M  V30 5 C 2.115039 1.106750 2.890338 0
M  V30 6 C 1.060132 0.239751 2.680426 0
M  V30 7 C 0.699269 -0.632083 1.572106 0
M  V30 8 C 0.597084 -1.958150 2.028942 0
M  V30 9 C 0.282968 -3.049242 1.201727 0
M  V30 10 C 0.069032 -2.763576 -0.131619 0
M  V30 11 C 0.175606 -1.455056 -0.552213 0
M  V30 12 C 0.481054 -0.357111 0.228668 0
M  V30 13 C 0.615823 1.029702 -0.118805 0 CFG=2
M  V30 14 C -0.311776 2.041537 0.439886 0
M  V30 15 C -1.722788 1.575693 0.190171 0
M  V30 16 N -1.746795 0.651622 -0.957266 0
M  V30 17 C -3.105076 0.395971 -1.318624 0
M  V30 18 C -0.933844 1.122083 -2.029001 0
M  V30 19 C 0.494579 1.258983 -1.622747 0 CFG=2
M  V30 20 C 1.487271 0.515644 -2.442113 0
M  V30 21 N -0.257788 -3.794324 -1.041317 0
M  V30 22 C -0.348938 -5.096023 -0.509236 0
M  V30 23 N -0.381059 -6.186241 -1.233571 0
M  V30 24 N -0.326036 -6.127360 -2.620101 0
M  V30 25 C -0.234735 -4.839058 -3.200335 0
M  V30 26 O 0.084058 -4.780405 -4.433035 0
M  V30 27 C -0.488670 -3.558496 -2.455548 0 CFG=1
M  V30 28 C -1.905967 -3.168796 -2.722216 0
M  V30 29 C -0.424712 -5.358085 0.940185 0
M  V30 30 O 0.190115 -4.329793 1.671305 0
M  V30 31 C 0.137945 0.222145 3.744357 0
M  V30 32 C 0.222497 0.970037 4.902463 0
M  V30 33 H 0.277647 1.559389 7.457323 0
M  V30 34 H 0.975212 3.049533 8.109930 0
M  V30 35 H -0.315744 3.128767 6.855439 0
M  V30 36 H 3.117100 2.503353 4.051481 0
M  V30 37 H 2.836278 1.117242 2.090334 0
M  V30 38 H 0.750634 -2.267591 3.061052 0
M  V30 39 H 0.010421 -1.292776 -1.605261 0
M  V30 40 H 1.672435 1.366831 0.130770 0
M  V30 41 H -0.122884 2.377875 1.461504 0
M  V30 42 H -0.175845 2.967755 -0.155186 0
M  V30 43 H -2.187317 1.074095 1.040478 0
M  V30 44 H -2.415739 2.392467 -0.116168 0
M  V30 45 H -3.380816 -0.644457 -1.065546 0
M  V30 46 H -3.255391 0.536315 -2.410854 0
M  V30 47 H -3.795225 1.070074 -0.752386 0
M  V30 48 H -1.371694 2.090040 -2.420785 0
M  V30 49 H -0.951877 0.441081 -2.916067 0
M  V30 50 H 0.733173 2.352394 -1.856012 0
M  V30 51 H 0.964657 0.066852 -3.312326 0
M  V30 52 H 2.107353 -0.227717 -1.935168 0
M  V30 53 H 2.255109 1.189259 -2.931937 0
M  V30 54 H -0.350658 -6.987321 -3.204512 0
M  V30 55 H 0.257923 -2.835958 -2.892792 0
M  V30 56 H -2.539901 -4.069322 -2.919447 0
M  V30 57 H -2.334029 -2.677272 -1.811603 0
M  V30 58 H -1.953126 -2.476193 -3.579710 0
M  V30 59 H -0.026027 -6.359199 1.231143 0
M  V30 60 H -1.519663 -5.335813 1.203472 0
M  V30 61 H -0.750461 -0.419466 3.718375 0
M  V30 62 H -0.500014 0.924084 5.681763 0
M  V30 END ATOM
M  V30 BEGIN BOND
M  V30 1 1 1 2
M  V30 2 1 2 3
M  V30 3 2 3 4
M  V30 4 1 4 5
M  V30 5 2 5 6
M  V30 6 1 6 7
M  V30 7 2 7 8
M  V30 8 1 8 9
M  V30 9 2 9 10
M  V30 10 1 10 11
M  V30 11 2 11 12
M  V30 12 1 12 13
M  V30 13 1 13 14
M  V30 14 1 14 15
M  V30 15 1 15 16
M  V30 16 1 16 17
M  V30 17 1 16 18
M  V30 18 1 18 19
M  V30 19 1 19 20
M  V30 20 1 10 21
M  V30 21 1 21 22
M  V30 22 2 22 23
M  V30 23 1 23 24
M  V30 24 1 24 25
M  V30 25 2 25 26
M  V30 26 1 25 27
M  V30 27 1 27 28
M  V30 28 1 22 29
M  V30 29 1 29 30
M  V30 30 1 6 31
M  V30 31 2 31 32
M  V30 32 1 32 3
M  V30 33 1 12 7
M  V30 34 1 19 13
M  V30 35 1 27 21
M  V30 36 1 30 9
M  V30 37 1 1 33
M  V30 38 1 1 34
M  V30 39 1 1 35
M  V30 40 1 4 36
M  V30 41 1 5 37
M  V30 42 1 8 38
M  V30 43 1 11 39
M  V30 44 1 13 40 CFG=1
M  V30 45 1 14 41
M  V30 46 1 14 42
M  V30 47 1 15 43
M  V30 48 1 15 44
M  V30 49 1 17 45
M  V30 50 1 17 46
M  V30 51 1 17 47
M  V30 52 1 18 48
M  V30 53 1 18 49
M  V30 54 1 19 50 CFG=1
M  V30 55 1 20 51
M  V30 56 1 20 52
M  V30 57 1 20 53
M  V30 58 1 24 54
M  V30 59 1 27 55 CFG=3
M  V30 60 1 28 56
M  V30 61 1 28 57
M  V30 62 1 28 58
M  V30 63 1 29 59
M  V30 64 1 29 60
M  V30 65 1 31 61
M  V30 66 1 32 62
M  V30 END BOND
M  V30 END CTAB
M  END
>  <Dataset>  (768) 
ChEMBL_Kinases

>  <Ligand_Instance>  (768) 
nan

>  <PDB_ID>  (768) 
nan

>  <Standardized_SMILES>  (768) 
COc1ccc(-c2cc3c(cc2[C@@H]2CCN(C)C[C@@H]2C)N2C(=NNC(=O)[C@H]2C)CO3)cc1

>  <Name>  (768) 
nan

>  <Pocket>  (768) 
nan

>  <ATP_Site>  (768) 
nan

>  <Peripheral>  (768) 
nan

>  <Num_H_Atoms_ProtBoundConf>  (768) 
nan

>  <Num_Resolved_Atoms>  (768) 
nan

>  <Num_Not_Resolved_Atoms>  (768) 
nan

$$$$
CHEMBL3355124
     RDKit          3D

  0  0  0  0  0  0  0  0  0  0999 V3000
M  V30 BEGIN CTAB
M  V30 COUNTS 58 62 0 0 0
M  V30 BEGIN ATOM
M  V30 1 C -0.253120 1.011236 3.453632 0
M  V30 2 C 0.099252 -0.362050 2.940540 0 CFG=2
M  V30 3 C 1.392260 -0.696613 3.747445 0
M  V30 4 N 2.508153 0.011825 3.246368 0
M  V30 5 C 3.524568 0.316586 4.214141 0
M  V30 6 C 2.345440 0.954973 2.223559 0
M  V30 7 C 1.330092 0.726830 1.173235 0
M  V30 8 C 0.491207 -0.491298 1.552853 0 CFG=2
M  V30 9 C -0.386816 -0.787427 0.465896 0
M  V30 10 C 0.130946 -1.504955 -0.631668 0
M  V30 11 C -0.534757 -1.883469 -1.762630 0
M  V30 12 C -1.863551 -1.547206 -1.887207 0
M  V30 13 C -2.443564 -0.842317 -0.851047 0
M  V30 14 C -1.692203 -0.498629 0.262197 0
M  V30 15 C -2.489549 0.238692 1.227529 0
M  V30 16 C -3.147984 -0.513251 2.214065 0
M  V30 17 C -3.936232 0.104042 3.142133 0
M  V30 18 C -4.062590 1.475504 3.079466 0
M  V30 19 C -3.424000 2.228181 2.119264 0
M  V30 20 C -2.611129 1.635153 1.154463 0
M  V30 21 F -1.941364 2.270317 0.173402 0
M  V30 22 O -2.583029 -1.902085 -3.003401 0
M  V30 23 C -2.050482 -2.541201 -4.140673 0
M  V30 24 C -0.641730 -2.963472 -3.944029 0
M  V30 25 N -0.226016 -3.675702 -4.934131 0
M  V30 26 N 1.085982 -4.151065 -4.897268 0
M  V30 27 C 1.924082 -3.847475 -3.790506 0
M  V30 28 O 3.094862 -4.344329 -3.722741 0
M  V30 29 C 1.519839 -2.962259 -2.668672 0 CFG=1
M  V30 30 C 2.350202 -1.704847 -2.784223 0
M  V30 31 N 0.120991 -2.608692 -2.798164 0
M  V30 32 H -1.282699 0.921473 3.880535 0
M  V30 33 H 0.435463 1.366210 4.280265 0
M  V30 34 H -0.242704 1.811637 2.723214 0
M  V30 35 H -0.577007 -1.149835 3.347590 0
M  V30 36 H 1.544028 -1.780871 3.611848 0
M  V30 37 H 1.241866 -0.491255 4.819582 0
M  V30 38 H 3.089284 0.113541 5.222689 0
M  V30 39 H 4.351310 -0.411434 4.081945 0
M  V30 40 H 3.945384 1.332660 4.139739 0
M  V30 41 H 3.333703 1.146433 1.710391 0
M  V30 42 H 2.135546 1.953416 2.710891 0
M  V30 43 H 0.713535 1.617486 0.993541 0
M  V30 44 H 1.841717 0.433618 0.218248 0
M  V30 45 H 1.288247 -1.329989 1.530969 0
M  V30 46 H 1.192424 -1.809483 -0.604646 0
M  V30 47 H -3.487947 -0.602650 -0.996763 0
M  V30 48 H -3.028671 -1.591097 2.236861 0
M  V30 49 H -4.434753 -0.489087 3.894056 0
M  V30 50 H -4.674318 2.012357 3.790649 0
M  V30 51 H -3.507876 3.322727 2.047437 0
M  V30 52 H -2.089482 -1.818214 -4.991472 0
M  V30 53 H -2.665019 -3.414138 -4.438291 0
M  V30 54 H 1.515033 -4.743447 -5.664555 0
M  V30 55 H 1.739598 -3.532523 -1.741791 0
M  V30 56 H 1.738499 -0.780943 -2.711093 0
M  V30 57 H 3.130604 -1.633175 -2.008485 0
M  V30 58 H 2.869080 -1.636265 -3.769913 0
M  V30 END ATOM
M  V30 BEGIN BOND
M  V30 1 1 1 2
M  V30 2 1 2 3
M  V30 3 1 3 4
M  V30 4 1 4 5
M  V30 5 1 4 6
M  V30 6 1 6 7
M  V30 7 1 7 8
M  V30 8 1 8 9
M  V30 9 2 9 10
M  V30 10 1 10 11
M  V30 11 2 11 12
M  V30 12 1 12 13
M  V30 13 2 13 14
M  V30 14 1 14 15
M  V30 15 2 15 16
M  V30 16 1 16 17
M  V30 17 2 17 18
M  V30 18 1 18 19
M  V30 19 2 19 20
M  V30 20 1 20 21
M  V30 21 1 12 22
M  V30 22 1 22 23
M  V30 23 1 23 24
M  V30 24 2 24 25
M  V30 25 1 25 26
M  V30 26 1 26 27
M  V30 27 2 27 28
M  V30 28 1 27 29
M  V30 29 1 29 30
M  V30 30 1 29 31
M  V30 31 1 8 2
M  V30 32 1 14 9
M  V30 33 1 20 15
M  V30 34 1 31 24
M  V30 35 1 31 11
M  V30 36 1 1 32
M  V30 37 1 1 33
M  V30 38 1 1 34
M  V30 39 1 2 35 CFG=1
M  V30 40 1 3 36
M  V30 41 1 3 37
M  V30 42 1 5 38
M  V30 43 1 5 39
M  V30 44 1 5 40
M  V30 45 1 6 41
M  V30 46 1 6 42
M  V30 47 1 7 43
M  V30 48 1 7 44
M  V30 49 1 8 45 CFG=1
M  V30 50 1 10 46
M  V30 51 1 13 47
M  V30 52 1 16 48
M  V30 53 1 17 49
M  V30 54 1 18 50
M  V30 55 1 19 51
M  V30 56 1 23 52
M  V30 57 1 23 53
M  V30 58 1 26 54
M  V30 59 1 29 55 CFG=1
M  V30 60 1 30 56
M  V30 61 1 30 57
M  V30 62 1 30 58
M  V30 END BOND
M  V30 END CTAB
M  END
>  <Dataset>  (769) 
ChEMBL_Kinases

>  <Ligand_Instance>  (769) 
nan

>  <PDB_ID>  (769) 
nan

>  <Standardized_SMILES>  (769) 
C[C@@H]1CN(C)CC[C@@H]1c1cc2c(cc1-c1ccccc1F)OCC1=NNC(=O)[C@@H](C)N12

>  <Name>  (769) 
nan

>  <Pocket>  (769) 
nan

>  <ATP_Site>  (769) 
nan

>  <Peripheral>  (769) 
nan

>  <Num_H_Atoms_ProtBoundConf>  (769) 
nan

>  <Num_Resolved_Atoms>  (769) 
nan

>  <Num_Not_Resolved_Atoms>  (769) 
nan

$$$$
CHEMBL3353346
     RDKit          3D

  0  0  0  0  0  0  0  0  0  0999 V3000
M  V30 BEGIN CTAB
M  V30 COUNTS 69 75 0 0 0
M  V30 BEGIN ATOM
M  V30 1 C 4.234339 -0.194502 3.469619 0
M  V30 2 O 4.148196 0.495579 2.254069 0
M  V30 3 C 4.213146 1.868402 2.242181 0
M  V30 4 C 4.363244 2.526474 3.443867 0
M  V30 5 C 4.433258 3.902600 3.473045 0
M  V30 6 C 4.348666 4.592156 2.271710 0
M  V30 7 C 4.193521 4.005293 1.008797 0
M  V30 8 C 4.136913 2.631507 1.097127 0
M  V30 9 C 4.120444 5.056898 0.009929 0 CFG=1
M  V30 10 C 4.308902 4.930902 -1.415838 0
M  V30 11 C 2.941738 5.198440 -0.902298 0 CFG=1
M  V30 12 C 1.901765 4.181158 -0.779866 0
M  V30 13 C 1.845029 2.913516 -1.313624 0
M  V30 14 C 0.824568 2.009777 -1.139883 0
M  V30 15 C -0.248333 2.370310 -0.372007 0
M  V30 16 C -1.394639 1.686263 -0.025641 0
M  V30 17 C -1.732271 0.328288 -0.451286 0
M  V30 18 C -2.860059 -0.205388 -0.024856 0
M  V30 19 C -3.290118 -1.549612 -0.389214 0
M  V30 20 C -2.581798 -2.399878 -1.211589 0
M  V30 21 C -3.031574 -3.669660 -1.530658 0
M  V30 22 C -4.231895 -4.133736 -1.022500 0
M  V30 23 C -4.765207 -5.462168 -1.319586 0
M  V30 24 N -4.402243 -6.513703 -0.452193 0
M  V30 25 C -4.931653 -7.795086 -0.751528 0
M  V30 26 C -3.949109 -8.923053 -0.655486 0
M  V30 27 C -3.390929 -8.881617 0.760057 0
M  V30 28 C -2.640163 -7.606116 0.913279 0
M  V30 29 C -3.174500 -6.422979 0.207000 0
M  V30 30 N -4.914839 -3.295863 -0.221014 0
M  V30 31 C -4.478294 -2.060386 0.089937 0
M  V30 32 N -2.083944 2.521237 0.739612 0
M  V30 33 N -1.427236 3.666997 0.877670 0
M  V30 34 C -0.269942 3.623672 0.199751 0
M  V30 35 C 0.777912 4.492740 -0.005171 0
M  V30 36 C 4.389399 6.292430 0.793567 0
M  V30 37 O 4.511746 7.393882 0.201003 0
M  V30 38 N 4.470374 6.007875 2.182343 0
M  V30 39 H 3.420907 0.165063 4.153026 0
M  V30 40 H 4.059288 -1.273407 3.344070 0
M  V30 41 H 5.195636 -0.054340 4.001950 0
M  V30 42 H 4.425794 1.961723 4.362567 0
M  V30 43 H 4.549637 4.352167 4.432399 0
M  V30 44 H 4.036601 2.041271 0.210697 0
M  V30 45 H 4.474397 3.909710 -1.827950 0
M  V30 46 H 4.852415 5.708876 -1.987849 0
M  V30 47 H 2.510571 6.245157 -0.970745 0
M  V30 48 H 2.723765 2.653889 -1.926022 0
M  V30 49 H 0.946139 1.057407 -1.633986 0
M  V30 50 H -1.066619 -0.218906 -1.101947 0
M  V30 51 H -3.479760 0.376644 0.614196 0
M  V30 52 H -1.654813 -2.083559 -1.623159 0
M  V30 53 H -2.435075 -4.282975 -2.176750 0
M  V30 54 H -4.459494 -5.746500 -2.370011 0
M  V30 55 H -5.881630 -5.409438 -1.388190 0
M  V30 56 H -5.781376 -8.030067 -0.075446 0
M  V30 57 H -5.346767 -7.776688 -1.777898 0
M  V30 58 H -4.489002 -9.871549 -0.839118 0
M  V30 59 H -3.129404 -8.757344 -1.354840 0
M  V30 60 H -4.190929 -9.002111 1.519647 0
M  V30 61 H -2.712688 -9.729670 0.889162 0
M  V30 62 H -1.587202 -7.807485 0.554377 0
M  V30 63 H -2.498635 -7.444273 2.016578 0
M  V30 64 H -2.422238 -6.011996 -0.521317 0
M  V30 65 H -3.254138 -5.593939 0.970601 0
M  V30 66 H -5.119261 -1.472808 0.749205 0
M  V30 67 H -1.734337 4.503939 1.426104 0
M  V30 68 H 0.699556 5.462434 0.471517 0
M  V30 69 H 4.593084 6.740348 2.913129 0
M  V30 END ATOM
M  V30 BEGIN BOND
M  V30 1 1 1 2
M  V30 2 1 2 3
M  V30 3 2 3 4
M  V30 4 1 4 5
M  V30 5 2 5 6
M  V30 6 1 6 7
M  V30 7 2 7 8
M  V30 8 1 7 9
M  V30 9 1 9 10 CFG=3
M  V30 10 1 10 11
M  V30 11 1 11 12
M  V30 12 2 12 13
M  V30 13 1 13 14
M  V30 14 2 14 15
M  V30 15 1 15 16
M  V30 16 1 16 17
M  V30 17 2 17 18
M  V30 18 1 18 19
M  V30 19 2 19 20
M  V30 20 1 20 21
M  V30 21 2 21 22
M  V30 22 1 22 23
M  V30 23 1 23 24
M  V30 24 1 24 25
M  V30 25 1 25 26
M  V30 26 1 26 27
M  V30 27 1 27 28
M  V30 28 1 28 29
M  V30 29 1 22 30
M  V30 30 2 30 31
M  V30 31 2 16 32
M  V30 32 1 32 33
M  V30 33 1 33 34
M  V30 34 2 34 35
M  V30 35 1 9 36
M  V30 36 2 36 37
M  V30 37 1 36 38
M  V30 38 1 8 3
M  V30 39 1 11 9
M  V30 40 1 35 12
M  V30 41 1 38 6
M  V30 42 1 34 15
M  V30 43 1 31 19
M  V30 44 1 29 24
M  V30 45 1 1 39
M  V30 46 1 1 40
M  V30 47 1 1 41
M  V30 48 1 4 42
M  V30 49 1 5 43
M  V30 50 1 8 44
M  V30 51 1 10 45
M  V30 52 1 10 46
M  V30 53 1 11 47 CFG=3
M  V30 54 1 13 48
M  V30 55 1 14 49
M  V30 56 1 17 50
M  V30 57 1 18 51
M  V30 58 1 20 52
M  V30 59 1 21 53
M  V30 60 1 23 54
M  V30 61 1 23 55
M  V30 62 1 25 56
M  V30 63 1 25 57
M  V30 64 1 26 58
M  V30 65 1 26 59
M  V30 66 1 27 60
M  V30 67 1 27 61
M  V30 68 1 28 62
M  V30 69 1 28 63
M  V30 70 1 29 64
M  V30 71 1 29 65
M  V30 72 1 31 66
M  V30 73 1 33 67
M  V30 74 1 35 68
M  V30 75 1 38 69
M  V30 END BOND
M  V30 END CTAB
M  END
>  <Dataset>  (770) 
ChEMBL_Kinases

>  <Ligand_Instance>  (770) 
nan

>  <PDB_ID>  (770) 
nan

>  <Standardized_SMILES>  (770) 
COc1ccc2c(c1)[C@]1(C[C@H]1c1ccc3c(/C=C/c4ccc(CN5CCCCC5)nc4)n[nH]c3c1)C(=O)N2

>  <Name>  (770) 
nan

>  <Pocket>  (770) 
nan

>  <ATP_Site>  (770) 
nan

>  <Peripheral>  (770) 
nan

>  <Num_H_Atoms_ProtBoundConf>  (770) 
nan

>  <Num_Resolved_Atoms>  (770) 
nan

>  <Num_Not_Resolved_Atoms>  (770) 
nan

$$$$
CHEMBL3353345
     RDKit          3D

  0  0  0  0  0  0  0  0  0  0999 V3000
M  V30 BEGIN CTAB
M  V30 COUNTS 65 71 0 0 0
M  V30 BEGIN ATOM
M  V30 1 O 5.403665 2.745353 6.579280 0
M  V30 2 C 5.349601 3.033203 5.342674 0
M  V30 3 N 6.470872 3.091248 4.450665 0
M  V30 4 C 5.858541 3.483790 3.229183 0
M  V30 5 C 6.619614 3.678537 2.066379 0
M  V30 6 C 5.976162 4.074980 0.916478 0
M  V30 7 C 4.604468 4.273900 0.922112 0
M  V30 8 C 3.922973 4.058693 2.117258 0
M  V30 9 C 4.497204 3.656594 3.325178 0
M  V30 10 C 4.059157 3.353005 4.673507 0 CFG=2
M  V30 11 C 3.062569 4.046538 5.472558 0
M  V30 12 C 2.831901 2.603916 5.031072 0 CFG=1
M  V30 13 C 1.776931 2.372149 4.057935 0
M  V30 14 C 1.831269 1.122131 3.478491 0
M  V30 15 C 0.923791 0.661037 2.526145 0
M  V30 16 C -0.085817 1.539183 2.161004 0
M  V30 17 C -1.128853 1.373845 1.246884 0
M  V30 18 C -1.356912 0.180741 0.436562 0
M  V30 19 C -2.412431 0.232392 -0.338715 0
M  V30 20 C -2.769818 -0.878154 -1.208078 0
M  V30 21 C -2.049383 -2.044264 -1.334010 0
M  V30 22 C -2.350396 -3.114785 -2.144191 0
M  V30 23 C -3.505594 -3.025010 -2.927041 0
M  V30 24 C -3.907693 -4.116643 -3.833013 0
M  V30 25 N -4.752414 -5.107643 -3.262147 0
M  V30 26 C -5.095993 -6.120736 -4.232087 0
M  V30 27 C -3.952487 -7.068404 -4.434098 0
M  V30 28 C -3.457991 -7.677016 -3.156408 0
M  V30 29 C -3.318104 -6.698585 -2.027018 0
M  V30 30 C -4.363506 -5.626246 -1.991018 0
M  V30 31 N -4.232685 -1.888010 -2.821508 0
M  V30 32 C -3.887930 -0.871537 -2.010641 0
M  V30 33 N -1.787452 2.541639 1.307828 0
M  V30 34 N -1.253984 3.388427 2.156586 0
M  V30 35 C -0.180999 2.801931 2.716398 0
M  V30 36 C 0.747616 3.197664 3.651738 0
M  V30 37 H 7.435476 2.871341 4.776430 0
M  V30 38 H 7.684584 3.548525 1.971570 0
M  V30 39 H 6.494812 4.236996 0.000160 0
M  V30 40 H 4.074342 4.585829 0.034336 0
M  V30 41 H 2.872652 4.230933 2.062065 0
M  V30 42 H 3.262763 4.194599 6.572563 0
M  V30 43 H 2.383605 4.828143 5.090047 0
M  V30 44 H 3.064176 1.771475 5.754446 0
M  V30 45 H 2.591876 0.358039 3.702598 0
M  V30 46 H 0.963194 -0.311971 2.071924 0
M  V30 47 H -0.683483 -0.656561 0.502060 0
M  V30 48 H -3.070251 1.098638 -0.373170 0
M  V30 49 H -1.131855 -2.172467 -0.743080 0
M  V30 50 H -1.717814 -3.994195 -2.178216 0
M  V30 51 H -2.997134 -4.511935 -4.318354 0
M  V30 52 H -4.495261 -3.623560 -4.657964 0
M  V30 53 H -5.978411 -6.695425 -3.945186 0
M  V30 54 H -5.234654 -5.579451 -5.197395 0
M  V30 55 H -3.082376 -6.604817 -4.939629 0
M  V30 56 H -4.299099 -7.901357 -5.103546 0
M  V30 57 H -4.063826 -8.569367 -2.889702 0
M  V30 58 H -2.426494 -8.085085 -3.373093 0
M  V30 59 H -2.281798 -6.303614 -1.925331 0
M  V30 60 H -3.470054 -7.304844 -1.085268 0
M  V30 61 H -5.267194 -6.015690 -1.460909 0
M  V30 62 H -3.986121 -4.787453 -1.376220 0
M  V30 63 H -4.563054 -0.003811 -2.015285 0
M  V30 64 H -1.576197 4.357167 2.384830 0
M  V30 65 H 0.730638 4.158249 4.118170 0
M  V30 END ATOM
M  V30 BEGIN BOND
M  V30 1 2 1 2
M  V30 2 1 2 3
M  V30 3 1 3 4
M  V30 4 2 4 5
M  V30 5 1 5 6
M  V30 6 2 6 7
M  V30 7 1 7 8
M  V30 8 2 8 9
M  V30 9 1 9 10
M  V30 10 1 10 11 CFG=1
M  V30 11 1 11 12
M  V30 12 1 12 13
M  V30 13 2 13 14
M  V30 14 1 14 15
M  V30 15 2 15 16
M  V30 16 1 16 17
M  V30 17 1 17 18
M  V30 18 2 18 19
M  V30 19 1 19 20
M  V30 20 2 20 21
M  V30 21 1 21 22
M  V30 22 2 22 23
M  V30 23 1 23 24
M  V30 24 1 24 25
M  V30 25 1 25 26
M  V30 26 1 26 27
M  V30 27 1 27 28
M  V30 28 1 28 29
M  V30 29 1 29 30
M  V30 30 1 23 31
M  V30 31 2 31 32
M  V30 32 2 17 33
M  V30 33 1 33 34
M  V30 34 1 34 35
M  V30 35 2 35 36
M  V30 36 1 10 2
M  V30 37 1 36 13
M  V30 38 1 9 4
M  V30 39 1 12 10
M  V30 40 1 35 16
M  V30 41 1 32 20
M  V30 42 1 30 25
M  V30 43 1 3 37
M  V30 44 1 5 38
M  V30 45 1 6 39
M  V30 46 1 7 40
M  V30 47 1 8 41
M  V30 48 1 11 42
M  V30 49 1 11 43
M  V30 50 1 12 44 CFG=1
M  V30 51 1 14 45
M  V30 52 1 15 46
M  V30 53 1 18 47
M  V30 54 1 19 48
M  V30 55 1 21 49
M  V30 56 1 22 50
M  V30 57 1 24 51
M  V30 58 1 24 52
M  V30 59 1 26 53
M  V30 60 1 26 54
M  V30 61 1 27 55
M  V30 62 1 27 56
M  V30 63 1 28 57
M  V30 64 1 28 58
M  V30 65 1 29 59
M  V30 66 1 29 60
M  V30 67 1 30 61
M  V30 68 1 30 62
M  V30 69 1 32 63
M  V30 70 1 34 64
M  V30 71 1 36 65
M  V30 END BOND
M  V30 END CTAB
M  END
>  <Dataset>  (771) 
ChEMBL_Kinases

>  <Ligand_Instance>  (771) 
nan

>  <PDB_ID>  (771) 
nan

>  <Standardized_SMILES>  (771) 
O=C1Nc2ccccc2[C@]12C[C@H]2c1ccc2c(/C=C/c3ccc(CN4CCCCC4)nc3)n[nH]c2c1

>  <Name>  (771) 
nan

>  <Pocket>  (771) 
nan

>  <ATP_Site>  (771) 
nan

>  <Peripheral>  (771) 
nan

>  <Num_H_Atoms_ProtBoundConf>  (771) 
nan

>  <Num_Resolved_Atoms>  (771) 
nan

>  <Num_Not_Resolved_Atoms>  (771) 
nan

$$$$
CHEMBL3353343
     RDKit          3D

  0  0  0  0  0  0  0  0  0  0999 V3000
M  V30 BEGIN CTAB
M  V30 COUNTS 50 55 0 0 0
M  V30 BEGIN ATOM
M  V30 1 C 3.181243 -9.119910 0.217537 0
M  V30 2 C 2.901806 -7.650892 0.257056 0
M  V30 3 C 3.703606 -6.827951 -0.528065 0
M  V30 4 C 3.437066 -5.475276 -0.483890 0
M  V30 5 C 2.439113 -4.914385 0.281956 0
M  V30 6 C 2.130000 -3.498138 0.353520 0
M  V30 7 C 2.668797 -2.482007 -0.235687 0
M  V30 8 C 2.512053 -1.051540 -0.294352 0
M  V30 9 N 3.330225 -0.293769 -1.084358 0
M  V30 10 N 3.008607 0.964574 -0.981306 0
M  V30 11 C 1.980461 1.148725 -0.140077 0
M  V30 12 C 1.250612 2.242955 0.328395 0
M  V30 13 C 0.193945 2.083024 1.239327 0
M  V30 14 C -0.468416 3.301650 1.654309 0 CFG=2
M  V30 15 C -1.217705 3.193726 2.995113 0
M  V30 16 C -1.877955 3.615122 1.754391 0 CFG=1
M  V30 17 C -2.254900 5.075392 1.587711 0
M  V30 18 O -1.518155 6.007227 2.038844 0
M  V30 19 N -3.480608 5.249283 0.894260 0
M  V30 20 C -3.916200 3.924098 0.618070 0
M  V30 21 C -5.092257 3.639761 -0.048159 0
M  V30 22 C -5.442194 2.325841 -0.265967 0
M  V30 23 C -4.603835 1.337863 0.190098 0
M  V30 24 C -3.447733 1.700071 0.846215 0
M  V30 25 C -3.007885 2.980013 1.113742 0
M  V30 26 C -0.041702 0.782418 1.611824 0
M  V30 27 C 0.666191 -0.300331 1.160074 0
M  V30 28 C 1.680633 -0.126511 0.282439 0
M  V30 29 C 1.683493 -5.784045 1.034403 0
M  V30 30 N 1.926147 -7.105993 1.006255 0
M  V30 31 H 4.154726 -9.312264 0.721476 0
M  V30 32 H 2.334707 -9.636935 0.720943 0
M  V30 33 H 3.185192 -9.450926 -0.840634 0
M  V30 34 H 4.496537 -7.225237 -1.143018 0
M  V30 35 H 4.048166 -4.849741 -1.082061 0
M  V30 36 H 1.328560 -3.182347 0.986378 0
M  V30 37 H 3.470162 -2.929097 -0.850968 0
M  V30 38 H 3.507144 1.708192 -1.500270 0
M  V30 39 H 1.590078 3.173760 -0.081581 0
M  V30 40 H 0.200007 4.212033 1.540933 0
M  V30 41 H -1.463834 2.219883 3.409274 0
M  V30 42 H -0.917120 3.933879 3.767623 0
M  V30 43 H -3.891292 6.180908 0.680636 0
M  V30 44 H -5.781721 4.380214 -0.424329 0
M  V30 45 H -6.351229 2.080716 -0.781408 0
M  V30 46 H -4.904478 0.317449 0.004852 0
M  V30 47 H -2.877378 0.840545 1.156058 0
M  V30 48 H -0.829309 0.637208 2.304982 0
M  V30 49 H 0.400832 -1.257941 1.511380 0
M  V30 50 H 0.877316 -5.422735 1.665323 0
M  V30 END ATOM
M  V30 BEGIN BOND
M  V30 1 1 1 2
M  V30 2 2 2 3
M  V30 3 1 3 4
M  V30 4 2 4 5
M  V30 5 1 5 6
M  V30 6 2 6 7
M  V30 7 1 7 8
M  V30 8 2 8 9
M  V30 9 1 9 10
M  V30 10 1 10 11
M  V30 11 2 11 12
M  V30 12 1 12 13
M  V30 13 1 13 14
M  V30 14 1 14 15
M  V30 15 1 16 15 CFG=1
M  V30 16 1 16 17
M  V30 17 2 17 18
M  V30 18 1 17 19
M  V30 19 1 19 20
M  V30 20 2 20 21
M  V30 21 1 21 22
M  V30 22 2 22 23
M  V30 23 1 23 24
M  V30 24 2 24 25
M  V30 25 2 13 26
M  V30 26 1 26 27
M  V30 27 2 27 28
M  V30 28 1 5 29
M  V30 29 2 29 30
M  V30 30 1 30 2
M  V30 31 1 28 8
M  V30 32 1 28 11
M  V30 33 1 16 14
M  V30 34 1 25 20
M  V30 35 1 25 16
M  V30 36 1 1 31
M  V30 37 1 1 32
M  V30 38 1 1 33
M  V30 39 1 3 34
M  V30 40 1 4 35
M  V30 41 1 6 36
M  V30 42 1 7 37
M  V30 43 1 10 38
M  V30 44 1 12 39
M  V30 45 1 14 40 CFG=1
M  V30 46 1 15 41
M  V30 47 1 15 42
M  V30 48 1 19 43
M  V30 49 1 21 44
M  V30 50 1 22 45
M  V30 51 1 23 46
M  V30 52 1 24 47
M  V30 53 1 26 48
M  V30 54 1 27 49
M  V30 55 1 29 50
M  V30 END BOND
M  V30 END CTAB
M  END
>  <Dataset>  (772) 
ChEMBL_Kinases

>  <Ligand_Instance>  (772) 
nan

>  <PDB_ID>  (772) 
nan

>  <Standardized_SMILES>  (772) 
Cc1ccc(/C=C/c2n[nH]c3cc([C@@H]4C[C@@]45C(=O)Nc4ccccc45)ccc23)cn1

>  <Name>  (772) 
nan

>  <Pocket>  (772) 
nan

>  <ATP_Site>  (772) 
nan

>  <Peripheral>  (772) 
nan

>  <Num_H_Atoms_ProtBoundConf>  (772) 
nan

>  <Num_Resolved_Atoms>  (772) 
nan

>  <Num_Not_Resolved_Atoms>  (772) 
nan

$$$$
CHEMBL3353342
     RDKit          3D

  0  0  0  0  0  0  0  0  0  0999 V3000
M  V30 BEGIN CTAB
M  V30 COUNTS 47 52 0 0 0
M  V30 BEGIN ATOM
M  V30 1 O 5.681844 0.143843 3.844646 0
M  V30 2 C 5.309024 0.058886 2.626521 0
M  V30 3 N 6.002336 -0.675140 1.628730 0
M  V30 4 C 5.242161 -0.430501 0.451372 0
M  V30 5 C 5.588129 -0.945630 -0.800305 0
M  V30 6 C 4.825422 -0.640143 -1.893332 0
M  V30 7 C 3.727651 0.175400 -1.723469 0
M  V30 8 C 3.451166 0.639948 -0.475481 0
M  V30 9 C 4.142552 0.400748 0.695896 0
M  V30 10 C 4.083722 0.732585 2.108899 0 CFG=2
M  V30 11 C 3.513098 1.920523 2.706660 0
M  V30 12 C 2.920894 0.621756 2.999144 0 CFG=1
M  V30 13 C 1.586515 0.215851 2.552858 0
M  V30 14 C 0.736160 0.876572 1.693585 0
M  V30 15 C -0.510661 0.460466 1.285853 0
M  V30 16 C -0.973605 -0.734403 1.775090 0
M  V30 17 C -2.138451 -1.451515 1.596471 0
M  V30 18 C -3.267921 -1.064468 0.756724 0
M  V30 19 C -4.318891 -1.843040 0.676604 0
M  V30 20 C -5.488449 -1.540858 -0.132222 0
M  V30 21 C -5.639052 -0.411802 -0.907705 0
M  V30 22 C -6.760074 -0.153286 -1.663786 0
M  V30 23 C -7.792837 -1.055478 -1.658089 0
M  V30 24 N -7.679494 -2.171688 -0.910356 0
M  V30 25 C -6.563259 -2.403162 -0.173475 0
M  V30 26 N -2.035985 -2.568362 2.338825 0
M  V30 27 N -0.861084 -2.596219 2.981576 0
M  V30 28 C -0.198338 -1.474918 2.643925 0
M  V30 29 C 1.042279 -0.993831 3.008142 0
M  V30 30 H 6.855093 -1.235064 1.791913 0
M  V30 31 H 6.438338 -1.585871 -0.972369 0
M  V30 32 H 5.073620 -1.023803 -2.855774 0
M  V30 33 H 3.144545 0.400904 -2.599108 0
M  V30 34 H 2.578168 1.277259 -0.447287 0
M  V30 35 H 2.979889 2.621726 2.010465 0
M  V30 36 H 4.121641 2.485174 3.443200 0
M  V30 37 H 3.150738 0.197589 4.032275 0
M  V30 38 H 1.095427 1.822615 1.312334 0
M  V30 39 H -1.098031 1.055445 0.606697 0
M  V30 40 H -3.228461 -0.135229 0.205472 0
M  V30 41 H -4.303225 -2.747500 1.241950 0
M  V30 42 H -4.845994 0.314443 -0.932682 0
M  V30 43 H -6.852683 0.737913 -2.261912 0
M  V30 44 H -8.712307 -0.942182 -2.217419 0
M  V30 45 H -6.569671 -3.334331 0.396543 0
M  V30 46 H -0.496285 -3.341285 3.634657 0
M  V30 47 H 1.634432 -1.604209 3.699341 0
M  V30 END ATOM
M  V30 BEGIN BOND
M  V30 1 2 1 2
M  V30 2 1 2 3
M  V30 3 1 3 4
M  V30 4 2 4 5
M  V30 5 1 5 6
M  V30 6 2 6 7
M  V30 7 1 7 8
M  V30 8 2 8 9
M  V30 9 1 9 10
M  V30 10 1 10 11 CFG=3
M  V30 11 1 11 12
M  V30 12 1 12 13
M  V30 13 2 13 14
M  V30 14 1 14 15
M  V30 15 2 15 16
M  V30 16 1 16 17
M  V30 17 1 17 18
M  V30 18 2 18 19
M  V30 19 1 19 20
M  V30 20 2 20 21
M  V30 21 1 21 22
M  V30 22 2 22 23
M  V30 23 1 23 24
M  V30 24 2 24 25
M  V30 25 2 17 26
M  V30 26 1 26 27
M  V30 27 1 27 28
M  V30 28 2 28 29
M  V30 29 1 10 2
M  V30 30 1 29 13
M  V30 31 1 9 4
M  V30 32 1 12 10
M  V30 33 1 28 16
M  V30 34 1 25 20
M  V30 35 1 3 30
M  V30 36 1 5 31
M  V30 37 1 6 32
M  V30 38 1 7 33
M  V30 39 1 8 34
M  V30 40 1 11 35
M  V30 41 1 11 36
M  V30 42 1 12 37 CFG=1
M  V30 43 1 14 38
M  V30 44 1 15 39
M  V30 45 1 18 40
M  V30 46 1 19 41
M  V30 47 1 21 42
M  V30 48 1 22 43
M  V30 49 1 23 44
M  V30 50 1 25 45
M  V30 51 1 27 46
M  V30 52 1 29 47
M  V30 END BOND
M  V30 END CTAB
M  END
>  <Dataset>  (773) 
ChEMBL_Kinases

>  <Ligand_Instance>  (773) 
nan

>  <PDB_ID>  (773) 
nan

>  <Standardized_SMILES>  (773) 
O=C1Nc2ccccc2[C@]12C[C@H]2c1ccc2c(/C=C/c3cccnc3)n[nH]c2c1

>  <Name>  (773) 
nan

>  <Pocket>  (773) 
nan

>  <ATP_Site>  (773) 
nan

>  <Peripheral>  (773) 
nan

>  <Num_H_Atoms_ProtBoundConf>  (773) 
nan

>  <Num_Resolved_Atoms>  (773) 
nan

>  <Num_Not_Resolved_Atoms>  (773) 
nan

$$$$
CHEMBL3353341
     RDKit          3D

  0  0  0  0  0  0  0  0  0  0999 V3000
M  V30 BEGIN CTAB
M  V30 COUNTS 68 74 0 0 0
M  V30 BEGIN ATOM
M  V30 1 C 5.766844 -3.054429 2.012054 0
M  V30 2 O 5.333427 -2.067992 1.133550 0
M  V30 3 C 5.960704 -0.856847 0.933038 0
M  V30 4 C 7.106520 -0.590692 1.651620 0
M  V30 5 C 7.746181 0.615018 1.463003 0
M  V30 6 C 7.213848 1.513467 0.558885 0
M  V30 7 C 6.058580 1.328615 -0.211117 0
M  V30 8 C 5.497294 0.094285 0.052240 0
M  V30 9 C 5.780299 2.479177 -1.048246 0 CFG=1
M  V30 10 C 5.268060 2.450069 -2.416002 0
M  V30 11 C 4.528168 3.174478 -1.277707 0 CFG=1
M  V30 12 C 3.178532 2.768736 -0.907943 0
M  V30 13 C 2.515945 1.602880 -1.228097 0
M  V30 14 C 1.239486 1.292236 -0.821905 0
M  V30 15 C 0.551578 2.182920 -0.044764 0
M  V30 16 C -0.713199 2.072004 0.463653 0
M  V30 17 C -1.793494 1.123661 0.439046 0
M  V30 18 C -2.036535 -0.041303 -0.094877 0
M  V30 19 C -3.212994 -0.891670 -0.018965 0
M  V30 20 C -3.206096 -2.092885 -0.690092 0
M  V30 21 C -4.306525 -2.923153 -0.634370 0
M  V30 22 C -5.431013 -2.584745 0.082053 0
M  V30 23 N -6.591590 -3.380544 0.186490 0
M  V30 24 C -6.869667 -4.658326 -0.406365 0
M  V30 25 C -7.214058 -5.708879 0.590148 0
M  V30 26 N -7.400648 -5.197242 1.928060 0
M  V30 27 C -6.182542 -5.201635 2.703546 0
M  V30 28 C -8.123589 -3.966555 2.007846 0
M  V30 29 C -7.739839 -2.972537 0.970855 0
M  V30 30 N -5.411863 -1.406836 0.727802 0
M  V30 31 C -4.352418 -0.578672 0.690222 0
M  V30 32 N -0.876119 3.239470 1.154549 0
M  V30 33 N 0.212907 3.966549 1.050917 0
M  V30 34 C 1.157086 3.366285 0.309802 0
M  V30 35 C 2.438348 3.655883 -0.109202 0
M  V30 36 C 6.967294 3.357647 -0.710230 0
M  V30 37 O 7.136236 4.470782 -1.272106 0
M  V30 38 N 7.814588 2.782690 0.272916 0
M  V30 39 H 6.700042 -3.500358 1.611098 0
M  V30 40 H 4.989170 -3.864984 2.041124 0
M  V30 41 H 5.997294 -2.692362 3.032981 0
M  V30 42 H 7.486832 -1.305034 2.337791 0
M  V30 43 H 8.626352 0.777218 2.038570 0
M  V30 44 H 4.598237 -0.217675 -0.460598 0
M  V30 45 H 4.788149 1.501108 -2.751761 0
M  V30 46 H 5.673357 3.041017 -3.254702 0
M  V30 47 H 4.645157 4.302750 -1.311928 0
M  V30 48 H 3.045976 0.915167 -1.835256 0
M  V30 49 H 0.806970 0.360450 -1.119634 0
M  V30 50 H -2.703390 1.345213 0.986772 0
M  V30 51 H -1.200866 -0.387632 -0.678556 0
M  V30 52 H -2.332307 -2.399942 -1.270563 0
M  V30 53 H -4.300414 -3.854801 -1.154630 0
M  V30 54 H -7.731327 -4.597880 -1.138176 0
M  V30 55 H -5.987942 -4.990435 -0.993991 0
M  V30 56 H -8.075202 -6.299936 0.254883 0
M  V30 57 H -6.340828 -6.419653 0.672537 0
M  V30 58 H -5.383974 -5.557577 2.030740 0
M  V30 59 H -5.949767 -4.267609 3.213580 0
M  V30 60 H -6.298011 -5.986629 3.495848 0
M  V30 61 H -9.228558 -4.167091 1.971335 0
M  V30 62 H -7.894329 -3.532651 3.015482 0
M  V30 63 H -8.593008 -2.836811 0.252280 0
M  V30 64 H -7.543239 -1.996120 1.444044 0
M  V30 65 H -4.425351 0.342701 1.236749 0
M  V30 66 H 0.311351 4.897669 1.499374 0
M  V30 67 H 2.824237 4.610472 0.223501 0
M  V30 68 H 8.668431 3.238647 0.655566 0
M  V30 END ATOM
M  V30 BEGIN BOND
M  V30 1 1 1 2
M  V30 2 1 2 3
M  V30 3 2 3 4
M  V30 4 1 4 5
M  V30 5 2 5 6
M  V30 6 1 6 7
M  V30 7 2 7 8
M  V30 8 1 7 9
M  V30 9 1 9 10 CFG=3
M  V30 10 1 10 11
M  V30 11 1 11 12
M  V30 12 2 12 13
M  V30 13 1 13 14
M  V30 14 2 14 15
M  V30 15 1 15 16
M  V30 16 1 16 17
M  V30 17 2 17 18
M  V30 18 1 18 19
M  V30 19 2 19 20
M  V30 20 1 20 21
M  V30 21 2 21 22
M  V30 22 1 22 23
M  V30 23 1 23 24
M  V30 24 1 24 25
M  V30 25 1 25 26
M  V30 26 1 26 27
M  V30 27 1 26 28
M  V30 28 1 28 29
M  V30 29 1 22 30
M  V30 30 2 30 31
M  V30 31 2 16 32
M  V30 32 1 32 33
M  V30 33 1 33 34
M  V30 34 2 34 35
M  V30 35 1 9 36
M  V30 36 2 36 37
M  V30 37 1 36 38
M  V30 38 1 8 3
M  V30 39 1 11 9
M  V30 40 1 35 12
M  V30 41 1 38 6
M  V30 42 1 34 15
M  V30 43 1 31 19
M  V30 44 1 29 23
M  V30 45 1 1 39
M  V30 46 1 1 40
M  V30 47 1 1 41
M  V30 48 1 4 42
M  V30 49 1 5 43
M  V30 50 1 8 44
M  V30 51 1 10 45
M  V30 52 1 10 46
M  V30 53 1 11 47 CFG=3
M  V30 54 1 13 48
M  V30 55 1 14 49
M  V30 56 1 17 50
M  V30 57 1 18 51
M  V30 58 1 20 52
M  V30 59 1 21 53
M  V30 60 1 24 54
M  V30 61 1 24 55
M  V30 62 1 25 56
M  V30 63 1 25 57
M  V30 64 1 27 58
M  V30 65 1 27 59
M  V30 66 1 27 60
M  V30 67 1 28 61
M  V30 68 1 28 62
M  V30 69 1 29 63
M  V30 70 1 29 64
M  V30 71 1 31 65
M  V30 72 1 33 66
M  V30 73 1 35 67
M  V30 74 1 38 68
M  V30 END BOND
M  V30 END CTAB
M  END
>  <Dataset>  (774) 
ChEMBL_Kinases

>  <Ligand_Instance>  (774) 
nan

>  <PDB_ID>  (774) 
nan

>  <Standardized_SMILES>  (774) 
COc1ccc2c(c1)[C@]1(C[C@H]1c1ccc3c(/C=C/c4ccc(N5CCN(C)CC5)nc4)n[nH]c3c1)C(=O)N2

>  <Name>  (774) 
nan

>  <Pocket>  (774) 
nan

>  <ATP_Site>  (774) 
nan

>  <Peripheral>  (774) 
nan

>  <Num_H_Atoms_ProtBoundConf>  (774) 
nan

>  <Num_Resolved_Atoms>  (774) 
nan

>  <Num_Not_Resolved_Atoms>  (774) 
nan

$$$$
CHEMBL3353338
     RDKit          3D

  0  0  0  0  0  0  0  0  0  0999 V3000
M  V30 BEGIN CTAB
M  V30 COUNTS 34 38 0 0 0
M  V30 BEGIN ATOM
M  V30 1 O 2.736719 0.137725 3.644958 0
M  V30 2 C 2.201654 -0.718520 2.894187 0
M  V30 3 N 1.869505 -2.073286 3.152238 0
M  V30 4 C 1.346768 -2.597604 1.938748 0
M  V30 5 C 0.952677 -3.912224 1.805058 0
M  V30 6 C 0.496860 -4.366218 0.590477 0
M  V30 7 C 0.444330 -3.501763 -0.461756 0
M  V30 8 C 0.853375 -2.203089 -0.255393 0
M  V30 9 C 1.322441 -1.645928 0.910243 0
M  V30 10 C 1.802358 -0.396942 1.489058 0 CFG=2
M  V30 11 C 2.446578 0.657204 0.705280 0
M  V30 12 C 1.157012 0.928932 1.326098 0 CFG=1
M  V30 13 C -0.125620 1.030684 0.643853 0
M  V30 14 C -1.227615 1.284218 1.473290 0
M  V30 15 C -2.523224 1.426537 0.961844 0
M  V30 16 C -2.788458 1.325668 -0.384346 0
M  V30 17 C -3.861400 1.397442 -1.246866 0
M  V30 18 N -3.431391 1.200856 -2.504331 0
M  V30 19 N -2.124024 1.003396 -2.504206 0
M  V30 20 C -1.716657 1.076877 -1.214458 0
M  V30 21 C -0.456049 0.942538 -0.678450 0
M  V30 22 H 2.024671 -2.492448 4.091537 0
M  V30 23 H 0.964557 -4.655574 2.587499 0
M  V30 24 H 0.178956 -5.387197 0.444263 0
M  V30 25 H 0.089908 -3.839640 -1.423715 0
M  V30 26 H 0.800300 -1.569603 -1.127262 0
M  V30 27 H 3.374270 1.161635 1.104464 0
M  V30 28 H 2.561367 0.490678 -0.392189 0
M  V30 29 H 1.178678 1.571548 2.269719 0
M  V30 30 H -1.144469 1.384287 2.548315 0
M  V30 31 H -3.365813 1.621475 1.606927 0
M  V30 32 H -4.872081 1.591030 -0.855918 0
M  V30 33 H -1.571390 0.830924 -3.354489 0
M  V30 34 H 0.403602 0.752899 -1.326437 0
M  V30 END ATOM
M  V30 BEGIN BOND
M  V30 1 2 1 2
M  V30 2 1 2 3
M  V30 3 1 3 4
M  V30 4 2 4 5
M  V30 5 1 5 6
M  V30 6 2 6 7
M  V30 7 1 7 8
M  V30 8 2 8 9
M  V30 9 1 9 10
M  V30 10 1 10 11 CFG=3
M  V30 11 1 11 12
M  V30 12 1 12 13
M  V30 13 2 13 14
M  V30 14 1 14 15
M  V30 15 2 15 16
M  V30 16 1 16 17
M  V30 17 2 17 18
M  V30 18 1 18 19
M  V30 19 1 19 20
M  V30 20 2 20 21
M  V30 21 1 10 2
M  V30 22 1 21 13
M  V30 23 1 9 4
M  V30 24 1 12 10
M  V30 25 1 20 16
M  V30 26 1 3 22
M  V30 27 1 5 23
M  V30 28 1 6 24
M  V30 29 1 7 25
M  V30 30 1 8 26
M  V30 31 1 11 27
M  V30 32 1 11 28
M  V30 33 1 12 29 CFG=1
M  V30 34 1 14 30
M  V30 35 1 15 31
M  V30 36 1 17 32
M  V30 37 1 19 33
M  V30 38 1 21 34
M  V30 END BOND
M  V30 END CTAB
M  END
>  <Dataset>  (775) 
ChEMBL_Kinases

>  <Ligand_Instance>  (775) 
nan

>  <PDB_ID>  (775) 
nan

>  <Standardized_SMILES>  (775) 
O=C1Nc2ccccc2[C@]12C[C@H]2c1ccc2cn[nH]c2c1

>  <Name>  (775) 
nan

>  <Pocket>  (775) 
nan

>  <ATP_Site>  (775) 
nan

>  <Peripheral>  (775) 
nan

>  <Num_H_Atoms_ProtBoundConf>  (775) 
nan

>  <Num_Resolved_Atoms>  (775) 
nan

>  <Num_Not_Resolved_Atoms>  (775) 
nan

$$$$
CHEMBL3353337
     RDKit          3D

  0  0  0  0  0  0  0  0  0  0999 V3000
M  V30 BEGIN CTAB
M  V30 COUNTS 31 34 0 0 0
M  V30 BEGIN ATOM
M  V30 1 O -0.664040 -0.790223 2.581168 0
M  V30 2 C 0.276848 -1.479678 2.113650 0
M  V30 3 N 0.853703 -2.600290 2.769244 0
M  V30 4 C 1.869359 -3.061238 1.891911 0
M  V30 5 C 2.736865 -4.123592 2.034530 0
M  V30 6 C 3.670766 -4.448054 1.086969 0
M  V30 7 C 3.762250 -3.687666 -0.069837 0
M  V30 8 C 2.898844 -2.612057 -0.236069 0
M  V30 9 C 1.969758 -2.314250 0.739440 0
M  V30 10 C 0.935658 -1.268106 0.856077 0
M  V30 11 C 0.703546 -0.370721 -0.080749 0
M  V30 12 C -0.353679 0.621668 0.029514 0
M  V30 13 C -0.025734 1.955415 -0.099981 0
M  V30 14 C -1.069962 2.854156 -0.028468 0
M  V30 15 C -2.376399 2.460346 0.161322 0
M  V30 16 C -3.557045 3.165600 0.264232 0
M  V30 17 N -4.541541 2.257689 0.447841 0
M  V30 18 N -4.020625 1.032882 0.462607 0
M  V30 19 C -2.668007 1.115202 0.286606 0
M  V30 20 C -1.628305 0.177438 0.218044 0
M  V30 21 H 0.540177 -2.947407 3.700247 0
M  V30 22 H 2.713809 -4.762995 2.928053 0
M  V30 23 H 4.364746 -5.270519 1.161051 0
M  V30 24 H 4.478824 -3.882262 -0.870355 0
M  V30 25 H 2.925543 -1.977685 -1.129575 0
M  V30 26 H 1.283838 -0.298869 -1.013706 0
M  V30 27 H 0.995009 2.273051 -0.249377 0
M  V30 28 H -0.777318 3.896908 -0.133778 0
M  V30 29 H -3.608153 4.245394 0.199599 0
M  V30 30 H -4.539897 0.138463 0.586225 0
M  V30 31 H -1.994203 -0.822913 0.309027 0
M  V30 END ATOM
M  V30 BEGIN BOND
M  V30 1 2 1 2
M  V30 2 1 2 3
M  V30 3 1 3 4
M  V30 4 2 4 5
M  V30 5 1 5 6
M  V30 6 2 6 7
M  V30 7 1 7 8
M  V30 8 2 8 9
M  V30 9 1 9 10
M  V30 10 2 10 11
M  V30 11 1 11 12
M  V30 12 2 12 13
M  V30 13 1 13 14
M  V30 14 2 14 15
M  V30 15 1 15 16
M  V30 16 2 16 17
M  V30 17 1 17 18
M  V30 18 1 18 19
M  V30 19 2 19 20
M  V30 20 1 10 2
M  V30 21 1 20 12
M  V30 22 1 9 4
M  V30 23 1 19 15
M  V30 24 1 3 21
M  V30 25 1 5 22
M  V30 26 1 6 23
M  V30 27 1 7 24
M  V30 28 1 8 25
M  V30 29 1 11 26
M  V30 30 1 13 27
M  V30 31 1 14 28
M  V30 32 1 16 29
M  V30 33 1 18 30
M  V30 34 1 20 31
M  V30 END BOND
M  V30 END CTAB
M  END
>  <Dataset>  (776) 
ChEMBL_Kinases

>  <Ligand_Instance>  (776) 
nan

>  <PDB_ID>  (776) 
nan

>  <Standardized_SMILES>  (776) 
O=C1Nc2ccccc2/C1=C/c1ccc2cn[nH]c2c1

>  <Name>  (776) 
nan

>  <Pocket>  (776) 
nan

>  <ATP_Site>  (776) 
nan

>  <Peripheral>  (776) 
nan

>  <Num_H_Atoms_ProtBoundConf>  (776) 
nan

>  <Num_Resolved_Atoms>  (776) 
nan

>  <Num_Not_Resolved_Atoms>  (776) 
nan

$$$$
CHEMBL3353220
     RDKit          3D

  0  0  0  0  0  0  0  0  0  0999 V3000
M  V30 BEGIN CTAB
M  V30 COUNTS 49 52 0 0 0
M  V30 BEGIN ATOM
M  V30 1 C -0.221718 2.238116 2.481388 0
M  V30 2 O -1.202536 1.775304 1.574241 0
M  V30 3 C -1.546036 0.425826 1.529587 0
M  V30 4 C -0.911783 -0.449042 2.386937 0
M  V30 5 C -1.266541 -1.780231 2.324421 0
M  V30 6 N -0.668584 -2.667796 3.133798 0
M  V30 7 C -0.980842 -3.977004 3.101851 0
M  V30 8 C -1.930837 -4.529988 2.247188 0
M  V30 9 C -2.575899 -3.634963 1.384014 0
M  V30 10 C -2.207790 -2.315603 1.472747 0
M  V30 11 C -2.837689 -1.408208 0.612112 0
M  V30 12 C -2.477678 -0.078747 0.680387 0
M  V30 13 N -3.148936 0.795345 -0.256080 0
M  V30 14 C -2.243744 0.720657 -1.313347 0
M  V30 15 O -1.302590 -0.058374 -0.935097 0
M  V30 16 C -2.272278 1.360970 -2.626598 0
M  V30 17 C -3.381661 2.093323 -3.074378 0
M  V30 18 S -2.911790 2.648004 -4.742460 0
M  V30 19 C -1.286657 1.846838 -4.668611 0
M  V30 20 C -0.292488 1.827152 -5.638037 0
M  V30 21 N 0.863110 1.169086 -5.401253 0
M  V30 22 C 0.962356 0.563293 -4.198682 0
M  V30 23 N 2.059407 -0.223425 -3.678225 0
M  V30 24 C 2.760275 -1.233093 -4.409487 0
M  V30 25 C 2.489953 0.043869 -2.292359 0
M  V30 26 C 2.166621 -1.101723 -1.391179 0
M  V30 27 N 2.571276 -0.831541 -0.017480 0
M  V30 28 N -0.019877 0.618810 -3.319338 0
M  V30 29 C -1.193368 1.241270 -3.461912 0
M  V30 30 H -0.062683 3.322923 2.205890 0
M  V30 31 H 0.731792 1.750320 2.165225 0
M  V30 32 H -0.484808 2.100484 3.532201 0
M  V30 33 H -0.163479 -0.106742 3.082374 0
M  V30 34 H -0.522063 -4.724066 3.738920 0
M  V30 35 H -2.173527 -5.581849 2.226659 0
M  V30 36 H -3.325079 -3.987257 0.688794 0
M  V30 37 H -3.586311 -1.797044 -0.072209 0
M  V30 38 H -3.988831 1.430217 -0.444270 0
M  V30 39 H -4.285679 2.232779 -2.456892 0
M  V30 40 H -0.489802 2.348824 -6.556431 0
M  V30 41 H 2.052063 -1.799252 -5.060573 0
M  V30 42 H 3.549343 -0.746639 -5.010920 0
M  V30 43 H 3.225230 -1.995885 -3.744245 0
M  V30 44 H 3.612437 0.110448 -2.377081 0
M  V30 45 H 2.147377 1.017907 -1.925758 0
M  V30 46 H 2.708739 -2.017407 -1.722725 0
M  V30 47 H 1.080904 -1.333071 -1.397048 0
M  V30 48 H 3.480339 -0.325513 0.043593 0
M  V30 49 H 2.649864 -1.693575 0.560381 0
M  V30 END ATOM
M  V30 BEGIN BOND
M  V30 1 1 1 2
M  V30 2 1 2 3
M  V30 3 2 3 4
M  V30 4 1 4 5
M  V30 5 2 5 6
M  V30 6 1 6 7
M  V30 7 2 7 8
M  V30 8 1 8 9
M  V30 9 2 9 10
M  V30 10 1 10 11
M  V30 11 2 11 12
M  V30 12 1 12 13
M  V30 13 1 13 14
M  V30 14 2 14 15
M  V30 15 1 14 16
M  V30 16 2 16 17
M  V30 17 1 17 18
M  V30 18 1 18 19
M  V30 19 2 19 20
M  V30 20 1 20 21
M  V30 21 2 21 22
M  V30 22 1 22 23
M  V30 23 1 23 24
M  V30 24 1 23 25
M  V30 25 1 25 26
M  V30 26 1 26 27
M  V30 27 1 22 28
M  V30 28 2 28 29
M  V30 29 1 12 3
M  V30 30 1 29 16
M  V30 31 1 10 5
M  V30 32 1 29 19
M  V30 33 1 1 30
M  V30 34 1 1 31
M  V30 35 1 1 32
M  V30 36 1 4 33
M  V30 37 1 7 34
M  V30 38 1 8 35
M  V30 39 1 9 36
M  V30 40 1 11 37
M  V30 41 1 13 38
M  V30 42 1 17 39
M  V30 43 1 20 40
M  V30 44 1 24 41
M  V30 45 1 24 42
M  V30 46 1 24 43
M  V30 47 1 25 44
M  V30 48 1 25 45
M  V30 49 1 26 46
M  V30 50 1 26 47
M  V30 51 1 27 48
M  V30 52 1 27 49
M  V30 END BOND
M  V30 END CTAB
M  END
>  <Dataset>  (777) 
ChEMBL_Kinases

>  <Ligand_Instance>  (777) 
nan

>  <PDB_ID>  (777) 
nan

>  <Standardized_SMILES>  (777) 
COc1cc2ncccc2cc1NC(=O)c1csc2cnc(N(C)CCN)nc12

>  <Name>  (777) 
nan

>  <Pocket>  (777) 
nan

>  <ATP_Site>  (777) 
nan

>  <Peripheral>  (777) 
nan

>  <Num_H_Atoms_ProtBoundConf>  (777) 
nan

>  <Num_Resolved_Atoms>  (777) 
nan

>  <Num_Not_Resolved_Atoms>  (777) 
nan

$$$$
CHEMBL3353219
     RDKit          3D

  0  0  0  0  0  0  0  0  0  0999 V3000
M  V30 BEGIN CTAB
M  V30 COUNTS 49 52 0 0 0
M  V30 BEGIN ATOM
M  V30 1 N -1.464344 -4.079741 0.961168 0
M  V30 2 C -0.587716 -3.391711 0.040919 0
M  V30 3 C 0.867194 -3.659432 0.361357 0
M  V30 4 C 1.787897 -2.955678 -0.580656 0
M  V30 5 C 1.876287 -1.479682 -0.369128 0
M  V30 6 N 1.901797 -1.233694 1.073499 0
M  V30 7 C 2.576758 -0.028244 1.492845 0
M  V30 8 C 3.659650 -0.252834 2.338031 0
M  V30 9 C 4.397134 0.812195 2.818103 0
M  V30 10 C 4.035084 2.095748 2.440691 0
M  V30 11 Cl 4.870235 3.540439 2.965139 0
M  V30 12 C 2.952972 2.330337 1.595327 0
M  V30 13 C 2.225763 1.252995 1.124045 0
M  V30 14 N 1.108088 1.417041 0.259097 0
M  V30 15 C -0.182958 1.560214 0.864715 0
M  V30 16 O -0.371313 1.546870 2.124642 0
M  V30 17 C -1.450026 1.740137 0.122417 0
M  V30 18 C -1.662405 2.822703 -0.718595 0
M  V30 19 N -2.898740 2.692702 -1.234874 0
M  V30 20 N -3.478667 1.587604 -0.766060 0
M  V30 21 C -4.669873 0.964791 -0.924536 0
M  V30 22 C -4.970307 -0.217071 -0.266739 0
M  V30 23 O -6.234442 -0.771321 -0.507461 0
M  V30 24 C -4.052402 -0.804986 0.582475 0
M  V30 25 N -2.860332 -0.167042 0.731115 0
M  V30 26 C -2.602125 0.978873 0.077157 0
M  V30 27 C 1.360914 -1.994172 2.183126 0
M  V30 28 C 1.146108 -3.426456 1.801753 0
M  V30 29 H -1.659090 -3.573989 1.838963 0
M  V30 30 H -2.394795 -4.176498 0.479058 0
M  V30 31 H -0.861190 -3.703941 -0.978819 0
M  V30 32 H -0.756168 -2.289124 0.064503 0
M  V30 33 H 1.018452 -4.752021 0.169062 0
M  V30 34 H 1.363451 -3.109135 -1.612167 0
M  V30 35 H 2.797013 -3.407334 -0.602420 0
M  V30 36 H 1.023268 -0.927455 -0.822484 0
M  V30 37 H 2.826782 -1.079500 -0.791015 0
M  V30 38 H 4.028843 -1.203643 2.694314 0
M  V30 39 H 5.256402 0.743035 3.479687 0
M  V30 40 H 2.646919 3.314737 1.284467 0
M  V30 41 H 1.005568 1.462008 -0.793192 0
M  V30 42 H -1.050223 3.664062 -0.992297 0
M  V30 43 H -5.390176 1.413993 -1.582722 0
M  V30 44 H -7.093292 -0.233579 -0.357520 0
M  V30 45 H -4.348493 -1.731254 1.068064 0
M  V30 46 H 0.458637 -1.516912 2.615532 0
M  V30 47 H 2.133293 -1.997894 2.984690 0
M  V30 48 H 2.018432 -4.072332 2.116347 0
M  V30 49 H 0.289036 -3.811260 2.393978 0
M  V30 END ATOM
M  V30 BEGIN BOND
M  V30 1 1 1 2
M  V30 2 1 2 3
M  V30 3 1 3 4
M  V30 4 1 4 5
M  V30 5 1 5 6
M  V30 6 1 6 7
M  V30 7 2 7 8
M  V30 8 1 8 9
M  V30 9 2 9 10
M  V30 10 1 10 11
M  V30 11 1 10 12
M  V30 12 2 12 13
M  V30 13 1 13 14
M  V30 14 1 14 15
M  V30 15 2 15 16
M  V30 16 1 15 17
M  V30 17 1 17 18
M  V30 18 2 18 19
M  V30 19 1 19 20
M  V30 20 1 20 21
M  V30 21 2 21 22
M  V30 22 1 22 23
M  V30 23 1 22 24
M  V30 24 2 24 25
M  V30 25 1 25 26
M  V30 26 1 6 27
M  V30 27 1 27 28
M  V30 28 1 28 3
M  V30 29 1 13 7
M  V30 30 2 26 17
M  V30 31 1 26 20
M  V30 32 1 1 29
M  V30 33 1 1 30
M  V30 34 1 2 31
M  V30 35 1 2 32
M  V30 36 1 3 33
M  V30 37 1 4 34
M  V30 38 1 4 35
M  V30 39 1 5 36
M  V30 40 1 5 37
M  V30 41 1 8 38
M  V30 42 1 9 39
M  V30 43 1 12 40
M  V30 44 1 14 41
M  V30 45 1 18 42
M  V30 46 1 21 43
M  V30 47 1 23 44
M  V30 48 1 24 45
M  V30 49 1 27 46
M  V30 50 1 27 47
M  V30 51 1 28 48
M  V30 52 1 28 49
M  V30 END BOND
M  V30 END CTAB
M  END
>  <Dataset>  (778) 
ChEMBL_Kinases

>  <Ligand_Instance>  (778) 
nan

>  <PDB_ID>  (778) 
nan

>  <Standardized_SMILES>  (778) 
NCC1CCN(c2ccc(Cl)cc2NC(=O)c2cnn3cc(O)cnc23)CC1

>  <Name>  (778) 
nan

>  <Pocket>  (778) 
nan

>  <ATP_Site>  (778) 
nan

>  <Peripheral>  (778) 
nan

>  <Num_H_Atoms_ProtBoundConf>  (778) 
nan

>  <Num_Resolved_Atoms>  (778) 
nan

>  <Num_Not_Resolved_Atoms>  (778) 
nan

$$$$
CHEMBL3353187
     RDKit          3D

  0  0  0  0  0  0  0  0  0  0999 V3000
M  V30 BEGIN CTAB
M  V30 COUNTS 49 52 0 0 0
M  V30 BEGIN ATOM
M  V30 1 C -4.785420 -6.103564 -0.764752 0
M  V30 2 C -3.460528 -6.356960 -1.340129 0
M  V30 3 C -2.424684 -5.466808 -1.236477 0
M  V30 4 C -1.151525 -5.622923 -1.744817 0
M  V30 5 C -0.124492 -4.598875 -1.569997 0
M  V30 6 N -0.299674 -3.434335 -0.918663 0
M  V30 7 C 0.865102 -2.721081 -0.948340 0
M  V30 8 C 1.142915 -1.397662 -0.368737 0
M  V30 9 O 2.280336 -0.911514 -0.505057 0
M  V30 10 N 0.128706 -0.702378 0.327125 0
M  V30 11 C 0.313904 0.578491 0.916300 0
M  V30 12 C 1.435359 1.379689 0.945458 0
M  V30 13 N 1.181672 2.520634 1.611429 0
M  V30 14 C 2.130381 3.611182 1.845839 0
M  V30 15 C 1.455272 4.757921 2.520088 0
M  V30 16 C 1.953766 4.832653 3.951263 0
M  V30 17 O 3.316489 5.051276 4.047277 0
M  V30 18 C 4.056296 4.226086 3.222468 0
M  V30 19 C 3.198431 3.061779 2.766020 0
M  V30 20 N -0.079187 2.459116 2.005614 0
M  V30 21 C -0.635924 1.301755 1.604729 0
M  V30 22 C -2.017347 0.930009 1.881740 0
M  V30 23 N -2.889775 1.771169 2.603936 0
M  V30 24 O -2.547734 -0.139636 1.516642 0
M  V30 25 C 1.747967 -3.516967 -1.650610 0
M  V30 26 O 1.112757 -4.626936 -2.001140 0
M  V30 27 C -0.921199 -6.782867 -2.412244 0
M  V30 28 C -1.961283 -7.702871 -2.529648 0
M  V30 29 N -3.203128 -7.498305 -2.007236 0
M  V30 30 H -5.621759 -6.250431 -1.479969 0
M  V30 31 H -4.865137 -5.053566 -0.411792 0
M  V30 32 H -4.984516 -6.758976 0.092774 0
M  V30 33 H -2.641386 -4.535770 -0.690026 0
M  V30 34 H -0.782164 -1.171654 0.395608 0
M  V30 35 H 2.383459 1.172305 0.520046 0
M  V30 36 H 2.607906 3.885919 0.882952 0
M  V30 37 H 1.555635 5.711639 1.990855 0
M  V30 38 H 0.366862 4.538510 2.595838 0
M  V30 39 H 1.567060 4.013295 4.569562 0
M  V30 40 H 1.479227 5.762933 4.377730 0
M  V30 41 H 5.010602 3.880852 3.673046 0
M  V30 42 H 4.327828 4.805425 2.314349 0
M  V30 43 H 3.828137 2.297958 2.259505 0
M  V30 44 H 2.715572 2.602848 3.651581 0
M  V30 45 H -3.595449 2.490489 2.315532 0
M  V30 46 H -3.549816 2.452054 2.153079 0
M  V30 47 H 2.770255 -3.200268 -1.833969 0
M  V30 48 H 0.039415 -6.997880 -2.845220 0
M  V30 49 H -1.836282 -8.651205 -3.053961 0
M  V30 END ATOM
M  V30 BEGIN BOND
M  V30 1 1 1 2
M  V30 2 2 2 3
M  V30 3 1 3 4
M  V30 4 1 4 5
M  V30 5 2 5 6
M  V30 6 1 6 7
M  V30 7 1 7 8
M  V30 8 2 8 9
M  V30 9 1 8 10
M  V30 10 1 10 11
M  V30 11 2 11 12
M  V30 12 1 12 13
M  V30 13 1 13 14
M  V30 14 1 14 15
M  V30 15 1 15 16
M  V30 16 1 16 17
M  V30 17 1 17 18
M  V30 18 1 18 19
M  V30 19 1 13 20
M  V30 20 2 20 21
M  V30 21 1 21 22
M  V30 22 1 22 23
M  V30 23 2 22 24
M  V30 24 2 7 25
M  V30 25 1 25 26
M  V30 26 2 4 27
M  V30 27 1 27 28
M  V30 28 2 28 29
M  V30 29 1 29 2
M  V30 30 1 26 5
M  V30 31 1 21 11
M  V30 32 1 19 14
M  V30 33 1 1 30
M  V30 34 1 1 31
M  V30 35 1 1 32
M  V30 36 1 3 33
M  V30 37 1 10 34
M  V30 38 1 12 35
M  V30 39 1 14 36
M  V30 40 1 15 37
M  V30 41 1 15 38
M  V30 42 1 16 39
M  V30 43 1 16 40
M  V30 44 1 18 41
M  V30 45 1 18 42
M  V30 46 1 19 43
M  V30 47 1 19 44
M  V30 48 1 23 45
M  V30 49 1 23 46
M  V30 50 1 25 47
M  V30 51 1 27 48
M  V30 52 1 28 49
M  V30 END BOND
M  V30 END CTAB
M  END
>  <Dataset>  (779) 
ChEMBL_Kinases

>  <Ligand_Instance>  (779) 
nan

>  <PDB_ID>  (779) 
nan

>  <Standardized_SMILES>  (779) 
Cc1cc(-c2nc(C(=O)Nc3cn(C4CCOCC4)nc3C(N)=O)co2)ccn1

>  <Name>  (779) 
nan

>  <Pocket>  (779) 
nan

>  <ATP_Site>  (779) 
nan

>  <Peripheral>  (779) 
nan

>  <Num_H_Atoms_ProtBoundConf>  (779) 
nan

>  <Num_Resolved_Atoms>  (779) 
nan

>  <Num_Not_Resolved_Atoms>  (779) 
nan

$$$$
CHEMBL3352835
     RDKit          3D

  0  0  0  0  0  0  0  0  0  0999 V3000
M  V30 BEGIN CTAB
M  V30 COUNTS 54 57 0 0 0
M  V30 BEGIN ATOM
M  V30 1 C -0.850905 -1.581456 5.272962 0
M  V30 2 O 0.183548 -1.246336 4.423011 0
M  V30 3 C 0.584196 -2.343270 3.638398 0
M  V30 4 C 2.086518 -2.493869 3.730934 0
M  V30 5 C 2.693158 -1.112399 3.633076 0
M  V30 6 N 2.312567 -0.469787 2.415677 0
M  V30 7 C 3.191446 0.126391 1.444930 0
M  V30 8 N 4.537259 -0.062661 1.448419 0
M  V30 9 C 5.216610 0.582834 0.448591 0
M  V30 10 C 4.650105 1.376229 -0.516616 0
M  V30 11 C 3.270193 1.543310 -0.481702 0
M  V30 12 N 2.488634 2.313924 -1.389921 0
M  V30 13 C 1.757832 1.356524 -2.166336 0
M  V30 14 C 0.524279 1.026126 -1.656267 0
M  V30 15 C -0.339787 0.125911 -2.248005 0
M  V30 16 N -1.598749 -0.190340 -1.703452 0
M  V30 17 C -2.644919 -1.010384 -2.096686 0
M  V30 18 O -2.391709 -1.594519 -3.192170 0
M  V30 19 C -3.927956 -1.308244 -1.510790 0
M  V30 20 C -4.393981 -1.004751 -0.260176 0
M  V30 21 Cl -3.332910 -0.226767 0.885658 0
M  V30 22 C -5.638502 -1.259300 0.253496 0
M  V30 23 C -6.533435 -1.902043 -0.595755 0
M  V30 24 C -6.154980 -2.245802 -1.865172 0
M  V30 25 C -4.889106 -1.946762 -2.281385 0
M  V30 26 Cl -4.511373 -2.442575 -3.938476 0
M  V30 27 C 0.187369 -0.396317 -3.405784 0
M  V30 28 C 1.409908 -0.116615 -3.977055 0
M  V30 29 N 2.161351 0.777418 -3.306188 0
M  V30 30 N 2.655291 0.894685 0.509442 0
M  V30 31 C 0.881601 -0.452450 2.166572 0
M  V30 32 C 0.324467 -1.880875 2.191801 0
M  V30 33 H -0.647249 -2.377874 5.991358 0
M  V30 34 H -1.787466 -1.835232 4.703415 0
M  V30 35 H -1.124451 -0.645103 5.838205 0
M  V30 36 H 0.017980 -3.256997 3.854489 0
M  V30 37 H 2.437518 -3.073869 2.829451 0
M  V30 38 H 2.399629 -3.014450 4.649723 0
M  V30 39 H 2.323670 -0.497642 4.500224 0
M  V30 40 H 3.796250 -1.266235 3.697604 0
M  V30 41 H 6.310507 0.432643 0.446387 0
M  V30 42 H 5.182925 1.875130 -1.291613 0
M  V30 43 H 2.464600 3.350769 -1.463859 0
M  V30 44 H 0.190451 1.497069 -0.720254 0
M  V30 45 H -1.779749 0.315829 -0.810561 0
M  V30 46 H -5.972197 -1.003041 1.244644 0
M  V30 47 H -7.532717 -2.138381 -0.280173 0
M  V30 48 H -6.878858 -2.745701 -2.501219 0
M  V30 49 H -0.360921 -1.117868 -3.993407 0
M  V30 50 H 1.772245 -0.558833 -4.891304 0
M  V30 51 H 0.398507 0.078295 3.011409 0
M  V30 52 H 0.664711 0.017103 1.202377 0
M  V30 53 H 0.865930 -2.548663 1.485941 0
M  V30 54 H -0.758379 -1.846232 2.034833 0
M  V30 END ATOM
M  V30 BEGIN BOND
M  V30 1 1 1 2
M  V30 2 1 2 3
M  V30 3 1 3 4
M  V30 4 1 4 5
M  V30 5 1 5 6
M  V30 6 1 6 7
M  V30 7 2 7 8
M  V30 8 1 8 9
M  V30 9 2 9 10
M  V30 10 1 10 11
M  V30 11 1 11 12
M  V30 12 1 12 13
M  V30 13 2 13 14
M  V30 14 1 14 15
M  V30 15 1 15 16
M  V30 16 1 16 17
M  V30 17 2 17 18
M  V30 18 1 17 19
M  V30 19 2 19 20
M  V30 20 1 20 21
M  V30 21 1 20 22
M  V30 22 2 22 23
M  V30 23 1 23 24
M  V30 24 2 24 25
M  V30 25 1 25 26
M  V30 26 2 15 27
M  V30 27 1 27 28
M  V30 28 2 28 29
M  V30 29 2 11 30
M  V30 30 1 6 31
M  V30 31 1 31 32
M  V30 32 1 32 3
M  V30 33 1 30 7
M  V30 34 1 29 13
M  V30 35 1 25 19
M  V30 36 1 1 33
M  V30 37 1 1 34
M  V30 38 1 1 35
M  V30 39 1 3 36
M  V30 40 1 4 37
M  V30 41 1 4 38
M  V30 42 1 5 39
M  V30 43 1 5 40
M  V30 44 1 9 41
M  V30 45 1 10 42
M  V30 46 1 12 43
M  V30 47 1 14 44
M  V30 48 1 16 45
M  V30 49 1 22 46
M  V30 50 1 23 47
M  V30 51 1 24 48
M  V30 52 1 27 49
M  V30 53 1 28 50
M  V30 54 1 31 51
M  V30 55 1 31 52
M  V30 56 1 32 53
M  V30 57 1 32 54
M  V30 END BOND
M  V30 END CTAB
M  END
>  <Dataset>  (780) 
ChEMBL_Kinases

>  <Ligand_Instance>  (780) 
nan

>  <PDB_ID>  (780) 
nan

>  <Standardized_SMILES>  (780) 
COC1CCN(c2nccc(Nc3cc(NC(=O)c4c(Cl)cccc4Cl)ccn3)n2)CC1

>  <Name>  (780) 
nan

>  <Pocket>  (780) 
nan

>  <ATP_Site>  (780) 
nan

>  <Peripheral>  (780) 
nan

>  <Num_H_Atoms_ProtBoundConf>  (780) 
nan

>  <Num_Resolved_Atoms>  (780) 
nan

>  <Num_Not_Resolved_Atoms>  (780) 
nan

$$$$
CHEMBL3351064
     RDKit          3D

  0  0  0  0  0  0  0  0  0  0999 V3000
M  V30 BEGIN CTAB
M  V30 COUNTS 34 36 0 0 0
M  V30 BEGIN ATOM
M  V30 1 C -2.900270 -1.282676 2.711035 0
M  V30 2 N -2.302372 -2.100403 1.712175 0
M  V30 3 C -1.161795 -2.841609 2.076641 0
M  V30 4 C 0.094642 -2.620030 1.320231 0
M  V30 5 N -0.111455 -1.637697 0.275692 0
M  V30 6 C 0.695452 -0.520612 -0.077610 0
M  V30 7 C 1.154577 -0.581922 -1.395761 0
M  V30 8 C 1.954206 0.423567 -1.910176 0
M  V30 9 C 2.321978 1.518855 -1.133037 0
M  V30 10 N 3.133439 2.598967 -1.559044 0 CHG=1 VAL=4
M  V30 11 O 3.925588 2.263707 -2.467523 0
M  V30 12 O 3.086074 3.876677 -1.059028 0 CHG=-1 VAL=1
M  V30 13 C 1.859776 1.563513 0.166656 0
M  V30 14 N 1.971153 2.405218 1.219459 0
M  V30 15 O 1.303983 1.942327 2.251193 0
M  V30 16 N 0.730337 0.801049 1.947270 0 CHG=1 VAL=4
M  V30 17 O 0.027533 0.110561 2.709734 0
M  V30 18 C 1.062206 0.565015 0.686698 0
M  V30 19 C -1.308797 -1.831980 -0.521292 0
M  V30 20 C -2.506515 -1.748266 0.363361 0
M  V30 21 H -2.297855 -1.343903 3.638805 0
M  V30 22 H -3.933132 -1.683868 2.913662 0
M  V30 23 H -2.958680 -0.221671 2.416592 0
M  V30 24 H -0.926128 -2.556487 3.149039 0
M  V30 25 H -1.359463 -3.952993 2.172035 0
M  V30 26 H 0.379912 -3.586614 0.810911 0
M  V30 27 H 0.970964 -2.355029 1.957394 0
M  V30 28 H 0.929704 -1.384039 -2.083423 0
M  V30 29 H 2.338042 0.420608 -2.934888 0
M  V30 30 H 2.519641 3.305828 1.204963 0
M  V30 31 H -1.184110 -2.865784 -0.961111 0
M  V30 32 H -1.358106 -1.162822 -1.398825 0
M  V30 33 H -3.306981 -2.390571 -0.095470 0
M  V30 34 H -2.845151 -0.670400 0.351884 0
M  V30 END ATOM
M  V30 BEGIN BOND
M  V30 1 1 1 2
M  V30 2 1 2 3
M  V30 3 1 3 4
M  V30 4 1 4 5
M  V30 5 1 5 6
M  V30 6 2 6 7
M  V30 7 1 7 8
M  V30 8 2 8 9
M  V30 9 1 9 10
M  V30 10 2 10 11
M  V30 11 1 10 12
M  V30 12 1 9 13
M  V30 13 1 13 14
M  V30 14 1 14 15
M  V30 15 1 15 16
M  V30 16 2 16 17
M  V30 17 1 16 18
M  V30 18 1 5 19
M  V30 19 1 19 20
M  V30 20 1 20 2
M  V30 21 1 18 6
M  V30 22 2 18 13
M  V30 23 1 1 21
M  V30 24 1 1 22
M  V30 25 1 1 23
M  V30 26 1 3 24
M  V30 27 1 3 25
M  V30 28 1 4 26
M  V30 29 1 4 27
M  V30 30 1 7 28
M  V30 31 1 8 29
M  V30 32 1 14 30
M  V30 33 1 19 31
M  V30 34 1 19 32
M  V30 35 1 20 33
M  V30 36 1 20 34
M  V30 END BOND
M  V30 END CTAB
M  END
>  <Dataset>  (781) 
ChEMBL_Kinases

>  <Ligand_Instance>  (781) 
nan

>  <PDB_ID>  (781) 
nan

>  <Standardized_SMILES>  (781) 
CN1CCN(c2ccc([N+](=O)[O-])c3[nH]o[n+](=O)c23)CC1

>  <Name>  (781) 
nan

>  <Pocket>  (781) 
nan

>  <ATP_Site>  (781) 
nan

>  <Peripheral>  (781) 
nan

>  <Num_H_Atoms_ProtBoundConf>  (781) 
nan

>  <Num_Resolved_Atoms>  (781) 
nan

>  <Num_Not_Resolved_Atoms>  (781) 
nan

$$$$
CHEMBL3351063
     RDKit          3D

  0  0  0  0  0  0  0  0  0  0999 V3000
M  V30 BEGIN CTAB
M  V30 COUNTS 64 67 0 0 0
M  V30 BEGIN ATOM
M  V30 1 C 4.490672 0.134492 4.931676 0
M  V30 2 N 4.346595 -1.116960 4.182688 0
M  V30 3 C 5.181905 -2.267692 4.465546 0
M  V30 4 C 3.363155 -1.185023 3.163280 0
M  V30 5 C 3.202246 -2.346236 2.440910 0
M  V30 6 C 2.252849 -2.420711 1.451900 0
M  V30 7 C 1.409425 -1.400626 1.098012 0
M  V30 8 C 0.337136 -1.273253 0.156379 0
M  V30 9 C 0.272577 -0.282084 -0.741198 0
M  V30 10 C -0.816436 -0.129948 -1.714938 0
M  V30 11 C -0.920811 0.812411 -2.631210 0
M  V30 12 C 0.140069 1.807858 -2.697937 0
M  V30 13 N 0.070913 2.736373 -3.574595 0 CHG=1 VAL=4
M  V30 14 C 1.148796 3.736885 -3.632585 0
M  V30 15 C -1.040078 2.813245 -4.498083 0
M  V30 16 C 1.258960 1.727694 -1.766509 0
M  V30 17 C 1.290295 0.750349 -0.875484 0
M  V30 18 C -0.833632 -2.141339 0.108810 0
M  V30 19 C -0.951546 -3.441216 -0.288975 0
M  V30 20 O 0.186814 -4.055643 -0.773354 0
M  V30 21 C -2.126296 -4.144250 -0.230848 0
M  V30 22 S -2.113445 -5.818933 -0.782555 0
M  V30 23 O -1.708712 -5.882139 -2.238320 0
M  V30 24 O -1.083325 -6.632821 -0.045427 0
M  V30 25 O -3.631819 -6.503326 -0.633794 0 CHG=-1 VAL=1
M  V30 26 C -3.284741 -3.576999 0.239518 0
M  V30 27 C -3.206962 -2.268830 0.649890 0
M  V30 28 C -4.393041 -1.744761 1.124778 0
M  V30 29 C -4.413506 -0.441558 1.571492 0
M  V30 30 S -5.890894 0.264709 2.181016 0
M  V30 31 O -5.592903 1.332083 3.210339 0
M  V30 32 O -6.729531 -0.761267 2.900396 0
M  V30 33 O -6.724816 0.986791 0.935553 0
M  V30 34 C -3.268504 0.286785 1.531494 0
M  V30 35 C -2.112072 -0.255609 1.057522 0
M  V30 36 C -2.018344 -1.569110 0.587966 0
M  V30 37 C 1.590257 -0.227008 1.846882 0
M  V30 38 C 2.547345 -0.116326 2.860669 0
M  V30 39 H 3.535496 0.416542 5.429496 0
M  V30 40 H 4.753316 0.971631 4.253012 0
M  V30 41 H 5.272293 -0.034017 5.700636 0
M  V30 42 H 6.012933 -2.404989 3.758826 0
M  V30 43 H 5.639835 -2.195975 5.486965 0
M  V30 44 H 4.586296 -3.209836 4.484429 0
M  V30 45 H 3.794477 -3.235495 2.605706 0
M  V30 46 H 2.125239 -3.323504 0.883096 0
M  V30 47 H -1.619397 -0.850384 -1.708553 0
M  V30 48 H -1.748598 0.858116 -3.309141 0
M  V30 49 H 2.093866 3.327736 -3.987845 0
M  V30 50 H 1.183872 4.193073 -2.617924 0
M  V30 51 H 0.869394 4.566905 -4.314602 0
M  V30 52 H -1.177470 1.893456 -5.097478 0
M  V30 53 H -0.866900 3.658196 -5.195148 0
M  V30 54 H -2.009314 2.961774 -3.939199 0
M  V30 55 H 2.004325 2.484232 -1.864467 0
M  V30 56 H 2.156177 0.782402 -0.265538 0
M  V30 57 H 0.775996 -3.685001 -1.499657 0
M  V30 58 H -4.164772 -4.174192 0.259396 0
M  V30 59 H -5.311941 -2.311708 1.163101 0
M  V30 60 H -6.143002 1.170737 0.140451 0
M  V30 61 H -3.298763 1.316972 1.888531 0
M  V30 62 H -1.255033 0.366873 1.063745 0
M  V30 63 H 1.046635 0.730658 1.783740 0
M  V30 64 H 2.726909 0.754412 3.461233 0
M  V30 END ATOM
M  V30 BEGIN BOND
M  V30 1 1 1 2
M  V30 2 1 2 3
M  V30 3 1 2 4
M  V30 4 2 4 5
M  V30 5 1 5 6
M  V30 6 2 6 7
M  V30 7 1 7 8
M  V30 8 2 8 9 CFG=2
M  V30 9 1 9 10
M  V30 10 2 10 11
M  V30 11 1 11 12
M  V30 12 2 12 13 CFG=2
M  V30 13 1 13 14
M  V30 14 1 13 15
M  V30 15 1 12 16
M  V30 16 2 16 17
M  V30 17 1 8 18
M  V30 18 2 18 19
M  V30 19 1 19 20
M  V30 20 1 19 21
M  V30 21 1 21 22
M  V30 22 2 22 23
M  V30 23 2 22 24
M  V30 24 1 22 25
M  V30 25 2 21 26
M  V30 26 1 26 27
M  V30 27 2 27 28
M  V30 28 1 28 29
M  V30 29 1 29 30
M  V30 30 2 30 31
M  V30 31 2 30 32
M  V30 32 1 30 33
M  V30 33 2 29 34
M  V30 34 1 34 35
M  V30 35 2 35 36
M  V30 36 1 7 37
M  V30 37 2 37 38
M  V30 38 1 38 4
M  V30 39 1 17 9
M  V30 40 1 36 18
M  V30 41 1 36 27
M  V30 42 1 1 39
M  V30 43 1 1 40
M  V30 44 1 1 41
M  V30 45 1 3 42
M  V30 46 1 3 43
M  V30 47 1 3 44
M  V30 48 1 5 45
M  V30 49 1 6 46
M  V30 50 1 10 47
M  V30 51 1 11 48
M  V30 52 1 14 49
M  V30 53 1 14 50
M  V30 54 1 14 51
M  V30 55 1 15 52
M  V30 56 1 15 53
M  V30 57 1 15 54
M  V30 58 1 16 55
M  V30 59 1 17 56
M  V30 60 1 20 57
M  V30 61 1 26 58
M  V30 62 1 28 59
M  V30 63 1 33 60
M  V30 64 1 34 61
M  V30 65 1 35 62
M  V30 66 1 37 63
M  V30 67 1 38 64
M  V30 END BOND
M  V30 END CTAB
M  END
>  <Dataset>  (782) 
ChEMBL_Kinases

>  <Ligand_Instance>  (782) 
nan

>  <PDB_ID>  (782) 
nan

>  <Standardized_SMILES>  (782) 
CN(C)c1ccc(C(=C2C=CC(=[N+](C)C)C=C2)c2c(O)c(S(=O)(=O)[O-])cc3cc(S(=O)(=O)O)ccc23)cc1

>  <Name>  (782) 
nan

>  <Pocket>  (782) 
nan

>  <ATP_Site>  (782) 
nan

>  <Peripheral>  (782) 
nan

>  <Num_H_Atoms_ProtBoundConf>  (782) 
nan

>  <Num_Resolved_Atoms>  (782) 
nan

>  <Num_Not_Resolved_Atoms>  (782) 
nan

$$$$
CHEMBL3348846
     RDKit          3D

  0  0  0  0  0  0  0  0  0  0999 V3000
M  V30 BEGIN CTAB
M  V30 COUNTS 67 70 0 0 0
M  V30 BEGIN ATOM
M  V30 1 C 5.573782 -0.544234 7.781758 0
M  V30 2 O 5.030295 0.475069 6.960171 0
M  V30 3 C 5.546084 0.713529 5.680187 0
M  V30 4 C 4.914796 1.732603 5.007558 0
M  V30 5 C 5.283250 2.112176 3.736296 0
M  V30 6 C 4.769766 3.116279 2.803866 0
M  V30 7 C 3.861102 2.609394 1.750119 0
M  V30 8 C 2.601191 1.995724 2.174642 0
M  V30 9 C 1.844539 1.521322 1.080963 0
M  V30 10 C 0.677190 0.947465 1.529716 0
M  V30 11 N -0.388971 0.331982 0.822023 0
M  V30 12 C -1.579670 0.885604 0.257841 0
M  V30 13 O -1.647901 2.124800 0.447229 0
M  V30 14 C -2.525710 0.045798 -0.426420 0
M  V30 15 C -2.390237 -1.320871 -0.544357 0
M  V30 16 C -3.299513 -2.114427 -1.208825 0
M  V30 17 C -4.409773 -1.519536 -1.791981 0
M  V30 18 N -5.385562 -2.279506 -2.493048 0
M  V30 19 C -6.550478 -1.812697 -3.220866 0
M  V30 20 C -6.728994 -2.568838 -4.514503 0 CFG=1
M  V30 21 C -5.639698 -2.273296 -5.517896 0
M  V30 22 N -6.779028 -3.989907 -4.339553 0
M  V30 23 C -6.457910 -4.435001 -3.013461 0 CFG=1
M  V30 24 C -6.146476 -5.915312 -3.079061 0
M  V30 25 C -5.234481 -3.730566 -2.506355 0
M  V30 26 C -4.581010 -0.135661 -1.692850 0
M  V30 27 C -3.621339 0.603534 -1.005648 0
M  V30 28 N 0.710848 1.064916 2.879437 0
M  V30 29 N 1.833578 1.674070 3.219669 0
M  V30 30 C 6.348946 1.363964 3.213866 0
M  V30 31 C 7.030600 0.324842 3.835920 0
M  V30 32 O 8.070253 -0.450122 3.399581 0
M  V30 33 C 8.692790 -0.344388 2.160693 0
M  V30 34 C 6.585434 0.021614 5.105295 0
M  V30 35 H 6.666794 -0.406564 7.931925 0
M  V30 36 H 5.411289 -1.552522 7.357268 0
M  V30 37 H 5.115962 -0.495041 8.779026 0
M  V30 38 H 4.106125 2.325148 5.405298 0
M  V30 39 H 5.655691 3.570381 2.266989 0
M  V30 40 H 4.283661 3.971689 3.340993 0
M  V30 41 H 3.693560 3.431036 1.003457 0
M  V30 42 H 4.427716 1.831714 1.130038 0
M  V30 43 H 1.975592 1.510260 -0.002584 0
M  V30 44 H -0.140788 -0.669354 0.778958 0
M  V30 45 H -1.553149 -1.825969 -0.113369 0
M  V30 46 H -3.164921 -3.168445 -1.281451 0
M  V30 47 H -7.468104 -1.867605 -2.630885 0
M  V30 48 H -6.351173 -0.758076 -3.501105 0
M  V30 49 H -7.688938 -2.240055 -4.958188 0
M  V30 50 H -4.789477 -1.734650 -5.007936 0
M  V30 51 H -5.964821 -1.686401 -6.383906 0
M  V30 52 H -5.154422 -3.209508 -5.906943 0
M  V30 53 H -7.565236 -4.459707 -4.786375 0
M  V30 54 H -7.342944 -4.305164 -2.382056 0
M  V30 55 H -6.999561 -6.480213 -3.522282 0
M  V30 56 H -5.217466 -6.044665 -3.670387 0
M  V30 57 H -5.886199 -6.247932 -2.051187 0
M  V30 58 H -5.009774 -4.013178 -1.459753 0
M  V30 59 H -4.406766 -3.969168 -3.175322 0
M  V30 60 H -5.413817 0.406240 -2.115065 0
M  V30 61 H -3.758818 1.669157 -0.932406 0
M  V30 62 H 2.191979 1.937419 4.152153 0
M  V30 63 H 6.744071 1.563948 2.206665 0
M  V30 64 H 8.776968 -1.375692 1.728031 0
M  V30 65 H 9.719978 0.073139 2.206701 0
M  V30 66 H 8.089625 0.258659 1.484298 0
M  V30 67 H 7.020429 -0.769421 5.722167 0
M  V30 END ATOM
M  V30 BEGIN BOND
M  V30 1 1 1 2
M  V30 2 1 2 3
M  V30 3 2 3 4
M  V30 4 1 4 5
M  V30 5 1 5 6
M  V30 6 1 6 7
M  V30 7 1 7 8
M  V30 8 2 8 9
M  V30 9 1 9 10
M  V30 10 1 10 11
M  V30 11 1 11 12
M  V30 12 2 12 13
M  V30 13 1 12 14
M  V30 14 2 14 15
M  V30 15 1 15 16
M  V30 16 2 16 17
M  V30 17 1 17 18
M  V30 18 1 18 19
M  V30 19 1 19 20
M  V30 20 1 20 21
M  V30 21 1 20 22
M  V30 22 1 22 23
M  V30 23 1 23 24
M  V30 24 1 23 25
M  V30 25 1 17 26
M  V30 26 2 26 27
M  V30 27 2 10 28
M  V30 28 1 28 29
M  V30 29 2 5 30
M  V30 30 1 30 31
M  V30 31 1 31 32
M  V30 32 1 32 33
M  V30 33 2 31 34
M  V30 34 1 34 3
M  V30 35 1 29 8
M  V30 36 1 27 14
M  V30 37 1 25 18
M  V30 38 1 1 35
M  V30 39 1 1 36
M  V30 40 1 1 37
M  V30 41 1 4 38
M  V30 42 1 6 39
M  V30 43 1 6 40
M  V30 44 1 7 41
M  V30 45 1 7 42
M  V30 46 1 9 43
M  V30 47 1 11 44
M  V30 48 1 15 45
M  V30 49 1 16 46
M  V30 50 1 19 47
M  V30 51 1 19 48
M  V30 52 1 20 49 CFG=3
M  V30 53 1 21 50
M  V30 54 1 21 51
M  V30 55 1 21 52
M  V30 56 1 22 53
M  V30 57 1 23 54 CFG=1
M  V30 58 1 24 55
M  V30 59 1 24 56
M  V30 60 1 24 57
M  V30 61 1 25 58
M  V30 62 1 25 59
M  V30 63 1 26 60
M  V30 64 1 27 61
M  V30 65 1 29 62
M  V30 66 1 30 63
M  V30 67 1 33 64
M  V30 68 1 33 65
M  V30 69 1 33 66
M  V30 70 1 34 67
M  V30 END BOND
M  V30 END CTAB
M  END
>  <Dataset>  (783) 
ChEMBL_Kinases

>  <Ligand_Instance>  (783) 
nan

>  <PDB_ID>  (783) 
nan

>  <Standardized_SMILES>  (783) 
COc1cc(CCc2cc(NC(=O)c3ccc(N4C[C@@H](C)N[C@@H](C)C4)cc3)n[nH]2)cc(OC)c1

>  <Name>  (783) 
FEXAGRATINIB

>  <Pocket>  (783) 
nan

>  <ATP_Site>  (783) 
nan

>  <Peripheral>  (783) 
nan

>  <Num_H_Atoms_ProtBoundConf>  (783) 
nan

>  <Num_Resolved_Atoms>  (783) 
nan

>  <Num_Not_Resolved_Atoms>  (783) 
nan

$$$$
CHEMBL3348824
     RDKit          3D

  0  0  0  0  0  0  0  0  0  0999 V3000
M  V30 BEGIN CTAB
M  V30 COUNTS 59 59 0 0 0
M  V30 BEGIN ATOM
M  V30 1 C 2.567235 -1.861844 7.028090 0
M  V30 2 C 2.439493 -2.223479 5.541945 0
M  V30 3 C 1.029794 -1.966662 5.080860 0
M  V30 4 C 0.817651 -2.300228 3.609386 0
M  V30 5 C 1.731026 -1.467797 2.737107 0
M  V30 6 C 1.463641 -1.836093 1.287603 0 CFG=2
M  V30 7 O 1.733367 -3.193267 1.135575 0
M  V30 8 C 2.257795 -0.975026 0.362945 0
M  V30 9 C 1.725266 0.233755 0.083654 0
M  V30 10 C 0.486969 0.938444 0.492273 0 CFG=1
M  V30 11 C 0.768627 2.190212 1.267888 0 CFG=2
M  V30 12 O 0.239095 2.086260 2.545993 0
M  V30 13 C 0.100170 3.288812 0.453257 0
M  V30 14 C 0.115020 2.734283 -0.953403 0
M  V30 15 O 0.484109 3.372659 -1.927315 0
M  V30 16 C -0.420154 1.360538 -0.596472 0 CFG=1
M  V30 17 C -0.442146 0.594641 -1.856697 0
M  V30 18 C -0.826449 -0.837102 -1.818334 0
M  V30 19 C -0.821573 -1.505069 -3.171382 0
M  V30 20 C -1.733524 -0.920281 -4.168881 0
M  V30 21 C -3.186535 -0.892284 -3.883714 0
M  V30 22 C -3.907759 -2.167179 -3.718687 0
M  V30 23 C -3.423347 -3.008636 -2.613186 0
M  V30 24 O -3.099253 -4.219943 -2.862501 0
M  V30 25 O -2.982182 -3.708006 -1.504279 0
M  V30 26 H 1.541544 -1.803687 7.476121 0
M  V30 27 H 3.115021 -2.676031 7.544865 0
M  V30 28 H 3.141172 -0.938595 7.160730 0
M  V30 29 H 3.129074 -1.542384 4.996800 0
M  V30 30 H 2.718210 -3.273453 5.369374 0
M  V30 31 H 0.296957 -2.590876 5.635696 0
M  V30 32 H 0.759015 -0.893515 5.170178 0
M  V30 33 H 1.123788 -3.374110 3.484898 0
M  V30 34 H -0.244735 -2.152608 3.374427 0
M  V30 35 H 2.785360 -1.755493 3.013256 0
M  V30 36 H 1.642855 -0.388411 2.926139 0
M  V30 37 H 0.398701 -1.687866 1.056382 0
M  V30 38 H 2.335569 -3.303968 0.353527 0
M  V30 39 H 3.201635 -1.110632 -0.153267 0
M  V30 40 H 2.141733 0.999143 -0.559489 0
M  V30 41 H -0.131692 0.269992 1.168527 0
M  V30 42 H 1.867111 2.372636 1.354948 0
M  V30 43 H 0.701930 2.707228 3.187941 0
M  V30 44 H 0.709763 4.193829 0.536406 0
M  V30 45 H -0.928622 3.413397 0.799707 0
M  V30 46 H -1.433144 1.555158 -0.168735 0
M  V30 47 H 0.576955 0.735048 -2.331091 0
M  V30 48 H -1.105968 1.169750 -2.569550 0
M  V30 49 H -1.776858 -1.045045 -1.324787 0
M  V30 50 H -0.065739 -1.397923 -1.234300 0
M  V30 51 H -1.023721 -2.571474 -3.035933 0
M  V30 52 H 0.214608 -1.464667 -3.611033 0
M  V30 53 H -1.627184 -1.585941 -5.090741 0
M  V30 54 H -1.361818 0.067119 -4.581915 0
M  V30 55 H -3.660261 -0.351563 -4.765622 0
M  V30 56 H -3.420909 -0.207875 -3.023456 0
M  V30 57 H -3.951187 -2.771563 -4.679030 0
M  V30 58 H -4.998119 -1.967259 -3.473981 0
M  V30 59 H -3.118508 -3.360007 -0.549168 0
M  V30 END ATOM
M  V30 BEGIN BOND
M  V30 1 1 1 2
M  V30 2 1 2 3
M  V30 3 1 3 4
M  V30 4 1 4 5
M  V30 5 1 5 6
M  V30 6 1 6 7
M  V30 7 1 6 8
M  V30 8 2 8 9 CFG=2
M  V30 9 1 9 10
M  V30 10 1 10 11
M  V30 11 1 11 12
M  V30 12 1 11 13
M  V30 13 1 13 14
M  V30 14 2 14 15
M  V30 15 1 14 16
M  V30 16 1 16 17
M  V30 17 1 17 18
M  V30 18 1 18 19
M  V30 19 1 19 20
M  V30 20 1 20 21
M  V30 21 1 21 22
M  V30 22 1 22 23
M  V30 23 2 23 24
M  V30 24 1 23 25
M  V30 25 1 16 10
M  V30 26 1 1 26
M  V30 27 1 1 27
M  V30 28 1 1 28
M  V30 29 1 2 29
M  V30 30 1 2 30
M  V30 31 1 3 31
M  V30 32 1 3 32
M  V30 33 1 4 33
M  V30 34 1 4 34
M  V30 35 1 5 35
M  V30 36 1 5 36
M  V30 37 1 6 37 CFG=3
M  V30 38 1 7 38
M  V30 39 1 8 39
M  V30 40 1 9 40
M  V30 41 1 10 41 CFG=1
M  V30 42 1 11 42 CFG=1
M  V30 43 1 12 43
M  V30 44 1 13 44
M  V30 45 1 13 45
M  V30 46 1 16 46 CFG=1
M  V30 47 1 17 47
M  V30 48 1 17 48
M  V30 49 1 18 49
M  V30 50 1 18 50
M  V30 51 1 19 51
M  V30 52 1 19 52
M  V30 53 1 20 53
M  V30 54 1 20 54
M  V30 55 1 21 55
M  V30 56 1 21 56
M  V30 57 1 22 57
M  V30 58 1 22 58
M  V30 59 1 25 59
M  V30 END BOND
M  V30 END CTAB
M  END
>  <Dataset>  (784) 
ChEMBL_Kinases

>  <Ligand_Instance>  (784) 
nan

>  <PDB_ID>  (784) 
nan

>  <Standardized_SMILES>  (784) 
CCCCC[C@H](O)C=C[C@H]1[C@H](O)CC(=O)[C@H]1CCCCCCC(=O)O

>  <Name>  (784) 
nan

>  <Pocket>  (784) 
nan

>  <ATP_Site>  (784) 
nan

>  <Peripheral>  (784) 
nan

>  <Num_H_Atoms_ProtBoundConf>  (784) 
nan

>  <Num_Resolved_Atoms>  (784) 
nan

>  <Num_Not_Resolved_Atoms>  (784) 
nan

$$$$
CHEMBL3355035
     RDKit          3D

  0  0  0  0  0  0  0  0  0  0999 V3000
M  V30 BEGIN CTAB
M  V30 COUNTS 52 56 0 0 0
M  V30 BEGIN ATOM
M  V30 1 C 4.489594 -2.121712 5.234552 0
M  V30 2 O 4.585338 -1.499182 3.988698 0
M  V30 3 C 4.138954 -0.243728 3.668671 0
M  V30 4 C 3.510409 0.611365 4.563297 0
M  V30 5 C 3.061507 1.882816 4.228307 0
M  V30 6 C 3.260244 2.308756 2.919080 0
M  V30 7 C 2.819647 3.614364 2.505099 0
M  V30 8 N 2.458599 4.665977 2.164429 0
M  V30 9 C 3.882475 1.480188 2.007021 0
M  V30 10 S 4.102561 2.076320 0.373685 0
M  V30 11 O 4.930991 3.344770 0.444958 0
M  V30 12 O 4.918708 1.090201 -0.376730 0
M  V30 13 N 2.613866 2.455834 -0.388265 0
M  V30 14 C 1.621735 1.493128 -0.620205 0
M  V30 15 C 1.935654 0.239827 -1.134939 0
M  V30 16 C 0.977883 -0.744138 -1.379472 0
M  V30 17 C -0.322495 -0.401420 -1.077757 0
M  V30 18 C -1.389658 -1.397740 -1.312511 0
M  V30 19 N -2.680779 -1.098243 -1.028607 0
M  V30 20 C -3.693079 -1.995590 -1.232990 0
M  V30 21 C -4.978378 -1.444410 -0.801835 0
M  V30 22 C -4.979923 -1.086150 0.703475 0
M  V30 23 C -5.915689 -2.094271 0.110973 0
M  V30 24 C -3.316648 -3.199266 -1.738509 0
M  V30 25 C -4.178199 -4.233139 -2.031250 0
M  V30 26 N -5.588822 -4.318557 -1.903335 0
M  V30 27 N -3.381716 -5.221378 -2.516848 0
M  V30 28 N -2.105631 -4.803693 -2.517876 0
M  V30 29 C -2.019582 -3.548179 -2.041675 0
M  V30 30 N -1.079059 -2.614701 -1.812955 0
M  V30 31 C -0.696728 0.823574 -0.565709 0
M  V30 32 C 0.284013 1.789068 -0.331202 0
M  V30 33 C 4.322764 0.205308 2.376622 0
M  V30 34 H 3.712231 -1.692182 5.910437 0
M  V30 35 H 5.445487 -2.101905 5.796504 0
M  V30 36 H 4.181990 -3.188891 5.061173 0
M  V30 37 H 3.354461 0.289767 5.571957 0
M  V30 38 H 2.578781 2.502613 4.969822 0
M  V30 39 H 2.375003 3.424669 -0.716552 0
M  V30 40 H 2.957041 -0.015263 -1.366596 0
M  V30 41 H 1.258057 -1.697398 -1.776485 0
M  V30 42 H -5.371332 -0.589420 -1.426399 0
M  V30 43 H -4.194374 -1.497089 1.344210 0
M  V30 44 H -5.328415 -0.098202 1.009739 0
M  V30 45 H -6.977699 -1.708448 0.077283 0
M  V30 46 H -5.879607 -3.113517 0.490887 0
M  V30 47 H -6.221698 -4.757208 -1.229223 0
M  V30 48 H -6.000750 -3.785553 -2.725520 0
M  V30 49 H -1.250027 -5.322316 -2.828482 0
M  V30 50 H -1.728288 1.078522 -0.332773 0
M  V30 51 H 0.054216 2.767966 0.068809 0
M  V30 52 H 4.810709 -0.408686 1.608702 0
M  V30 END ATOM
M  V30 BEGIN BOND
M  V30 1 1 1 2
M  V30 2 1 2 3
M  V30 3 2 3 4
M  V30 4 1 4 5
M  V30 5 2 5 6
M  V30 6 1 6 7
M  V30 7 3 7 8
M  V30 8 1 6 9
M  V30 9 1 9 10
M  V30 10 2 10 11
M  V30 11 2 10 12
M  V30 12 1 10 13
M  V30 13 1 13 14
M  V30 14 2 14 15
M  V30 15 1 15 16
M  V30 16 2 16 17
M  V30 17 1 17 18
M  V30 18 2 18 19
M  V30 19 1 19 20
M  V30 20 1 20 21
M  V30 21 1 21 22
M  V30 22 1 22 23
M  V30 23 2 20 24
M  V30 24 1 24 25
M  V30 25 1 25 26
M  V30 26 2 25 27
M  V30 27 1 27 28
M  V30 28 1 28 29
M  V30 29 2 29 30
M  V30 30 1 17 31
M  V30 31 2 31 32
M  V30 32 2 9 33
M  V30 33 1 33 3
M  V30 34 1 32 14
M  V30 35 1 30 18
M  V30 36 1 23 21
M  V30 37 1 29 24
M  V30 38 1 1 34
M  V30 39 1 1 35
M  V30 40 1 1 36
M  V30 41 1 4 37
M  V30 42 1 5 38
M  V30 43 1 13 39
M  V30 44 1 15 40
M  V30 45 1 16 41
M  V30 46 1 21 42
M  V30 47 1 22 43
M  V30 48 1 22 44
M  V30 49 1 23 45
M  V30 50 1 23 46
M  V30 51 1 26 47
M  V30 52 1 26 48
M  V30 53 1 28 49
M  V30 54 1 31 50
M  V30 55 1 32 51
M  V30 56 1 33 52
M  V30 END BOND
M  V30 END CTAB
M  END
>  <Dataset>  (785) 
ChEMBL_Kinases

>  <Ligand_Instance>  (785) 
nan

>  <PDB_ID>  (785) 
nan

>  <Standardized_SMILES>  (785) 
COc1ccc(C#N)c(S(=O)(=O)Nc2ccc(-c3nc(C4CC4)c4c(N)n[nH]c4n3)cc2)c1

>  <Name>  (785) 
nan

>  <Pocket>  (785) 
nan

>  <ATP_Site>  (785) 
nan

>  <Peripheral>  (785) 
nan

>  <Num_H_Atoms_ProtBoundConf>  (785) 
nan

>  <Num_Resolved_Atoms>  (785) 
nan

>  <Num_Not_Resolved_Atoms>  (785) 
nan

$$$$
CHEMBL3342921
     RDKit          3D

  0  0  0  0  0  0  0  0  0  0999 V3000
M  V30 BEGIN CTAB
M  V30 COUNTS 33 35 0 0 0
M  V30 BEGIN ATOM
M  V30 1 O 0.367490 -3.624640 0.486136 0
M  V30 2 C 0.195081 -2.460662 0.891460 0
M  V30 3 N 0.708457 -2.027083 2.142877 0
M  V30 4 C 1.458625 -2.861946 3.045156 0
M  V30 5 C 2.715814 -3.394700 2.464426 0
M  V30 6 C 3.005900 -4.549252 1.772466 0
M  V30 7 C 4.349730 -4.592215 1.436110 0
M  V30 8 C 4.831179 -3.402250 1.967520 0
M  V30 9 O 3.857531 -2.751943 2.546075 0
M  V30 10 C -0.557790 -1.506384 0.058698 0
M  V30 11 C -0.845505 -0.184670 0.343707 0
M  V30 12 C -1.577825 0.323424 -0.731230 0
M  V30 13 C -2.068680 1.697390 -0.800388 0
M  V30 14 C -1.849622 2.622063 0.199828 0
M  V30 15 C -2.317095 3.919600 0.126971 0
M  V30 16 C -3.039367 4.300313 -1.009248 0
M  V30 17 C -3.271933 3.378341 -2.033494 0
M  V30 18 C -2.785390 2.081106 -1.924113 0
M  V30 19 N -1.709851 -0.684828 -1.618326 0
M  V30 20 N -1.103336 -1.765228 -1.143839 0
M  V30 21 H 0.516636 -1.016407 2.415057 0
M  V30 22 H 0.819237 -3.722860 3.392043 0
M  V30 23 H 1.699992 -2.312700 3.970370 0
M  V30 24 H 2.268771 -5.294557 1.542280 0
M  V30 25 H 4.828408 -5.394160 0.890844 0
M  V30 26 H 5.878934 -3.104765 1.884301 0
M  V30 27 H -0.561239 0.363649 1.230948 0
M  V30 28 H -1.283891 2.306669 1.078960 0
M  V30 29 H -2.124908 4.614572 0.931187 0
M  V30 30 H -3.387086 5.328749 -1.023535 0
M  V30 31 H -3.837255 3.797271 -2.846597 0
M  V30 32 H -3.001963 1.431609 -2.746146 0
M  V30 33 H -2.238070 -0.495578 -2.505395 0
M  V30 END ATOM
M  V30 BEGIN BOND
M  V30 1 2 1 2
M  V30 2 1 2 3
M  V30 3 1 3 4
M  V30 4 1 4 5
M  V30 5 2 5 6
M  V30 6 1 6 7
M  V30 7 2 7 8
M  V30 8 1 8 9
M  V30 9 1 2 10
M  V30 10 1 10 11
M  V30 11 2 11 12
M  V30 12 1 12 13
M  V30 13 2 13 14
M  V30 14 1 14 15
M  V30 15 2 15 16
M  V30 16 1 16 17
M  V30 17 2 17 18
M  V30 18 1 12 19
M  V30 19 1 19 20
M  V30 20 1 9 5
M  V30 21 2 20 10
M  V30 22 1 18 13
M  V30 23 1 3 21
M  V30 24 1 4 22
M  V30 25 1 4 23
M  V30 26 1 6 24
M  V30 27 1 7 25
M  V30 28 1 8 26
M  V30 29 1 11 27
M  V30 30 1 14 28
M  V30 31 1 15 29
M  V30 32 1 16 30
M  V30 33 1 17 31
M  V30 34 1 18 32
M  V30 35 1 19 33
M  V30 END BOND
M  V30 END CTAB
M  END
>  <Dataset>  (786) 
ChEMBL_Kinases

>  <Ligand_Instance>  (786) 
nan

>  <PDB_ID>  (786) 
nan

>  <Standardized_SMILES>  (786) 
O=C(NCc1ccco1)c1cc(-c2ccccc2)[nH]n1

>  <Name>  (786) 
nan

>  <Pocket>  (786) 
nan

>  <ATP_Site>  (786) 
nan

>  <Peripheral>  (786) 
nan

>  <Num_H_Atoms_ProtBoundConf>  (786) 
nan

>  <Num_Resolved_Atoms>  (786) 
nan

>  <Num_Not_Resolved_Atoms>  (786) 
nan

$$$$
CHEMBL3342922
     RDKit          3D

  0  0  0  0  0  0  0  0  0  0999 V3000
M  V30 BEGIN CTAB
M  V30 COUNTS 43 46 0 0 0
M  V30 BEGIN ATOM
M  V30 1 C 3.536926 -8.574665 0.032663 0
M  V30 2 O 3.051406 -7.935680 -1.128993 0
M  V30 3 C 2.750855 -6.602469 -1.212132 0
M  V30 4 C 2.902722 -5.743444 -0.130577 0
M  V30 5 C 2.576587 -4.409596 -0.297324 0
M  V30 6 C 2.108109 -3.934767 -1.514341 0
M  V30 7 C 1.759939 -2.512512 -1.693521 0
M  V30 8 C 1.870353 -1.562290 -0.686276 0
M  V30 9 C 1.451987 -0.358053 -1.243964 0
M  V30 10 N 1.432272 0.852586 -0.487577 0
M  V30 11 C 0.220337 1.098561 0.187812 0
M  V30 12 O -0.705913 0.253586 0.065857 0
M  V30 13 C -0.020350 2.273245 1.017457 0
M  V30 14 C -1.216472 2.497888 1.672755 0
M  V30 15 C -1.063117 3.710314 2.355561 0
M  V30 16 C -2.115890 4.309631 3.180363 0
M  V30 17 C -3.354086 3.721601 3.351687 0
M  V30 18 C -4.333127 4.313347 4.139919 0
M  V30 19 C -4.090924 5.513215 4.776555 0
M  V30 20 C -2.852341 6.096169 4.601930 0
M  V30 21 C -1.857107 5.513911 3.812569 0
M  V30 22 N 0.184182 4.165159 2.097953 0
M  V30 23 N 0.791121 3.296480 1.299198 0
M  V30 24 N 1.117113 -0.642911 -2.537342 0
M  V30 25 O 1.306288 -1.900684 -2.768942 0
M  V30 26 C 1.948627 -4.782671 -2.613374 0
M  V30 27 C 2.283848 -6.114038 -2.415085 0
M  V30 28 H 3.933224 -9.576480 -0.232152 0
M  V30 29 H 4.379262 -8.022978 0.495745 0
M  V30 30 H 2.719314 -8.732051 0.764000 0
M  V30 31 H 3.266823 -6.103795 0.821183 0
M  V30 32 H 2.687546 -3.706981 0.543754 0
M  V30 33 H 2.211922 -1.723422 0.326641 0
M  V30 34 H 2.224011 1.547769 -0.400079 0
M  V30 35 H -2.108401 1.897644 1.687093 0
M  V30 36 H -3.562009 2.767079 2.851811 0
M  V30 37 H -5.293057 3.833051 4.257647 0
M  V30 38 H -4.860397 5.982959 5.398928 0
M  V30 39 H -2.697394 7.040408 5.118323 0
M  V30 40 H -0.906139 6.045134 3.730166 0
M  V30 41 H 0.544736 5.060618 2.495473 0
M  V30 42 H 1.584664 -4.428553 -3.568889 0
M  V30 43 H 2.167517 -6.801696 -3.263686 0
M  V30 END ATOM
M  V30 BEGIN BOND
M  V30 1 1 1 2
M  V30 2 1 2 3
M  V30 3 2 3 4
M  V30 4 1 4 5
M  V30 5 2 5 6
M  V30 6 1 6 7
M  V30 7 2 7 8
M  V30 8 1 8 9
M  V30 9 1 9 10
M  V30 10 1 10 11
M  V30 11 2 11 12
M  V30 12 1 11 13
M  V30 13 1 13 14
M  V30 14 2 14 15
M  V30 15 1 15 16
M  V30 16 2 16 17
M  V30 17 1 17 18
M  V30 18 2 18 19
M  V30 19 1 19 20
M  V30 20 2 20 21
M  V30 21 1 15 22
M  V30 22 1 22 23
M  V30 23 2 9 24
M  V30 24 1 24 25
M  V30 25 1 6 26
M  V30 26 2 26 27
M  V30 27 1 27 3
M  V30 28 1 25 7
M  V30 29 2 23 13
M  V30 30 1 21 16
M  V30 31 1 1 28
M  V30 32 1 1 29
M  V30 33 1 1 30
M  V30 34 1 4 31
M  V30 35 1 5 32
M  V30 36 1 8 33
M  V30 37 1 10 34
M  V30 38 1 14 35
M  V30 39 1 17 36
M  V30 40 1 18 37
M  V30 41 1 19 38
M  V30 42 1 20 39
M  V30 43 1 21 40
M  V30 44 1 22 41
M  V30 45 1 26 42
M  V30 46 1 27 43
M  V30 END BOND
M  V30 END CTAB
M  END
>  <Dataset>  (787) 
ChEMBL_Kinases

>  <Ligand_Instance>  (787) 
nan

>  <PDB_ID>  (787) 
nan

>  <Standardized_SMILES>  (787) 
COc1ccc(-c2cc(NC(=O)c3cc(-c4ccccc4)[nH]n3)no2)cc1

>  <Name>  (787) 
nan

>  <Pocket>  (787) 
nan

>  <ATP_Site>  (787) 
nan

>  <Peripheral>  (787) 
nan

>  <Num_H_Atoms_ProtBoundConf>  (787) 
nan

>  <Num_Resolved_Atoms>  (787) 
nan

>  <Num_Not_Resolved_Atoms>  (787) 
nan

$$$$
CHEMBL3342924
     RDKit          3D

  0  0  0  0  0  0  0  0  0  0999 V3000
M  V30 BEGIN CTAB
M  V30 COUNTS 37 40 0 0 0
M  V30 BEGIN ATOM
M  V30 1 O 2.305197 -2.029215 1.054693 0
M  V30 2 C 1.255403 -1.335816 1.061311 0
M  V30 3 N 0.264026 -1.721154 0.106882 0
M  V30 4 C 0.602230 -2.838485 -0.720901 0
M  V30 5 C 0.377517 -4.184234 -0.512641 0
M  V30 6 C 0.803756 -5.079103 -1.471913 0
M  V30 7 C 1.445988 -4.656517 -2.627451 0
M  V30 8 N 1.913898 -5.412403 -3.643426 0
M  V30 9 C 2.450029 -4.514642 -4.518861 0
M  V30 10 S 3.211669 -5.024424 -6.054677 0
M  V30 11 N 2.302190 -3.270250 -4.033285 0
M  V30 12 C 1.672963 -3.307198 -2.839442 0
M  V30 13 C 1.247585 -2.395769 -1.879097 0
M  V30 14 C 0.854163 -0.176721 1.889588 0
M  V30 15 C -0.281282 0.639255 1.957890 0
M  V30 16 C 0.017806 1.534966 2.965534 0
M  V30 17 C -0.949815 2.565627 3.333372 0
M  V30 18 C -2.202696 2.771252 2.767150 0
M  V30 19 C -3.009199 3.788876 3.220187 0
M  V30 20 C -2.623973 4.626257 4.225978 0
M  V30 21 C -1.397247 4.445603 4.799476 0
M  V30 22 C -0.565664 3.428971 4.362491 0
M  V30 23 N 1.247049 1.285898 3.477356 0
M  V30 24 N 1.734257 0.249938 2.814711 0
M  V30 25 H -0.657207 -1.251108 -0.015179 0
M  V30 26 H -0.122960 -4.382587 0.409301 0
M  V30 27 H 0.599931 -6.118764 -1.253400 0
M  V30 28 H 1.872983 -6.449734 -3.735157 0
M  V30 29 H 3.637581 -3.845257 -6.730984 0
M  V30 30 H 1.478312 -1.381651 -2.153083 0
M  V30 31 H -1.084393 0.442925 1.291930 0
M  V30 32 H -2.441164 2.074909 1.980175 0
M  V30 33 H -3.952082 3.828423 2.687688 0
M  V30 34 H -3.352372 5.386656 4.488597 0
M  V30 35 H -1.115911 5.127203 5.598713 0
M  V30 36 H 0.376469 3.385110 4.890576 0
M  V30 37 H 1.682610 1.836737 4.248871 0
M  V30 END ATOM
M  V30 BEGIN BOND
M  V30 1 2 1 2
M  V30 2 1 2 3
M  V30 3 1 3 4
M  V30 4 2 4 5
M  V30 5 1 5 6
M  V30 6 2 6 7
M  V30 7 1 7 8
M  V30 8 1 8 9
M  V30 9 1 9 10
M  V30 10 2 9 11
M  V30 11 1 11 12
M  V30 12 2 12 13
M  V30 13 1 2 14
M  V30 14 1 14 15
M  V30 15 2 15 16
M  V30 16 1 16 17
M  V30 17 2 17 18
M  V30 18 1 18 19
M  V30 19 2 19 20
M  V30 20 1 20 21
M  V30 21 2 21 22
M  V30 22 1 16 23
M  V30 23 1 23 24
M  V30 24 1 13 4
M  V30 25 2 24 14
M  V30 26 1 12 7
M  V30 27 1 22 17
M  V30 28 1 3 25
M  V30 29 1 5 26
M  V30 30 1 6 27
M  V30 31 1 8 28
M  V30 32 1 10 29
M  V30 33 1 13 30
M  V30 34 1 15 31
M  V30 35 1 18 32
M  V30 36 1 19 33
M  V30 37 1 20 34
M  V30 38 1 21 35
M  V30 39 1 22 36
M  V30 40 1 23 37
M  V30 END BOND
M  V30 END CTAB
M  END
>  <Dataset>  (788) 
ChEMBL_Kinases

>  <Ligand_Instance>  (788) 
nan

>  <PDB_ID>  (788) 
nan

>  <Standardized_SMILES>  (788) 
O=C(Nc1ccc2[nH]c(S)nc2c1)c1cc(-c2ccccc2)[nH]n1

>  <Name>  (788) 
nan

>  <Pocket>  (788) 
nan

>  <ATP_Site>  (788) 
nan

>  <Peripheral>  (788) 
nan

>  <Num_H_Atoms_ProtBoundConf>  (788) 
nan

>  <Num_Resolved_Atoms>  (788) 
nan

>  <Num_Not_Resolved_Atoms>  (788) 
nan

$$$$
CHEMBL3342925
     RDKit          3D

  0  0  0  0  0  0  0  0  0  0999 V3000
M  V30 BEGIN CTAB
M  V30 COUNTS 29 31 0 0 0
M  V30 BEGIN ATOM
M  V30 1 O 1.005648 -3.920066 1.675389 0
M  V30 2 C 0.870654 -2.670752 1.765600 0
M  V30 3 N 1.166939 -1.933154 2.930678 0
M  V30 4 C 1.638340 -2.853987 3.963952 0
M  V30 5 N 1.844644 -3.981371 4.132373 0
M  V30 6 C 2.295998 -4.514445 5.258279 0
M  V30 7 C 2.549937 -3.650164 6.347814 0
M  V30 8 S 2.087671 -2.027502 5.616498 0
M  V30 9 C 0.372030 -1.939167 0.577727 0
M  V30 10 C 0.146035 -0.585123 0.439886 0
M  V30 11 C -0.319278 -0.318445 -0.831564 0
M  V30 12 C -0.679857 0.982527 -1.388131 0
M  V30 13 C -1.128801 1.049832 -2.689205 0
M  V30 14 C -1.468284 2.306043 -3.200895 0
M  V30 15 C -1.331919 3.400171 -2.369089 0
M  V30 16 C -0.883100 3.355478 -1.059526 0
M  V30 17 C -0.557043 2.099734 -0.587353 0
M  V30 18 N -0.368596 -1.514985 -1.446121 0
M  V30 19 N 0.039276 -2.468145 -0.613437 0
M  V30 20 H 1.070782 -0.917560 3.044166 0
M  V30 21 H 2.448455 -5.605696 5.281618 0
M  V30 22 H 2.910984 -4.017555 7.271572 0
M  V30 23 H 0.321660 0.135490 1.241499 0
M  V30 24 H -1.226304 0.182480 -3.317277 0
M  V30 25 H -1.823942 2.400078 -4.215665 0
M  V30 26 H -1.586014 4.407589 -2.725752 0
M  V30 27 H -0.796980 4.242286 -0.457502 0
M  V30 28 H -0.192730 1.970558 0.439250 0
M  V30 29 H -0.683308 -1.666551 -2.436090 0
M  V30 END ATOM
M  V30 BEGIN BOND
M  V30 1 2 1 2
M  V30 2 1 2 3
M  V30 3 1 3 4
M  V30 4 2 4 5
M  V30 5 1 5 6
M  V30 6 2 6 7
M  V30 7 1 7 8
M  V30 8 1 2 9
M  V30 9 1 9 10
M  V30 10 2 10 11
M  V30 11 1 11 12
M  V30 12 2 12 13
M  V30 13 1 13 14
M  V30 14 2 14 15
M  V30 15 1 15 16
M  V30 16 2 16 17
M  V30 17 1 11 18
M  V30 18 1 18 19
M  V30 19 1 8 4
M  V30 20 2 19 9
M  V30 21 1 17 12
M  V30 22 1 3 20
M  V30 23 1 6 21
M  V30 24 1 7 22
M  V30 25 1 10 23
M  V30 26 1 13 24
M  V30 27 1 14 25
M  V30 28 1 15 26
M  V30 29 1 16 27
M  V30 30 1 17 28
M  V30 31 1 18 29
M  V30 END BOND
M  V30 END CTAB
M  END
>  <Dataset>  (789) 
ChEMBL_Kinases

>  <Ligand_Instance>  (789) 
nan

>  <PDB_ID>  (789) 
nan

>  <Standardized_SMILES>  (789) 
O=C(Nc1nccs1)c1cc(-c2ccccc2)[nH]n1

>  <Name>  (789) 
nan

>  <Pocket>  (789) 
nan

>  <ATP_Site>  (789) 
nan

>  <Peripheral>  (789) 
nan

>  <Num_H_Atoms_ProtBoundConf>  (789) 
nan

>  <Num_Resolved_Atoms>  (789) 
nan

>  <Num_Not_Resolved_Atoms>  (789) 
nan

$$$$
CHEMBL3342926
     RDKit          3D

  0  0  0  0  0  0  0  0  0  0999 V3000
M  V30 BEGIN CTAB
M  V30 COUNTS 30 32 0 0 0
M  V30 BEGIN ATOM
M  V30 1 O -1.920669 -1.040953 2.277902 0
M  V30 2 C -0.841588 -1.673893 2.160910 0
M  V30 3 N -0.600299 -2.847548 2.921374 0
M  V30 4 C -1.566200 -3.345502 3.837403 0
M  V30 5 C -1.256892 -4.041229 5.082510 0
M  V30 6 C -1.884465 -4.822623 3.928746 0
M  V30 7 C 0.146999 -1.155371 1.216613 0
M  V30 8 C -0.042504 -0.018922 0.455870 0
M  V30 9 C 1.095130 0.154030 -0.307856 0
M  V30 10 C 1.336400 1.232686 -1.263809 0
M  V30 11 C 2.530604 1.268950 -1.954933 0
M  V30 12 C 2.720035 2.315063 -2.857188 0
M  V30 13 C 1.749757 3.259292 -3.037493 0
M  V30 14 C 0.539013 3.238904 -2.349282 0
M  V30 15 C 0.369383 2.197362 -1.461511 0
M  V30 16 N 1.942557 -0.848562 -0.014587 0
M  V30 17 N 1.363980 -1.635250 0.906281 0
M  V30 18 H 0.307272 -3.385592 2.827323 0
M  V30 19 H -2.498160 -2.705029 3.866982 0
M  V30 20 H -1.895825 -3.896075 5.979675 0
M  V30 21 H -0.261807 -4.415863 5.361195 0
M  V30 22 H -2.926685 -5.152631 4.076598 0
M  V30 23 H -1.257151 -5.560868 3.390611 0
M  V30 24 H -0.885618 0.648816 0.415354 0
M  V30 25 H 3.319484 0.538346 -1.836605 0
M  V30 26 H 3.628883 2.402435 -3.428710 0
M  V30 27 H 1.908751 4.074198 -3.746682 0
M  V30 28 H -0.227329 3.984262 -2.491367 0
M  V30 29 H -0.576802 2.175143 -0.918888 0
M  V30 30 H 2.886621 -0.960719 -0.453530 0
M  V30 END ATOM
M  V30 BEGIN BOND
M  V30 1 2 1 2
M  V30 2 1 2 3
M  V30 3 1 3 4
M  V30 4 1 4 5
M  V30 5 1 5 6
M  V30 6 1 2 7
M  V30 7 1 7 8
M  V30 8 2 8 9
M  V30 9 1 9 10
M  V30 10 2 10 11
M  V30 11 1 11 12
M  V30 12 2 12 13
M  V30 13 1 13 14
M  V30 14 2 14 15
M  V30 15 1 9 16
M  V30 16 1 16 17
M  V30 17 1 6 4
M  V30 18 2 17 7
M  V30 19 1 15 10
M  V30 20 1 3 18
M  V30 21 1 4 19
M  V30 22 1 5 20
M  V30 23 1 5 21
M  V30 24 1 6 22
M  V30 25 1 6 23
M  V30 26 1 8 24
M  V30 27 1 11 25
M  V30 28 1 12 26
M  V30 29 1 13 27
M  V30 30 1 14 28
M  V30 31 1 15 29
M  V30 32 1 16 30
M  V30 END BOND
M  V30 END CTAB
M  END
>  <Dataset>  (790) 
ChEMBL_Kinases

>  <Ligand_Instance>  (790) 
nan

>  <PDB_ID>  (790) 
nan

>  <Standardized_SMILES>  (790) 
O=C(NC1CC1)c1cc(-c2ccccc2)[nH]n1

>  <Name>  (790) 
nan

>  <Pocket>  (790) 
nan

>  <ATP_Site>  (790) 
nan

>  <Peripheral>  (790) 
nan

>  <Num_H_Atoms_ProtBoundConf>  (790) 
nan

>  <Num_Resolved_Atoms>  (790) 
nan

>  <Num_Not_Resolved_Atoms>  (790) 
nan

$$$$
CHEMBL3342928
     RDKit          3D

  0  0  0  0  0  0  0  0  0  0999 V3000
M  V30 BEGIN CTAB
M  V30 COUNTS 32 34 0 0 0
M  V30 BEGIN ATOM
M  V30 1 O -0.268883 -4.037102 0.033059 0
M  V30 2 C 0.023555 -2.845445 0.286423 0
M  V30 3 N 1.273001 -2.497573 0.880619 0
M  V30 4 C 2.418732 -3.206183 1.319712 0
M  V30 5 C 2.399185 -3.620862 2.629991 0
M  V30 6 C 3.474766 -4.317680 3.139803 0
M  V30 7 C 4.554539 -4.587378 2.324356 0
M  V30 8 C 4.554890 -4.162288 1.011226 0
M  V30 9 N 3.490358 -3.480559 0.531146 0
M  V30 10 C -0.834963 -1.694827 0.021195 0
M  V30 11 C -0.679686 -0.339552 0.230076 0
M  V30 12 C -1.797613 0.345862 -0.198933 0
M  V30 13 C -1.974026 1.793182 -0.128790 0
M  V30 14 C -0.964752 2.601702 0.405422 0
M  V30 15 C -1.213849 3.964626 0.434417 0
M  V30 16 C -2.374564 4.517655 -0.027305 0
M  V30 17 C -3.357416 3.690869 -0.551591 0
M  V30 18 C -3.172271 2.307445 -0.611273 0
M  V30 19 N -2.632668 -0.625533 -0.672070 0
M  V30 20 N -2.053718 -1.814658 -0.535753 0
M  V30 21 H 1.563221 -1.513646 1.111606 0
M  V30 22 H 1.598525 -3.442981 3.302886 0
M  V30 23 H 3.528597 -4.671890 4.151357 0
M  V30 24 H 5.415325 -5.137510 2.709118 0
M  V30 25 H 5.392202 -4.362378 0.350935 0
M  V30 26 H 0.217896 0.070605 0.673387 0
M  V30 27 H -0.045003 2.177233 0.772704 0
M  V30 28 H -0.481758 4.649813 0.832076 0
M  V30 29 H -2.567524 5.587097 -0.003434 0
M  V30 30 H -4.294971 4.051368 -0.933411 0
M  V30 31 H -3.923378 1.657903 -1.013762 0
M  V30 32 H -3.569863 -0.401615 -1.067816 0
M  V30 END ATOM
M  V30 BEGIN BOND
M  V30 1 2 1 2
M  V30 2 1 2 3
M  V30 3 1 3 4
M  V30 4 2 4 5
M  V30 5 1 5 6
M  V30 6 2 6 7
M  V30 7 1 7 8
M  V30 8 2 8 9
M  V30 9 1 2 10
M  V30 10 1 10 11
M  V30 11 2 11 12
M  V30 12 1 12 13
M  V30 13 2 13 14
M  V30 14 1 14 15
M  V30 15 2 15 16
M  V30 16 1 16 17
M  V30 17 2 17 18
M  V30 18 1 12 19
M  V30 19 1 19 20
M  V30 20 1 9 4
M  V30 21 2 20 10
M  V30 22 1 18 13
M  V30 23 1 3 21
M  V30 24 1 5 22
M  V30 25 1 6 23
M  V30 26 1 7 24
M  V30 27 1 8 25
M  V30 28 1 11 26
M  V30 29 1 14 27
M  V30 30 1 15 28
M  V30 31 1 16 29
M  V30 32 1 17 30
M  V30 33 1 18 31
M  V30 34 1 19 32
M  V30 END BOND
M  V30 END CTAB
M  END
>  <Dataset>  (791) 
ChEMBL_Kinases

>  <Ligand_Instance>  (791) 
nan

>  <PDB_ID>  (791) 
nan

>  <Standardized_SMILES>  (791) 
O=C(Nc1ccccn1)c1cc(-c2ccccc2)[nH]n1

>  <Name>  (791) 
nan

>  <Pocket>  (791) 
nan

>  <ATP_Site>  (791) 
nan

>  <Peripheral>  (791) 
nan

>  <Num_H_Atoms_ProtBoundConf>  (791) 
nan

>  <Num_Resolved_Atoms>  (791) 
nan

>  <Num_Not_Resolved_Atoms>  (791) 
nan

$$$$
CHEMBL3343033
     RDKit          3D

  0  0  0  0  0  0  0  0  0  0999 V3000
M  V30 BEGIN CTAB
M  V30 COUNTS 47 50 0 0 0
M  V30 BEGIN ATOM
M  V30 1 C -3.020228 -0.333251 -0.331262 0
M  V30 2 O -3.113935 -1.694812 0.028461 0
M  V30 3 C -2.148686 -2.617297 -0.417508 0
M  V30 4 C -1.127596 -2.154525 -1.209990 0
M  V30 5 C -0.085502 -2.898836 -1.745702 0
M  V30 6 C 0.920829 -2.333712 -2.538505 0
M  V30 7 N 0.746778 -0.934817 -2.733942 0
M  V30 8 C 1.184385 -0.230464 -1.551228 0
M  V30 9 C 1.943725 -0.837690 -0.573052 0
M  V30 10 C 2.307668 -0.124301 0.572909 0
M  V30 11 C 1.845558 1.171534 0.601805 0
M  V30 12 N 2.185359 1.955787 1.771797 0
M  V30 13 C 1.127214 1.581351 2.636780 0
M  V30 14 O 0.401094 0.740676 1.971984 0
M  V30 15 C 0.775837 1.960401 4.019862 0
M  V30 16 C 1.542880 2.933669 4.612583 0
M  V30 17 C 1.153328 3.236498 5.912800 0
M  V30 18 C 0.091629 2.588219 6.496975 0
M  V30 19 C -0.648992 1.614930 5.857938 0
M  V30 20 C -0.291652 1.284647 4.560616 0
M  V30 21 C 1.087528 1.855566 -0.324841 0
M  V30 22 C 0.763260 1.083871 -1.438343 0
M  V30 23 N 1.867530 -3.188880 -2.974761 0
M  V30 24 C 1.846042 -4.480782 -2.671077 0
M  V30 25 N 0.862831 -5.018981 -1.898386 0
M  V30 26 C -0.126451 -4.231881 -1.419070 0
M  V30 27 C -1.120078 -4.750184 -0.633280 0
M  V30 28 C -2.139235 -3.973385 -0.120643 0
M  V30 29 O -3.185186 -4.406719 0.682669 0
M  V30 30 H -3.751685 0.264922 0.240493 0
M  V30 31 H -3.214640 -0.159813 -1.394891 0
M  V30 32 H -2.007632 0.078111 -0.040315 0
M  V30 33 H -1.131038 -1.095985 -1.445810 0
M  V30 34 H 0.380042 -0.426458 -3.540319 0
M  V30 35 H 2.269019 -1.862809 -0.670637 0
M  V30 36 H 2.898885 -0.531501 1.377483 0
M  V30 37 H 2.834777 2.636532 2.226308 0
M  V30 38 H 2.357737 3.427546 4.151990 0
M  V30 39 H 1.668391 3.989874 6.512185 0
M  V30 40 H -0.185365 2.852504 7.521192 0
M  V30 41 H -1.487376 1.083745 6.281278 0
M  V30 42 H -0.834325 0.519272 3.988194 0
M  V30 43 H 0.786406 2.875221 -0.190851 0
M  V30 44 H 0.159668 1.541888 -2.238530 0
M  V30 45 H 2.648028 -5.068077 -3.069228 0
M  V30 46 H -1.147137 -5.807795 -0.378465 0
M  V30 47 H -3.299603 -4.058081 1.645929 0
M  V30 END ATOM
M  V30 BEGIN BOND
M  V30 1 1 1 2
M  V30 2 1 2 3
M  V30 3 2 3 4
M  V30 4 1 4 5
M  V30 5 2 5 6
M  V30 6 1 6 7
M  V30 7 1 7 8
M  V30 8 2 8 9
M  V30 9 1 9 10
M  V30 10 2 10 11
M  V30 11 1 11 12
M  V30 12 1 12 13
M  V30 13 2 13 14
M  V30 14 1 13 15
M  V30 15 2 15 16
M  V30 16 1 16 17
M  V30 17 2 17 18
M  V30 18 1 18 19
M  V30 19 2 19 20
M  V30 20 1 11 21
M  V30 21 2 21 22
M  V30 22 1 6 23
M  V30 23 2 23 24
M  V30 24 1 24 25
M  V30 25 2 25 26
M  V30 26 1 26 27
M  V30 27 2 27 28
M  V30 28 1 28 29
M  V30 29 1 28 3
M  V30 30 1 26 5
M  V30 31 1 22 8
M  V30 32 1 20 15
M  V30 33 1 1 30
M  V30 34 1 1 31
M  V30 35 1 1 32
M  V30 36 1 4 33
M  V30 37 1 7 34
M  V30 38 1 9 35
M  V30 39 1 10 36
M  V30 40 1 12 37
M  V30 41 1 16 38
M  V30 42 1 17 39
M  V30 43 1 18 40
M  V30 44 1 19 41
M  V30 45 1 20 42
M  V30 46 1 21 43
M  V30 47 1 22 44
M  V30 48 1 24 45
M  V30 49 1 27 46
M  V30 50 1 29 47
M  V30 END BOND
M  V30 END CTAB
M  END
>  <Dataset>  (792) 
ChEMBL_Kinases

>  <Ligand_Instance>  (792) 
nan

>  <PDB_ID>  (792) 
nan

>  <Standardized_SMILES>  (792) 
COc1cc2c(Nc3ccc(NC(=O)c4ccccc4)cc3)ncnc2cc1O

>  <Name>  (792) 
nan

>  <Pocket>  (792) 
nan

>  <ATP_Site>  (792) 
nan

>  <Peripheral>  (792) 
nan

>  <Num_H_Atoms_ProtBoundConf>  (792) 
nan

>  <Num_Resolved_Atoms>  (792) 
nan

>  <Num_Not_Resolved_Atoms>  (792) 
nan

$$$$
CHEMBL334758
     RDKit          3D

  0  0  0  0  0  0  0  0  0  0999 V3000
M  V30 BEGIN CTAB
M  V30 COUNTS 51 54 0 0 0
M  V30 BEGIN ATOM
M  V30 1 O 0.992358 -3.741807 -5.965891 0
M  V30 2 N 1.943037 -3.003729 -6.275175 0 CHG=1 VAL=4
M  V30 3 O 2.545086 -3.072091 -7.527901 0 CHG=-1 VAL=1
M  V30 4 C 2.452918 -2.057647 -5.355948 0
M  V30 5 C 1.892641 -1.949155 -4.101589 0
M  V30 6 C 2.436235 -1.008129 -3.255064 0
M  V30 7 C 3.478952 -0.168371 -3.535095 0
M  V30 8 N 4.032212 0.795641 -2.661256 0
M  V30 9 C 3.654192 1.112254 -1.334576 0
M  V30 10 N 4.309734 2.072111 -0.659051 0
M  V30 11 C 4.026177 2.437161 0.587685 0
M  V30 12 C 3.001233 1.811429 1.257340 0
M  V30 13 C 2.305463 0.826632 0.607339 0
M  V30 14 C 1.217046 0.152275 1.298957 0
M  V30 15 C 0.838358 0.438742 2.567618 0
M  V30 16 C -0.190866 -0.185013 3.249054 0
M  V30 17 C -0.906448 -1.182128 2.611225 0
M  V30 18 S -2.220749 -2.016892 3.406464 0
M  V30 19 O -1.866502 -2.143579 4.854261 0
M  V30 20 O -2.343849 -3.402339 2.836696 0
M  V30 21 N -3.725189 -1.231748 3.146839 0
M  V30 22 C -3.794340 0.100553 3.653601 0
M  V30 23 C -3.772425 0.236032 5.129251 0
M  V30 24 N -4.273042 -0.844208 5.894927 0
M  V30 25 C -4.686033 -2.025989 5.257234 0
M  V30 26 C -4.805168 -1.975536 3.765119 0
M  V30 27 C -0.572158 -1.524054 1.315622 0
M  V30 28 C 0.471497 -0.847561 0.711423 0
M  V30 29 N 2.669379 0.541320 -0.631380 0
M  V30 30 C 3.987260 -0.332880 -4.803393 0
M  V30 31 C 3.503386 -1.242744 -5.699387 0
M  V30 32 H 1.066946 -2.579521 -3.811556 0
M  V30 33 H 1.967938 -0.957076 -2.284865 0
M  V30 34 H 4.843541 1.359048 -3.056934 0
M  V30 35 H 4.647885 3.230006 0.996649 0
M  V30 36 H 2.837442 2.159505 2.248088 0
M  V30 37 H 1.326539 1.196679 3.156010 0
M  V30 38 H -0.481281 0.048036 4.248234 0
M  V30 39 H -4.750737 0.529971 3.269526 0
M  V30 40 H -3.009342 0.767406 3.226654 0
M  V30 41 H -4.354564 1.146593 5.406187 0
M  V30 42 H -2.718838 0.491549 5.446531 0
M  V30 43 H -3.645897 -1.023525 6.715556 0
M  V30 44 H -4.078727 -2.883203 5.621601 0
M  V30 45 H -5.726056 -2.267977 5.625161 0
M  V30 46 H -5.748285 -1.402350 3.527214 0
M  V30 47 H -4.838079 -2.990820 3.356500 0
M  V30 48 H -1.132323 -2.300249 0.824934 0
M  V30 49 H 0.666425 -1.176505 -0.299557 0
M  V30 50 H 4.826510 0.285124 -5.142812 0
M  V30 51 H 3.948211 -1.327946 -6.693412 0
M  V30 END ATOM
M  V30 BEGIN BOND
M  V30 1 2 1 2
M  V30 2 1 2 3
M  V30 3 1 2 4
M  V30 4 2 4 5
M  V30 5 1 5 6
M  V30 6 2 6 7
M  V30 7 1 7 8
M  V30 8 1 8 9
M  V30 9 2 9 10
M  V30 10 1 10 11
M  V30 11 2 11 12
M  V30 12 1 12 13
M  V30 13 1 13 14
M  V30 14 2 14 15
M  V30 15 1 15 16
M  V30 16 2 16 17
M  V30 17 1 17 18
M  V30 18 2 18 19
M  V30 19 2 18 20
M  V30 20 1 18 21
M  V30 21 1 21 22
M  V30 22 1 22 23
M  V30 23 1 23 24
M  V30 24 1 24 25
M  V30 25 1 25 26
M  V30 26 1 17 27
M  V30 27 2 27 28
M  V30 28 2 13 29
M  V30 29 1 7 30
M  V30 30 2 30 31
M  V30 31 1 31 4
M  V30 32 1 29 9
M  V30 33 1 28 14
M  V30 34 1 26 21
M  V30 35 1 5 32
M  V30 36 1 6 33
M  V30 37 1 8 34
M  V30 38 1 11 35
M  V30 39 1 12 36
M  V30 40 1 15 37
M  V30 41 1 16 38
M  V30 42 1 22 39
M  V30 43 1 22 40
M  V30 44 1 23 41
M  V30 45 1 23 42
M  V30 46 1 24 43
M  V30 47 1 25 44
M  V30 48 1 25 45
M  V30 49 1 26 46
M  V30 50 1 26 47
M  V30 51 1 27 48
M  V30 52 1 28 49
M  V30 53 1 30 50
M  V30 54 1 31 51
M  V30 END BOND
M  V30 END CTAB
M  END
>  <Dataset>  (793) 
ChEMBL_Kinases

>  <Ligand_Instance>  (793) 
nan

>  <PDB_ID>  (793) 
nan

>  <Standardized_SMILES>  (793) 
O=[N+]([O-])c1ccc(Nc2nccc(-c3ccc(S(=O)(=O)N4CCNCC4)cc3)n2)cc1

>  <Name>  (793) 
nan

>  <Pocket>  (793) 
nan

>  <ATP_Site>  (793) 
nan

>  <Peripheral>  (793) 
nan

>  <Num_H_Atoms_ProtBoundConf>  (793) 
nan

>  <Num_Resolved_Atoms>  (793) 
nan

>  <Num_Not_Resolved_Atoms>  (793) 
nan

$$$$
CHEMBL3343038
     RDKit          3D

  0  0  0  0  0  0  0  0  0  0999 V3000
M  V30 BEGIN CTAB
M  V30 COUNTS 53 56 0 0 0
M  V30 BEGIN ATOM
M  V30 1 C 2.885563 -0.564594 -0.697621 0
M  V30 2 O 2.601524 -1.894038 -0.999408 0
M  V30 3 C 2.080549 -2.847106 -0.159882 0
M  V30 4 C 1.775741 -2.545334 1.144381 0
M  V30 5 C 1.248248 -3.441090 2.060727 0
M  V30 6 C 0.941149 -3.106816 3.387175 0
M  V30 7 N 1.264804 -1.721121 3.653551 0
M  V30 8 C 0.384755 -0.658390 3.261741 0
M  V30 9 C 0.938500 0.614914 3.363046 0
M  V30 10 C 0.054975 1.606143 2.947227 0
M  V30 11 C -1.224634 1.287804 2.493823 0
M  V30 12 N -2.069528 2.334279 2.124692 0
M  V30 13 C -2.924080 3.369190 1.834476 0
M  V30 14 O -3.404996 3.579285 3.017030 0
M  V30 15 C -3.267697 4.098976 0.593154 0
M  V30 16 C -2.869924 3.756860 -0.665236 0
M  V30 17 C -3.274462 4.578362 -1.686150 0
M  V30 18 C -4.049358 5.702289 -1.457585 0
M  V30 19 C -4.442209 6.026958 -0.153041 0
M  V30 20 C -4.034343 5.192526 0.902800 0
M  V30 21 C -1.687784 -0.030765 2.431206 0
M  V30 22 C -0.857224 -1.053357 2.829779 0
M  V30 23 N 0.426470 -4.028844 4.221557 0
M  V30 24 C 0.222248 -5.272058 3.730159 0
M  V30 25 N 0.500837 -5.640000 2.466594 0
M  V30 26 C 1.014268 -4.747513 1.607830 0
M  V30 27 C 1.324016 -5.037033 0.297205 0
M  V30 28 C 1.841941 -4.148219 -0.593449 0
M  V30 29 O 2.170721 -4.372114 -1.903778 0
M  V30 30 C 2.061930 -5.548920 -2.637902 0
M  V30 31 C 2.537972 -5.335842 -4.051920 0
M  V30 32 O 2.962314 -4.218935 -4.435045 0
M  V30 33 O 2.570362 -6.274539 -5.050197 0
M  V30 34 H 1.973125 0.067614 -0.915500 0
M  V30 35 H 3.742227 -0.180055 -1.323993 0
M  V30 36 H 3.224300 -0.403845 0.342900 0
M  V30 37 H 1.969607 -1.513643 1.477875 0
M  V30 38 H 2.182687 -1.600027 4.145070 0
M  V30 39 H 1.935014 0.775834 3.725073 0
M  V30 40 H 0.390920 2.634075 2.988647 0
M  V30 41 H -1.695322 2.221282 1.095785 0
M  V30 42 H -2.275809 2.875993 -0.766728 0
M  V30 43 H -2.984454 4.349349 -2.698976 0
M  V30 44 H -4.402619 6.390268 -2.208566 0
M  V30 45 H -5.044895 6.896978 0.063033 0
M  V30 46 H -4.367495 5.492973 1.887718 0
M  V30 47 H -2.674691 -0.220094 2.077555 0
M  V30 48 H -1.141481 -2.086978 2.811818 0
M  V30 49 H -0.200269 -5.988692 4.448699 0
M  V30 50 H 1.146837 -6.045858 -0.067692 0
M  V30 51 H 2.782020 -6.309730 -2.209531 0
M  V30 52 H 1.035284 -5.961540 -2.667870 0
M  V30 53 H 2.288432 -6.068845 -6.014654 0
M  V30 END ATOM
M  V30 BEGIN BOND
M  V30 1 1 1 2
M  V30 2 1 2 3
M  V30 3 2 3 4
M  V30 4 1 4 5
M  V30 5 2 5 6
M  V30 6 1 6 7
M  V30 7 1 7 8
M  V30 8 2 8 9
M  V30 9 1 9 10
M  V30 10 2 10 11
M  V30 11 1 11 12
M  V30 12 1 12 13
M  V30 13 2 13 14
M  V30 14 1 13 15
M  V30 15 2 15 16
M  V30 16 1 16 17
M  V30 17 2 17 18
M  V30 18 1 18 19
M  V30 19 2 19 20
M  V30 20 1 11 21
M  V30 21 2 21 22
M  V30 22 1 6 23
M  V30 23 2 23 24
M  V30 24 1 24 25
M  V30 25 2 25 26
M  V30 26 1 26 27
M  V30 27 2 27 28
M  V30 28 1 28 29
M  V30 29 1 29 30
M  V30 30 1 30 31
M  V30 31 2 31 32
M  V30 32 1 31 33
M  V30 33 1 28 3
M  V30 34 1 26 5
M  V30 35 1 22 8
M  V30 36 1 20 15
M  V30 37 1 1 34
M  V30 38 1 1 35
M  V30 39 1 1 36
M  V30 40 1 4 37
M  V30 41 1 7 38
M  V30 42 1 9 39
M  V30 43 1 10 40
M  V30 44 1 12 41
M  V30 45 1 16 42
M  V30 46 1 17 43
M  V30 47 1 18 44
M  V30 48 1 19 45
M  V30 49 1 20 46
M  V30 50 1 21 47
M  V30 51 1 22 48
M  V30 52 1 24 49
M  V30 53 1 27 50
M  V30 54 1 30 51
M  V30 55 1 30 52
M  V30 56 1 33 53
M  V30 END BOND
M  V30 END CTAB
M  END
>  <Dataset>  (794) 
ChEMBL_Kinases

>  <Ligand_Instance>  (794) 
nan

>  <PDB_ID>  (794) 
nan

>  <Standardized_SMILES>  (794) 
COc1cc2c(Nc3ccc(NC(=O)c4ccccc4)cc3)ncnc2cc1OCC(=O)O

>  <Name>  (794) 
nan

>  <Pocket>  (794) 
nan

>  <ATP_Site>  (794) 
nan

>  <Peripheral>  (794) 
nan

>  <Num_H_Atoms_ProtBoundConf>  (794) 
nan

>  <Num_Resolved_Atoms>  (794) 
nan

>  <Num_Not_Resolved_Atoms>  (794) 
nan

$$$$
CHEMBL3343039
     RDKit          3D

  0  0  0  0  0  0  0  0  0  0999 V3000
M  V30 BEGIN CTAB
M  V30 COUNTS 54 57 0 0 0
M  V30 BEGIN ATOM
M  V30 1 C 3.249203 -1.400570 -2.457458 0
M  V30 2 O 2.897481 -2.730218 -2.215979 0
M  V30 3 C 2.535961 -3.215637 -0.963163 0
M  V30 4 C 2.532398 -2.314139 0.081082 0
M  V30 5 C 2.182952 -2.712974 1.372415 0
M  V30 6 C 2.166049 -1.838345 2.466151 0
M  V30 7 N 2.540075 -0.498228 2.085360 0
M  V30 8 C 1.448265 0.367764 1.725393 0
M  V30 9 C 1.662582 1.644181 1.244331 0
M  V30 10 C 0.635656 2.498983 0.895547 0
M  V30 11 C -0.669882 2.069361 1.029251 0
M  V30 12 N -1.879421 2.794307 0.722721 0
M  V30 13 C -2.534367 3.624370 1.651373 0
M  V30 14 O -2.046381 3.746243 2.811340 0
M  V30 15 C -3.760911 4.334088 1.278304 0
M  V30 16 C -4.376261 4.263436 0.045528 0
M  V30 17 C -5.528460 4.954455 -0.253272 0
M  V30 18 C -6.123542 5.761335 0.689918 0
M  V30 19 C -5.533281 5.854379 1.933426 0
M  V30 20 C -4.366770 5.154967 2.236946 0
M  V30 21 C -0.935697 0.804325 1.504878 0
M  V30 22 C 0.126245 -0.010151 1.839332 0
M  V30 23 N 1.820537 -2.290190 3.691940 0
M  V30 24 C 1.497393 -3.600540 3.812889 0
M  V30 25 N 1.490620 -4.512537 2.795055 0
M  V30 26 C 1.840434 -4.035763 1.577237 0
M  V30 27 C 1.850626 -4.921749 0.514923 0
M  V30 28 C 2.195058 -4.534883 -0.763312 0
M  V30 29 O 2.240823 -5.329289 -1.898121 0
M  V30 30 C 1.931371 -6.698015 -1.942865 0
M  V30 31 C 0.521414 -6.952428 -1.519870 0
M  V30 32 N 0.295242 -8.360462 -1.595315 0
M  V30 33 O -0.560147 -6.473459 -1.124721 0
M  V30 34 H 3.732115 -1.324400 -3.460871 0
M  V30 35 H 4.034937 -1.057684 -1.731262 0
M  V30 36 H 2.361383 -0.732898 -2.398335 0
M  V30 37 H 2.802106 -1.280421 -0.088424 0
M  V30 38 H 3.487556 -0.096378 2.040836 0
M  V30 39 H 2.680957 2.023797 1.122101 0
M  V30 40 H 0.734424 3.501864 0.516553 0
M  V30 41 H -2.209999 2.635237 -0.253814 0
M  V30 42 H -3.920074 3.633865 -0.707315 0
M  V30 43 H -5.997336 4.886640 -1.228091 0
M  V30 44 H -7.035856 6.349010 0.548937 0
M  V30 45 H -5.953941 6.478936 2.731745 0
M  V30 46 H -3.950792 5.272603 3.241193 0
M  V30 47 H -1.916303 0.375783 1.644771 0
M  V30 48 H -0.045710 -1.014416 2.217591 0
M  V30 49 H 1.236463 -3.848902 4.847271 0
M  V30 50 H 1.589829 -5.956813 0.640011 0
M  V30 51 H 2.041669 -7.050170 -2.981584 0
M  V30 52 H 2.630254 -7.237630 -1.242538 0
M  V30 53 H -0.300885 -9.153442 -1.915947 0
M  V30 54 H 0.544895 -9.370654 -1.405392 0
M  V30 END ATOM
M  V30 BEGIN BOND
M  V30 1 1 1 2
M  V30 2 1 2 3
M  V30 3 2 3 4
M  V30 4 1 4 5
M  V30 5 2 5 6
M  V30 6 1 6 7
M  V30 7 1 7 8
M  V30 8 2 8 9
M  V30 9 1 9 10
M  V30 10 2 10 11
M  V30 11 1 11 12
M  V30 12 1 12 13
M  V30 13 2 13 14
M  V30 14 1 13 15
M  V30 15 2 15 16
M  V30 16 1 16 17
M  V30 17 2 17 18
M  V30 18 1 18 19
M  V30 19 2 19 20
M  V30 20 1 11 21
M  V30 21 2 21 22
M  V30 22 1 6 23
M  V30 23 2 23 24
M  V30 24 1 24 25
M  V30 25 2 25 26
M  V30 26 1 26 27
M  V30 27 2 27 28
M  V30 28 1 28 29
M  V30 29 1 29 30
M  V30 30 1 30 31
M  V30 31 1 31 32
M  V30 32 2 31 33
M  V30 33 1 28 3
M  V30 34 1 26 5
M  V30 35 1 22 8
M  V30 36 1 20 15
M  V30 37 1 1 34
M  V30 38 1 1 35
M  V30 39 1 1 36
M  V30 40 1 4 37
M  V30 41 1 7 38
M  V30 42 1 9 39
M  V30 43 1 10 40
M  V30 44 1 12 41
M  V30 45 1 16 42
M  V30 46 1 17 43
M  V30 47 1 18 44
M  V30 48 1 19 45
M  V30 49 1 20 46
M  V30 50 1 21 47
M  V30 51 1 22 48
M  V30 52 1 24 49
M  V30 53 1 27 50
M  V30 54 1 30 51
M  V30 55 1 30 52
M  V30 56 1 32 53
M  V30 57 1 32 54
M  V30 END BOND
M  V30 END CTAB
M  END
>  <Dataset>  (795) 
ChEMBL_Kinases

>  <Ligand_Instance>  (795) 
nan

>  <PDB_ID>  (795) 
nan

>  <Standardized_SMILES>  (795) 
COc1cc2c(Nc3ccc(NC(=O)c4ccccc4)cc3)ncnc2cc1OCC(N)=O

>  <Name>  (795) 
nan

>  <Pocket>  (795) 
nan

>  <ATP_Site>  (795) 
nan

>  <Peripheral>  (795) 
nan

>  <Num_H_Atoms_ProtBoundConf>  (795) 
nan

>  <Num_Resolved_Atoms>  (795) 
nan

>  <Num_Not_Resolved_Atoms>  (795) 
nan

$$$$
CHEMBL3343044
     RDKit          3D

  0  0  0  0  0  0  0  0  0  0999 V3000
M  V30 BEGIN CTAB
M  V30 COUNTS 44 46 0 0 0
M  V30 BEGIN ATOM
M  V30 1 C 3.018282 -5.350808 -4.349067 0
M  V30 2 O 2.029096 -6.164990 -3.708919 0
M  V30 3 C 1.219640 -5.654063 -2.705697 0
M  V30 4 C 1.207463 -4.376794 -2.173561 0
M  V30 5 C 0.333174 -4.055416 -1.183338 0
M  V30 6 C 0.359912 -2.693457 -0.656163 0
M  V30 7 O 1.185723 -1.885899 -1.158596 0
M  V30 8 N -0.483613 -2.249392 0.373240 0
M  V30 9 C -0.514798 -0.941689 0.935578 0
M  V30 10 C 0.306876 -0.678225 2.015901 0
M  V30 11 C 0.304720 0.601740 2.601099 0
M  V30 12 C -0.525767 1.580745 2.081006 0
M  V30 13 N -0.375319 2.795302 2.813087 0
M  V30 14 C 0.449703 3.927244 2.700770 0
M  V30 15 O 1.252885 3.909200 1.755185 0
M  V30 16 C 0.293766 4.996032 3.679517 0
M  V30 17 C 1.146713 6.071730 3.492841 0
M  V30 18 C 1.142116 7.174895 4.321854 0
M  V30 19 C 0.262991 7.231367 5.384348 0
M  V30 20 C -0.575013 6.142002 5.543328 0
M  V30 21 N -0.570564 5.065502 4.734431 0
M  V30 22 C -1.344602 1.334584 1.012037 0
M  V30 23 C -1.328613 0.070905 0.450481 0
M  V30 24 C -0.542757 -5.012973 -0.712317 0
M  V30 25 C -0.574121 -6.316687 -1.212508 0
M  V30 26 C 0.329968 -6.611134 -2.221126 0
M  V30 27 O 0.254820 -7.935303 -2.686846 0
M  V30 28 H 2.679757 -4.301727 -4.473414 0
M  V30 29 H 3.933679 -5.282510 -3.691408 0
M  V30 30 H 3.321597 -5.775929 -5.317016 0
M  V30 31 H 1.936256 -3.712616 -2.619879 0
M  V30 32 H -1.180066 -2.890369 0.814499 0
M  V30 33 H 0.948689 -1.477627 2.398054 0
M  V30 34 H 0.990005 0.691126 3.442255 0
M  V30 35 H -1.106890 2.672517 3.570243 0
M  V30 36 H 1.890913 6.161578 2.696134 0
M  V30 37 H 1.791186 8.031326 4.208164 0
M  V30 38 H 0.220789 8.082037 6.068511 0
M  V30 39 H -1.300349 6.093282 6.348454 0
M  V30 40 H -1.935993 2.149914 0.696105 0
M  V30 41 H -1.972546 -0.115564 -0.387467 0
M  V30 42 H -1.248175 -4.783454 0.073574 0
M  V30 43 H -1.273732 -7.048583 -0.822605 0
M  V30 44 H -0.559913 -8.138640 -3.253183 0
M  V30 END ATOM
M  V30 BEGIN BOND
M  V30 1 1 1 2
M  V30 2 1 2 3
M  V30 3 2 3 4
M  V30 4 1 4 5
M  V30 5 1 5 6
M  V30 6 2 6 7
M  V30 7 1 6 8
M  V30 8 1 8 9
M  V30 9 2 9 10
M  V30 10 1 10 11
M  V30 11 2 11 12
M  V30 12 1 12 13
M  V30 13 1 13 14
M  V30 14 2 14 15
M  V30 15 1 14 16
M  V30 16 2 16 17
M  V30 17 1 17 18
M  V30 18 2 18 19
M  V30 19 1 19 20
M  V30 20 2 20 21
M  V30 21 1 12 22
M  V30 22 2 22 23
M  V30 23 2 5 24
M  V30 24 1 24 25
M  V30 25 2 25 26
M  V30 26 1 26 27
M  V30 27 1 26 3
M  V30 28 1 23 9
M  V30 29 1 21 16
M  V30 30 1 1 28
M  V30 31 1 1 29
M  V30 32 1 1 30
M  V30 33 1 4 31
M  V30 34 1 8 32
M  V30 35 1 10 33
M  V30 36 1 11 34
M  V30 37 1 13 35
M  V30 38 1 17 36
M  V30 39 1 18 37
M  V30 40 1 19 38
M  V30 41 1 20 39
M  V30 42 1 22 40
M  V30 43 1 23 41
M  V30 44 1 24 42
M  V30 45 1 25 43
M  V30 46 1 27 44
M  V30 END BOND
M  V30 END CTAB
M  END
>  <Dataset>  (796) 
ChEMBL_Kinases

>  <Ligand_Instance>  (796) 
nan

>  <PDB_ID>  (796) 
nan

>  <Standardized_SMILES>  (796) 
COc1cc(C(=O)Nc2ccc(NC(=O)c3ccccn3)cc2)ccc1O

>  <Name>  (796) 
nan

>  <Pocket>  (796) 
nan

>  <ATP_Site>  (796) 
nan

>  <Peripheral>  (796) 
nan

>  <Num_H_Atoms_ProtBoundConf>  (796) 
nan

>  <Num_Resolved_Atoms>  (796) 
nan

>  <Num_Not_Resolved_Atoms>  (796) 
nan

$$$$
CHEMBL3343051
     RDKit          3D

  0  0  0  0  0  0  0  0  0  0999 V3000
M  V30 BEGIN CTAB
M  V30 COUNTS 49 52 0 0 0
M  V30 BEGIN ATOM
M  V30 1 O -0.963097 0.023220 0.947534 0
M  V30 2 C -1.067636 -1.242733 0.819692 0
M  V30 3 N 0.182119 -1.898424 0.678954 0
M  V30 4 C 1.239482 -0.912848 0.722689 0
M  V30 5 C 1.813915 -0.566058 1.930342 0
M  V30 6 C 2.818994 0.379977 1.914202 0
M  V30 7 C 3.222366 0.948775 0.720817 0
M  V30 8 N 4.270727 1.943652 0.653215 0
M  V30 9 C 3.695966 3.226869 0.785843 0
M  V30 10 O 2.426545 3.188323 0.928642 0
M  V30 11 C 4.448663 4.478118 0.765369 0
M  V30 12 C 3.725427 5.644508 0.908846 0
M  V30 13 C 4.365880 6.868969 0.899788 0
M  V30 14 C 5.753881 6.961066 0.746257 0
M  V30 15 C 6.431848 5.745391 0.605367 0
M  V30 16 N 5.788810 4.557996 0.616657 0
M  V30 17 C 2.630479 0.584873 -0.482267 0
M  V30 18 C 1.613232 -0.366385 -0.505027 0
M  V30 19 C -2.375899 -1.851048 0.830162 0
M  V30 20 C -3.442348 -0.987758 0.982376 0
M  V30 21 C -4.731642 -1.532156 0.998504 0
M  V30 22 C -4.896908 -2.895211 0.863847 0
M  V30 23 C -3.773203 -3.713461 0.713123 0
M  V30 24 C -4.104220 -5.129658 0.582310 0
M  V30 25 C -5.029096 -5.801838 1.384485 0
M  V30 26 N -5.239339 -7.114246 1.154587 0
M  V30 27 C -4.570003 -7.757836 0.172312 0
M  V30 28 O -4.807460 -9.001054 -0.002353 0
M  V30 29 N -3.666477 -7.132512 -0.622486 0
M  V30 30 C -3.436734 -5.822717 -0.415468 0
M  V30 31 O -2.596559 -5.297844 -1.174659 0
M  V30 32 C -2.492947 -3.220033 0.692123 0
M  V30 33 H 0.138352 -2.951634 0.570145 0
M  V30 34 H 1.472404 -1.032194 2.843865 0
M  V30 35 H 3.300619 0.685481 2.834225 0
M  V30 36 H 5.323950 1.875709 0.529512 0
M  V30 37 H 2.631174 5.622626 1.032532 0
M  V30 38 H 3.771771 7.771804 1.014762 0
M  V30 39 H 6.269571 7.913039 0.737189 0
M  V30 40 H 7.511100 5.736600 0.481785 0
M  V30 41 H 2.965161 1.046213 -1.405916 0
M  V30 42 H 1.128076 -0.675108 -1.425648 0
M  V30 43 H -3.354294 0.069526 1.089120 0
M  V30 44 H -5.588862 -0.882604 1.116162 0
M  V30 45 H -5.915915 -3.271731 0.882274 0
M  V30 46 H -5.511185 -5.191317 2.144215 0
M  V30 47 H -5.937290 -7.560920 1.781479 0
M  V30 48 H -3.174800 -7.678223 -1.369966 0
M  V30 49 H -1.671699 -3.892638 0.574084 0
M  V30 END ATOM
M  V30 BEGIN BOND
M  V30 1 2 1 2
M  V30 2 1 2 3
M  V30 3 1 3 4
M  V30 4 2 4 5
M  V30 5 1 5 6
M  V30 6 2 6 7
M  V30 7 1 7 8
M  V30 8 1 8 9
M  V30 9 2 9 10
M  V30 10 1 9 11
M  V30 11 2 11 12
M  V30 12 1 12 13
M  V30 13 2 13 14
M  V30 14 1 14 15
M  V30 15 2 15 16
M  V30 16 1 7 17
M  V30 17 2 17 18
M  V30 18 1 2 19
M  V30 19 2 19 20
M  V30 20 1 20 21
M  V30 21 2 21 22
M  V30 22 1 22 23
M  V30 23 1 23 24
M  V30 24 2 24 25
M  V30 25 1 25 26
M  V30 26 1 26 27
M  V30 27 2 27 28
M  V30 28 1 27 29
M  V30 29 1 29 30
M  V30 30 2 30 31
M  V30 31 2 23 32
M  V30 32 1 18 4
M  V30 33 1 32 19
M  V30 34 1 16 11
M  V30 35 1 30 24
M  V30 36 1 3 33
M  V30 37 1 5 34
M  V30 38 1 6 35
M  V30 39 1 8 36
M  V30 40 1 12 37
M  V30 41 1 13 38
M  V30 42 1 14 39
M  V30 43 1 15 40
M  V30 44 1 17 41
M  V30 45 1 18 42
M  V30 46 1 20 43
M  V30 47 1 21 44
M  V30 48 1 22 45
M  V30 49 1 25 46
M  V30 50 1 26 47
M  V30 51 1 29 48
M  V30 52 1 32 49
M  V30 END BOND
M  V30 END CTAB
M  END
>  <Dataset>  (797) 
ChEMBL_Kinases

>  <Ligand_Instance>  (797) 
nan

>  <PDB_ID>  (797) 
nan

>  <Standardized_SMILES>  (797) 
O=C(Nc1ccc(NC(=O)c2ccccn2)cc1)c1cccc(-c2c[nH]c(=O)[nH]c2=O)c1

>  <Name>  (797) 
nan

>  <Pocket>  (797) 
nan

>  <ATP_Site>  (797) 
nan

>  <Peripheral>  (797) 
nan

>  <Num_H_Atoms_ProtBoundConf>  (797) 
nan

>  <Num_Resolved_Atoms>  (797) 
nan

>  <Num_Not_Resolved_Atoms>  (797) 
nan

$$$$
CHEMBL3343621
     RDKit          3D

  0  0  0  0  0  0  0  0  0  0999 V3000
M  V30 BEGIN CTAB
M  V30 COUNTS 62 66 0 0 0
M  V30 BEGIN ATOM
M  V30 1 C 5.373092 -0.159478 6.973571 0
M  V30 2 C 4.852593 1.016592 6.242130 0
M  V30 3 C 4.706179 0.815031 4.873381 0
M  V30 4 C 4.220458 1.864733 4.086407 0
M  V30 5 C 4.035412 1.733725 2.626825 0
M  V30 6 N 3.587547 2.697589 1.892351 0
M  V30 7 N 3.456223 2.442612 0.502598 0
M  V30 8 C 2.517923 1.492051 -0.004370 0
M  V30 9 O 1.873741 0.959377 0.944492 0
M  V30 10 N 2.380990 1.231204 -1.399053 0
M  V30 11 C 1.374031 0.240535 -1.624636 0
M  V30 12 C 0.050919 0.583255 -1.816941 0
M  V30 13 C -0.933799 -0.359231 -2.035850 0
M  V30 14 C -0.609582 -1.698393 -2.068161 0
M  V30 15 C -1.725587 -2.643586 -2.308453 0
M  V30 16 N -2.968299 -2.204319 -2.481691 0
M  V30 17 C -3.920926 -3.099592 -2.692382 0
M  V30 18 N -5.294790 -2.861413 -2.899537 0
M  V30 19 C -6.373889 -3.362249 -2.068999 0
M  V30 20 C -7.665504 -3.136940 -2.804420 0
M  V30 21 O -7.874185 -1.776335 -3.000050 0
M  V30 22 C -6.796221 -1.107813 -3.539312 0
M  V30 23 C -5.715558 -2.048470 -4.031437 0
M  V30 24 C -3.531498 -4.435873 -2.713876 0
M  V30 25 S -4.553627 -5.990160 -2.977470 0
M  V30 26 C -3.043365 -7.134412 -2.805526 0
M  V30 27 C -2.008902 -6.267965 -2.583423 0
M  V30 28 C -2.210689 -4.922442 -2.530996 0
M  V30 29 N -1.336526 -3.928630 -2.326766 0
M  V30 30 C 0.706975 -2.065183 -1.878441 0
M  V30 31 C 1.677314 -1.107213 -1.660878 0
M  V30 32 C 3.891156 3.079597 4.652119 0
M  V30 33 C 4.042056 3.270919 6.026952 0
M  V30 34 C 3.718082 4.541522 6.748192 0
M  V30 35 C 4.519641 2.239420 6.802098 0
M  V30 36 O 4.724774 2.272473 8.175097 0
M  V30 37 H 4.591099 -0.922773 7.091686 0
M  V30 38 H 6.213845 -0.603951 6.402906 0
M  V30 39 H 5.701078 0.172555 7.995870 0
M  V30 40 H 4.938235 -0.100043 4.345893 0
M  V30 41 H 4.299844 0.767183 2.192315 0
M  V30 42 H 4.081661 2.983137 -0.166255 0
M  V30 43 H 2.984514 1.749784 -2.076742 0
M  V30 44 H -0.248320 1.626255 -1.799335 0
M  V30 45 H -1.957192 -0.027026 -2.180344 0
M  V30 46 H -6.330463 -2.808343 -1.107966 0
M  V30 47 H -6.263402 -4.433824 -1.901856 0
M  V30 48 H -8.515499 -3.495295 -2.167724 0
M  V30 49 H -7.648963 -3.706399 -3.732278 0
M  V30 50 H -6.360903 -0.410972 -2.781196 0
M  V30 51 H -7.169315 -0.507210 -4.394014 0
M  V30 52 H -6.203322 -2.715214 -4.781894 0
M  V30 53 H -4.906929 -1.424925 -4.450016 0
M  V30 54 H -3.166936 -8.129422 -2.888417 0
M  V30 55 H -1.045021 -6.729783 -2.456717 0
M  V30 56 H 0.914498 -3.140158 -1.912910 0
M  V30 57 H 2.700033 -1.439711 -1.516517 0
M  V30 58 H 3.515271 3.939042 4.146010 0
M  V30 59 H 3.101019 4.312174 7.639256 0
M  V30 60 H 4.619299 5.115892 7.029122 0
M  V30 61 H 3.107499 5.208695 6.096676 0
M  V30 62 H 4.101026 1.727159 8.764609 0
M  V30 END ATOM
M  V30 BEGIN BOND
M  V30 1 1 1 2
M  V30 2 2 2 3
M  V30 3 1 3 4
M  V30 4 1 4 5
M  V30 5 2 5 6
M  V30 6 1 6 7
M  V30 7 1 7 8
M  V30 8 2 8 9
M  V30 9 1 8 10
M  V30 10 1 10 11
M  V30 11 2 11 12
M  V30 12 1 12 13
M  V30 13 2 13 14
M  V30 14 1 14 15
M  V30 15 2 15 16
M  V30 16 1 16 17
M  V30 17 1 17 18
M  V30 18 1 18 19
M  V30 19 1 19 20
M  V30 20 1 20 21
M  V30 21 1 21 22
M  V30 22 1 22 23
M  V30 23 2 17 24
M  V30 24 1 24 25
M  V30 25 1 25 26
M  V30 26 2 26 27
M  V30 27 1 27 28
M  V30 28 2 28 29
M  V30 29 1 14 30
M  V30 30 2 30 31
M  V30 31 2 4 32
M  V30 32 1 32 33
M  V30 33 1 33 34
M  V30 34 2 33 35
M  V30 35 1 35 36
M  V30 36 1 35 2
M  V30 37 1 31 11
M  V30 38 1 29 15
M  V30 39 1 23 18
M  V30 40 1 28 24
M  V30 41 1 1 37
M  V30 42 1 1 38
M  V30 43 1 1 39
M  V30 44 1 3 40
M  V30 45 1 5 41
M  V30 46 1 7 42
M  V30 47 1 10 43
M  V30 48 1 12 44
M  V30 49 1 13 45
M  V30 50 1 19 46
M  V30 51 1 19 47
M  V30 52 1 20 48
M  V30 53 1 20 49
M  V30 54 1 22 50
M  V30 55 1 22 51
M  V30 56 1 23 52
M  V30 57 1 23 53
M  V30 58 1 26 54
M  V30 59 1 27 55
M  V30 60 1 30 56
M  V30 61 1 31 57
M  V30 62 1 32 58
M  V30 63 1 34 59
M  V30 64 1 34 60
M  V30 65 1 34 61
M  V30 66 1 36 62
M  V30 END BOND
M  V30 END CTAB
M  END
>  <Dataset>  (798) 
ChEMBL_Kinases

>  <Ligand_Instance>  (798) 
nan

>  <PDB_ID>  (798) 
nan

>  <Standardized_SMILES>  (798) 
Cc1cc(/C=N/NC(=O)Nc2ccc(-c3nc(N4CCOCC4)c4sccc4n3)cc2)cc(C)c1O

>  <Name>  (798) 
nan

>  <Pocket>  (798) 
nan

>  <ATP_Site>  (798) 
nan

>  <Peripheral>  (798) 
nan

>  <Num_H_Atoms_ProtBoundConf>  (798) 
nan

>  <Num_Resolved_Atoms>  (798) 
nan

>  <Num_Not_Resolved_Atoms>  (798) 
nan

$$$$
CHEMBL3344193
     RDKit          3D

  0  0  0  0  0  0  0  0  0  0999 V3000
M  V30 BEGIN CTAB
M  V30 COUNTS 47 49 0 0 0
M  V30 BEGIN ATOM
M  V30 1 C 1.123782 -1.213373 3.696355 0
M  V30 2 O 0.021650 -1.322735 2.846467 0
M  V30 3 C -0.036687 -0.920549 1.539486 0
M  V30 4 C 1.005220 -0.334485 0.849877 0
M  V30 5 C 0.921513 0.066615 -0.481106 0
M  V30 6 C 2.180130 0.686458 -1.041559 0
M  V30 7 N 2.123643 2.093904 -0.810519 0
M  V30 8 C 3.294322 2.729684 -1.359819 0
M  V30 9 C 4.490619 2.163865 -0.693503 0
M  V30 10 C 5.275719 1.095616 -1.059071 0
M  V30 11 C 6.357270 0.721561 -0.293697 0
M  V30 12 N 6.675570 1.386607 0.827612 0
M  V30 13 C 5.971706 2.432015 1.256603 0
M  V30 14 C 4.889055 2.803064 0.486602 0
M  V30 15 C -0.266963 -0.129221 -1.156620 0
M  V30 16 C -1.318343 -0.714232 -0.480476 0
M  V30 17 C -1.217845 -1.109092 0.849305 0
M  V30 18 O -2.298721 -1.697113 1.502958 0
M  V30 19 C -3.512919 -1.893988 0.802909 0
M  V30 20 C -4.569418 -2.526023 1.618982 0
M  V30 21 C -5.512264 -1.891436 2.400893 0
M  V30 22 C -6.455114 -2.570094 3.124054 0
M  V30 23 C -6.502723 -3.968024 3.099562 0
M  V30 24 Cl -7.686945 -4.882198 4.005091 0
M  V30 25 C -5.580652 -4.642073 2.332489 0
M  V30 26 C -4.631350 -3.916236 1.606282 0
M  V30 27 H 1.824022 -0.392399 3.455341 0
M  V30 28 H 0.836759 -1.122034 4.764296 0
M  V30 29 H 1.666780 -2.192410 3.633084 0
M  V30 30 H 1.920886 -0.200025 1.421123 0
M  V30 31 H 3.052357 0.195076 -0.580765 0
M  V30 32 H 2.209476 0.506042 -2.135439 0
M  V30 33 H 1.282302 2.548038 -1.222916 0
M  V30 34 H 3.270933 3.838925 -1.186002 0
M  V30 35 H 3.314305 2.519422 -2.455063 0
M  V30 36 H 4.938776 0.615283 -1.990266 0
M  V30 37 H 6.931616 -0.127001 -0.638575 0
M  V30 38 H 6.222964 2.968979 2.155552 0
M  V30 39 H 4.325073 3.670034 0.864232 0
M  V30 40 H -0.271227 0.198445 -2.174789 0
M  V30 41 H -2.236616 -0.855438 -1.033662 0
M  V30 42 H -3.351100 -2.528944 -0.108498 0
M  V30 43 H -3.901174 -0.912747 0.420119 0
M  V30 44 H -5.446508 -0.801767 2.397088 0
M  V30 45 H -7.182489 -2.049302 3.728668 0
M  V30 46 H -5.610764 -5.718879 2.308377 0
M  V30 47 H -3.946537 -4.552085 1.030533 0
M  V30 END ATOM
M  V30 BEGIN BOND
M  V30 1 1 1 2
M  V30 2 1 2 3
M  V30 3 2 3 4
M  V30 4 1 4 5
M  V30 5 1 5 6
M  V30 6 1 6 7
M  V30 7 1 7 8
M  V30 8 1 8 9
M  V30 9 2 9 10
M  V30 10 1 10 11
M  V30 11 2 11 12
M  V30 12 1 12 13
M  V30 13 2 13 14
M  V30 14 2 5 15
M  V30 15 1 15 16
M  V30 16 2 16 17
M  V30 17 1 17 18
M  V30 18 1 18 19
M  V30 19 1 19 20
M  V30 20 2 20 21
M  V30 21 1 21 22
M  V30 22 2 22 23
M  V30 23 1 23 24
M  V30 24 1 23 25
M  V30 25 2 25 26
M  V30 26 1 17 3
M  V30 27 1 26 20
M  V30 28 1 14 9
M  V30 29 1 1 27
M  V30 30 1 1 28
M  V30 31 1 1 29
M  V30 32 1 4 30
M  V30 33 1 6 31
M  V30 34 1 6 32
M  V30 35 1 7 33
M  V30 36 1 8 34
M  V30 37 1 8 35
M  V30 38 1 10 36
M  V30 39 1 11 37
M  V30 40 1 13 38
M  V30 41 1 14 39
M  V30 42 1 15 40
M  V30 43 1 16 41
M  V30 44 1 19 42
M  V30 45 1 19 43
M  V30 46 1 21 44
M  V30 47 1 22 45
M  V30 48 1 25 46
M  V30 49 1 26 47
M  V30 END BOND
M  V30 END CTAB
M  END
>  <Dataset>  (799) 
ChEMBL_Kinases

>  <Ligand_Instance>  (799) 
nan

>  <PDB_ID>  (799) 
nan

>  <Standardized_SMILES>  (799) 
COc1cc(CNCc2ccncc2)ccc1OCc1ccc(Cl)cc1

>  <Name>  (799) 
nan

>  <Pocket>  (799) 
nan

>  <ATP_Site>  (799) 
nan

>  <Peripheral>  (799) 
nan

>  <Num_H_Atoms_ProtBoundConf>  (799) 
nan

>  <Num_Resolved_Atoms>  (799) 
nan

>  <Num_Not_Resolved_Atoms>  (799) 
nan

$$$$
CHEMBL334506
     RDKit          3D

  0  0  0  0  0  0  0  0  0  0999 V3000
M  V30 BEGIN CTAB
M  V30 COUNTS 61 64 0 0 0
M  V30 BEGIN ATOM
M  V30 1 C 4.214058 -2.962702 3.483380 0
M  V30 2 C 4.809457 -1.694966 3.996544 0
M  V30 3 C 6.057879 -1.283200 3.260683 0
M  V30 4 C 5.836990 -1.052625 1.804674 0
M  V30 5 C 4.860922 -0.002386 1.482471 0
M  V30 6 C 5.325998 1.280223 1.340121 0
M  V30 7 C 4.492615 2.330495 1.039099 0
M  V30 8 C 3.116766 2.145664 0.860873 0
M  V30 9 N 2.267826 3.238672 0.550422 0
M  V30 10 C 0.866310 3.257515 0.340620 0
M  V30 11 N 0.269640 4.425795 0.054303 0
M  V30 12 C -1.049120 4.533314 -0.157585 0
M  V30 13 C -1.829611 3.401050 -0.079538 0
M  V30 14 C -1.259442 2.185642 0.210839 0
M  V30 15 C -2.072978 0.983375 0.295654 0
M  V30 16 C -3.434394 0.978127 0.097338 0
M  V30 17 C -4.222406 -0.153895 0.173815 0
M  V30 18 C -3.639258 -1.371571 0.465305 0
M  V30 19 S -4.590056 -2.831609 0.574927 0
M  V30 20 O -4.039301 -3.787222 1.596634 0
M  V30 21 O -6.019101 -2.544721 1.016133 0
M  V30 22 N -4.725857 -3.631107 -0.935052 0
M  V30 23 C -3.468193 -4.053053 -1.466577 0
M  V30 24 C -3.649598 -5.014357 -2.607775 0
M  V30 25 N -4.937377 -4.816920 -3.243705 0
M  V30 26 C -5.307363 -3.418952 -3.288235 0
M  V30 27 C -5.473808 -2.870505 -1.901032 0
M  V30 28 C -2.275740 -1.432016 0.674883 0
M  V30 29 C -1.551862 -0.258953 0.582145 0
M  V30 30 N 0.065220 2.200363 0.402791 0
M  V30 31 C 2.704368 0.840601 1.014936 0
M  V30 32 C 3.529501 -0.219578 1.316307 0
M  V30 33 H 3.123106 -2.759375 3.273640 0
M  V30 34 H 4.615467 -3.330981 2.530984 0
M  V30 35 H 4.183557 -3.748270 4.273577 0
M  V30 36 H 5.029251 -1.816215 5.076429 0
M  V30 37 H 4.077828 -0.835684 3.962238 0
M  V30 38 H 6.578519 -0.439821 3.741123 0
M  V30 39 H 6.772275 -2.149442 3.333986 0
M  V30 40 H 5.589324 -2.029703 1.300103 0
M  V30 41 H 6.824994 -0.780305 1.348382 0
M  V30 42 H 6.392453 1.518359 1.462741 0
M  V30 43 H 4.918028 3.337435 0.936387 0
M  V30 44 H 2.776368 4.170575 0.467353 0
M  V30 45 H -1.429713 5.523738 -0.382100 0
M  V30 46 H -2.864649 3.557158 -0.257977 0
M  V30 47 H -3.972532 1.881434 -0.136027 0
M  V30 48 H -5.283623 -0.139456 0.016238 0
M  V30 49 H -2.918487 -3.157448 -1.815203 0
M  V30 50 H -2.882655 -4.517728 -0.631365 0
M  V30 51 H -3.641983 -6.055796 -2.238579 0
M  V30 52 H -2.840676 -4.867652 -3.376873 0
M  V30 53 H -4.907616 -5.192240 -4.215608 0
M  V30 54 H -4.626997 -2.819929 -3.910209 0
M  V30 55 H -6.316452 -3.398033 -3.792775 0
M  V30 56 H -5.076042 -1.833806 -1.862183 0
M  V30 57 H -6.542642 -2.784891 -1.610350 0
M  V30 58 H -1.818191 -2.382180 0.902593 0
M  V30 59 H -0.493693 -0.384406 0.758061 0
M  V30 60 H 1.678399 0.593541 0.900061 0
M  V30 61 H 3.156483 -1.219994 1.425383 0
M  V30 END ATOM
M  V30 BEGIN BOND
M  V30 1 1 1 2
M  V30 2 1 2 3
M  V30 3 1 3 4
M  V30 4 1 4 5
M  V30 5 2 5 6
M  V30 6 1 6 7
M  V30 7 2 7 8
M  V30 8 1 8 9
M  V30 9 1 9 10
M  V30 10 2 10 11
M  V30 11 1 11 12
M  V30 12 2 12 13
M  V30 13 1 13 14
M  V30 14 1 14 15
M  V30 15 2 15 16
M  V30 16 1 16 17
M  V30 17 2 17 18
M  V30 18 1 18 19
M  V30 19 2 19 20
M  V30 20 2 19 21
M  V30 21 1 19 22
M  V30 22 1 22 23
M  V30 23 1 23 24
M  V30 24 1 24 25
M  V30 25 1 25 26
M  V30 26 1 26 27
M  V30 27 1 18 28
M  V30 28 2 28 29
M  V30 29 2 14 30
M  V30 30 1 8 31
M  V30 31 2 31 32
M  V30 32 1 32 5
M  V30 33 1 30 10
M  V30 34 1 29 15
M  V30 35 1 27 22
M  V30 36 1 1 33
M  V30 37 1 1 34
M  V30 38 1 1 35
M  V30 39 1 2 36
M  V30 40 1 2 37
M  V30 41 1 3 38
M  V30 42 1 3 39
M  V30 43 1 4 40
M  V30 44 1 4 41
M  V30 45 1 6 42
M  V30 46 1 7 43
M  V30 47 1 9 44
M  V30 48 1 12 45
M  V30 49 1 13 46
M  V30 50 1 16 47
M  V30 51 1 17 48
M  V30 52 1 23 49
M  V30 53 1 23 50
M  V30 54 1 24 51
M  V30 55 1 24 52
M  V30 56 1 25 53
M  V30 57 1 26 54
M  V30 58 1 26 55
M  V30 59 1 27 56
M  V30 60 1 27 57
M  V30 61 1 28 58
M  V30 62 1 29 59
M  V30 63 1 31 60
M  V30 64 1 32 61
M  V30 END BOND
M  V30 END CTAB
M  END
>  <Dataset>  (800) 
ChEMBL_Kinases

>  <Ligand_Instance>  (800) 
nan

>  <PDB_ID>  (800) 
nan

>  <Standardized_SMILES>  (800) 
CCCCc1ccc(Nc2nccc(-c3ccc(S(=O)(=O)N4CCNCC4)cc3)n2)cc1

>  <Name>  (800) 
nan

>  <Pocket>  (800) 
nan

>  <ATP_Site>  (800) 
nan

>  <Peripheral>  (800) 
nan

>  <Num_H_Atoms_ProtBoundConf>  (800) 
nan

>  <Num_Resolved_Atoms>  (800) 
nan

>  <Num_Not_Resolved_Atoms>  (800) 
nan

$$$$
CHEMBL334555
     RDKit          3D

  0  0  0  0  0  0  0  0  0  0999 V3000
M  V30 BEGIN CTAB
M  V30 COUNTS 55 60 0 0 0
M  V30 BEGIN ATOM
M  V30 1 O 2.497498 -0.173993 4.515540 0
M  V30 2 C 2.179708 -1.089815 3.712949 0
M  V30 3 N 2.646778 -2.426084 3.953217 0
M  V30 4 C 2.073745 -3.134483 2.836759 0
M  V30 5 O 2.314876 -4.394253 2.760032 0
M  V30 6 C 1.290059 -2.206742 1.975346 0
M  V30 7 C 1.350051 -1.038711 2.472812 0
M  V30 8 C 0.791788 0.237763 2.025422 0
M  V30 9 C -0.493074 0.707658 1.958826 0
M  V30 10 N -0.494867 1.959054 1.473743 0
M  V30 11 C 0.761176 2.378992 1.198567 0
M  V30 12 C 1.396376 3.520112 0.699974 0
M  V30 13 C 2.756340 3.644404 0.530587 0
M  V30 14 C 3.574231 2.588213 0.866126 0
M  V30 15 C 2.966048 1.454767 1.359066 0
M  V30 16 C 1.592944 1.306156 1.539319 0
M  V30 17 C -1.604058 2.806754 1.228458 0
M  V30 18 C -2.980731 2.228544 1.412329 0
M  V30 19 O -3.275376 1.133733 0.716472 0
M  V30 20 C -3.131558 1.058018 -0.614856 0
M  V30 21 C -3.557596 -0.234193 -1.251954 0
M  V30 22 O -2.920063 -1.339502 -0.779783 0
M  V30 23 C -3.180111 -2.540178 -1.373530 0
M  V30 24 C -2.501239 -3.711200 -0.636629 0
M  V30 25 N -1.095361 -3.531182 -0.429922 0
M  V30 26 C -0.760935 -2.913511 0.747679 0
M  V30 27 C 0.629189 -2.814679 0.822249 0
M  V30 28 C 1.138558 -3.384911 -0.334307 0
M  V30 29 C 2.447648 -3.527525 -0.714978 0
M  V30 30 C 2.719723 -4.156061 -1.956610 0
M  V30 31 C 1.589185 -4.572512 -2.675431 0
M  V30 32 N 0.312440 -4.412597 -2.263637 0
M  V30 33 C 0.037871 -3.816381 -1.083943 0
M  V30 34 H 3.232756 -2.771149 4.720739 0
M  V30 35 H -1.445019 0.265369 2.216445 0
M  V30 36 H 0.777401 4.362106 0.426842 0
M  V30 37 H 3.147769 4.585160 0.132803 0
M  V30 38 H 4.646377 2.646489 0.749385 0
M  V30 39 H 3.644788 0.650691 1.608572 0
M  V30 40 H -1.537989 3.608779 2.031753 0
M  V30 41 H -1.522831 3.414266 0.298298 0
M  V30 42 H -3.028149 1.958313 2.509835 0
M  V30 43 H -3.777786 2.985679 1.290446 0
M  V30 44 H -3.710231 1.862656 -1.115129 0
M  V30 45 H -2.071236 1.226767 -0.880910 0
M  V30 46 H -4.654104 -0.312027 -1.179947 0
M  V30 47 H -3.335813 -0.117286 -2.348797 0
M  V30 48 H -4.280053 -2.717699 -1.271912 0
M  V30 49 H -2.942423 -2.628903 -2.439856 0
M  V30 50 H -2.715619 -4.657845 -1.206590 0
M  V30 51 H -2.992777 -3.861320 0.341857 0
M  V30 52 H -1.399850 -2.540919 1.530240 0
M  V30 53 H 3.266054 -3.168382 -0.084923 0
M  V30 54 H 3.722803 -4.291948 -2.300592 0
M  V30 55 H 1.849749 -5.045389 -3.611205 0
M  V30 END ATOM
M  V30 BEGIN BOND
M  V30 1 2 1 2
M  V30 2 1 2 3
M  V30 3 1 3 4
M  V30 4 2 4 5
M  V30 5 1 4 6
M  V30 6 2 6 7
M  V30 7 1 7 8
M  V30 8 2 8 9
M  V30 9 1 9 10
M  V30 10 1 10 11
M  V30 11 2 11 12
M  V30 12 1 12 13
M  V30 13 2 13 14
M  V30 14 1 14 15
M  V30 15 2 15 16
M  V30 16 1 10 17
M  V30 17 1 17 18
M  V30 18 1 18 19
M  V30 19 1 19 20
M  V30 20 1 20 21
M  V30 21 1 21 22
M  V30 22 1 22 23
M  V30 23 1 23 24
M  V30 24 1 24 25
M  V30 25 1 25 26
M  V30 26 2 26 27
M  V30 27 1 27 28
M  V30 28 2 28 29
M  V30 29 1 29 30
M  V30 30 2 30 31
M  V30 31 1 31 32
M  V30 32 2 32 33
M  V30 33 1 7 2
M  V30 34 1 16 8
M  V30 35 1 33 25
M  V30 36 1 27 6
M  V30 37 1 33 28
M  V30 38 1 16 11
M  V30 39 1 3 34
M  V30 40 1 9 35
M  V30 41 1 12 36
M  V30 42 1 13 37
M  V30 43 1 14 38
M  V30 44 1 15 39
M  V30 45 1 17 40
M  V30 46 1 17 41
M  V30 47 1 18 42
M  V30 48 1 18 43
M  V30 49 1 20 44
M  V30 50 1 20 45
M  V30 51 1 21 46
M  V30 52 1 21 47
M  V30 53 1 23 48
M  V30 54 1 23 49
M  V30 55 1 24 50
M  V30 56 1 24 51
M  V30 57 1 26 52
M  V30 58 1 29 53
M  V30 59 1 30 54
M  V30 60 1 31 55
M  V30 END BOND
M  V30 END CTAB
M  END
>  <Dataset>  (801) 
ChEMBL_Kinases

>  <Ligand_Instance>  (801) 
nan

>  <PDB_ID>  (801) 
nan

>  <Standardized_SMILES>  (801) 
O=C1NC(=O)C2=C1c1cn(c3ccccc13)CCOCCOCCn1cc2c2cccnc21

>  <Name>  (801) 
nan

>  <Pocket>  (801) 
nan

>  <ATP_Site>  (801) 
nan

>  <Peripheral>  (801) 
nan

>  <Num_H_Atoms_ProtBoundConf>  (801) 
nan

>  <Num_Resolved_Atoms>  (801) 
nan

>  <Num_Not_Resolved_Atoms>  (801) 
nan

$$$$
CHEMBL3343037
     RDKit          3D

  0  0  0  0  0  0  0  0  0  0999 V3000
M  V30 BEGIN CTAB
M  V30 COUNTS 54 57 0 0 0
M  V30 BEGIN ATOM
M  V30 1 C -1.733457 -1.930709 3.315615 0
M  V30 2 O -1.514154 -3.157509 2.656956 0
M  V30 3 C -0.289590 -3.441235 2.110263 0
M  V30 4 C 0.764801 -2.554760 2.178659 0
M  V30 5 C 2.011659 -2.768948 1.657647 0
M  V30 6 C 3.046040 -1.866027 1.740551 0
M  V30 7 N 2.701358 -0.661209 2.430784 0
M  V30 8 C 2.174227 0.406211 1.640031 0
M  V30 9 C 2.037738 0.189022 0.265903 0
M  V30 10 C 1.523350 1.221625 -0.526473 0
M  V30 11 C 1.167002 2.424702 0.080280 0
M  V30 12 N 0.635654 3.499542 -0.717989 0
M  V30 13 C -0.769770 3.376808 -0.775306 0
M  V30 14 O -1.227141 2.391826 -0.139381 0
M  V30 15 C -1.678725 4.270382 -1.486306 0
M  V30 16 C -3.021403 3.963353 -1.408392 0
M  V30 17 C -3.905183 4.785285 -2.067341 0
M  V30 18 C -3.446354 5.867135 -2.771534 0
M  V30 19 C -2.087800 6.175955 -2.849088 0
M  V30 20 C -1.198588 5.349459 -2.186426 0
M  V30 21 C 1.318750 2.595861 1.441386 0
M  V30 22 C 1.825710 1.591170 2.253158 0
M  V30 23 N 4.240729 -2.198226 1.180745 0
M  V30 24 C 4.347039 -3.394248 0.574818 0
M  V30 25 N 3.352066 -4.319023 0.468257 0
M  V30 26 C 2.160980 -3.985542 1.027461 0
M  V30 27 C 1.163983 -4.937599 0.908512 0
M  V30 28 C -0.082518 -4.656875 1.461126 0
M  V30 29 O -1.155541 -5.534619 1.403134 0
M  V30 30 C -0.998098 -6.778231 0.757387 0
M  V30 31 C -2.294209 -7.588357 0.806350 0
M  V30 32 O -2.113335 -8.807681 0.164358 0
M  V30 33 H -1.762457 -1.060550 2.625070 0
M  V30 34 H -2.714643 -1.984319 3.844423 0
M  V30 35 H -0.940380 -1.795614 4.079713 0
M  V30 36 H 0.557053 -1.618892 2.694643 0
M  V30 37 H 2.822563 -0.556024 3.447525 0
M  V30 38 H 2.309604 -0.736614 -0.215353 0
M  V30 39 H 1.385994 1.134945 -1.596865 0
M  V30 40 H 1.068229 4.318558 -1.241439 0
M  V30 41 H -3.415943 3.106911 -0.854041 0
M  V30 42 H -4.986783 4.613267 -2.056793 0
M  V30 43 H -4.158717 6.513245 -3.291318 0
M  V30 44 H -1.781756 7.037466 -3.415839 0
M  V30 45 H -0.163823 5.592098 -2.250668 0
M  V30 46 H 1.029982 3.549498 1.882719 0
M  V30 47 H 1.950402 1.710005 3.320057 0
M  V30 48 H 5.341923 -3.566099 0.158575 0
M  V30 49 H 1.303483 -5.875421 0.414511 0
M  V30 50 H -0.195551 -7.400409 1.206198 0
M  V30 51 H -0.812135 -6.602148 -0.321231 0
M  V30 52 H -2.564243 -7.699248 1.858931 0
M  V30 53 H -3.104365 -6.988118 0.330727 0
M  V30 54 H -2.232696 -8.743525 -0.805988 0
M  V30 END ATOM
M  V30 BEGIN BOND
M  V30 1 1 1 2
M  V30 2 1 2 3
M  V30 3 2 3 4
M  V30 4 1 4 5
M  V30 5 2 5 6
M  V30 6 1 6 7
M  V30 7 1 7 8
M  V30 8 2 8 9
M  V30 9 1 9 10
M  V30 10 2 10 11
M  V30 11 1 11 12
M  V30 12 1 12 13
M  V30 13 2 13 14
M  V30 14 1 13 15
M  V30 15 2 15 16
M  V30 16 1 16 17
M  V30 17 2 17 18
M  V30 18 1 18 19
M  V30 19 2 19 20
M  V30 20 1 11 21
M  V30 21 2 21 22
M  V30 22 1 6 23
M  V30 23 2 23 24
M  V30 24 1 24 25
M  V30 25 2 25 26
M  V30 26 1 26 27
M  V30 27 2 27 28
M  V30 28 1 28 29
M  V30 29 1 29 30
M  V30 30 1 30 31
M  V30 31 1 31 32
M  V30 32 1 28 3
M  V30 33 1 26 5
M  V30 34 1 22 8
M  V30 35 1 20 15
M  V30 36 1 1 33
M  V30 37 1 1 34
M  V30 38 1 1 35
M  V30 39 1 4 36
M  V30 40 1 7 37
M  V30 41 1 9 38
M  V30 42 1 10 39
M  V30 43 1 12 40
M  V30 44 1 16 41
M  V30 45 1 17 42
M  V30 46 1 18 43
M  V30 47 1 19 44
M  V30 48 1 20 45
M  V30 49 1 21 46
M  V30 50 1 22 47
M  V30 51 1 24 48
M  V30 52 1 27 49
M  V30 53 1 30 50
M  V30 54 1 30 51
M  V30 55 1 31 52
M  V30 56 1 31 53
M  V30 57 1 32 54
M  V30 END BOND
M  V30 END CTAB
M  END
>  <Dataset>  (802) 
ChEMBL_Kinases

>  <Ligand_Instance>  (802) 
nan

>  <PDB_ID>  (802) 
nan

>  <Standardized_SMILES>  (802) 
COc1cc2c(Nc3ccc(NC(=O)c4ccccc4)cc3)ncnc2cc1OCCO

>  <Name>  (802) 
nan

>  <Pocket>  (802) 
nan

>  <ATP_Site>  (802) 
nan

>  <Peripheral>  (802) 
nan

>  <Num_H_Atoms_ProtBoundConf>  (802) 
nan

>  <Num_Resolved_Atoms>  (802) 
nan

>  <Num_Not_Resolved_Atoms>  (802) 
nan

$$$$
CHEMBL3355034
     RDKit          3D

  0  0  0  0  0  0  0  0  0  0999 V3000
M  V30 BEGIN CTAB
M  V30 COUNTS 53 56 0 0 0
M  V30 BEGIN ATOM
M  V30 1 C 3.674933 -1.346344 4.892541 0
M  V30 2 C 3.201525 -2.638343 4.246932 0
M  V30 3 C 2.274614 -3.402767 5.163973 0
M  V30 4 C 2.447531 -2.325127 2.954476 0
M  V30 5 O 2.014200 -3.526791 2.365635 0
M  V30 6 C 1.308213 -3.492175 1.184306 0
M  V30 7 N 1.021469 -2.326001 0.576133 0
M  V30 8 C 0.335439 -2.225568 -0.579215 0
M  V30 9 C 0.058265 -0.916447 -1.187431 0
M  V30 10 C 0.519749 0.214147 -0.543339 0
M  V30 11 C 0.295555 1.478631 -1.058118 0
M  V30 12 C -0.405099 1.609739 -2.241649 0
M  V30 13 N -0.753554 2.792223 -2.954850 0
M  V30 14 S -1.382433 4.133179 -2.097719 0
M  V30 15 O -1.515253 5.351782 -2.964673 0
M  V30 16 O -0.370207 4.508053 -1.033550 0
M  V30 17 C -2.870332 3.824850 -1.278082 0
M  V30 18 C -3.593435 2.658926 -1.232946 0
M  V30 19 C -4.777408 2.537286 -0.537741 0
M  V30 20 Cl -5.632219 1.015145 -0.534411 0
M  V30 21 C -5.265104 3.642351 0.150157 0
M  V30 22 C -4.558886 4.832687 0.124013 0
M  V30 23 C -3.360095 4.930476 -0.588722 0
M  V30 24 Cl -2.591000 6.515354 -0.517020 0
M  V30 25 C -0.863649 0.451755 -2.877820 0
M  V30 26 C -0.645693 -0.815127 -2.373195 0
M  V30 27 N -0.077552 -3.361456 -1.141430 0
M  V30 28 C 0.148790 -4.588826 -0.627203 0
M  V30 29 N -0.155228 -5.849648 -0.993769 0
M  V30 30 N 0.339354 -6.693189 -0.074949 0
M  V30 31 C 0.966783 -5.976129 0.891588 0
M  V30 32 N 1.632503 -6.493897 2.059372 0
M  V30 33 C 0.855999 -4.641696 0.558177 0
M  V30 34 H 2.812462 -0.860011 5.367996 0
M  V30 35 H 4.510018 -1.532436 5.580928 0
M  V30 36 H 4.049843 -0.667694 4.081965 0
M  V30 37 H 4.047951 -3.280303 3.965327 0
M  V30 38 H 2.088221 -4.386214 4.674263 0
M  V30 39 H 2.720549 -3.499177 6.171524 0
M  V30 40 H 1.289310 -2.885053 5.188552 0
M  V30 41 H 3.063087 -1.733278 2.262476 0
M  V30 42 H 1.530430 -1.725318 3.191391 0
M  V30 43 H 1.075112 0.182219 0.386806 0
M  V30 44 H 0.608990 2.425302 -0.640846 0
M  V30 45 H -0.637525 2.863532 -3.974264 0
M  V30 46 H -3.159386 1.844107 -1.786642 0
M  V30 47 H -6.190940 3.479860 0.670330 0
M  V30 48 H -5.020214 5.624629 0.686669 0
M  V30 49 H -1.427955 0.448828 -3.818980 0
M  V30 50 H -0.999037 -1.710807 -2.863033 0
M  V30 51 H -0.686455 -6.111334 -1.850587 0
M  V30 52 H 0.993553 -6.651528 2.893458 0
M  V30 53 H 2.640278 -6.716359 2.150799 0
M  V30 END ATOM
M  V30 BEGIN BOND
M  V30 1 1 1 2
M  V30 2 1 2 3
M  V30 3 1 2 4
M  V30 4 1 4 5
M  V30 5 1 5 6
M  V30 6 2 6 7
M  V30 7 1 7 8
M  V30 8 1 8 9
M  V30 9 2 9 10
M  V30 10 1 10 11
M  V30 11 2 11 12
M  V30 12 1 12 13
M  V30 13 1 13 14
M  V30 14 2 14 15
M  V30 15 2 14 16
M  V30 16 1 14 17
M  V30 17 2 17 18
M  V30 18 1 18 19
M  V30 19 1 19 20
M  V30 20 2 19 21
M  V30 21 1 21 22
M  V30 22 2 22 23
M  V30 23 1 23 24
M  V30 24 1 12 25
M  V30 25 2 25 26
M  V30 26 2 8 27
M  V30 27 1 27 28
M  V30 28 1 28 29
M  V30 29 1 29 30
M  V30 30 2 30 31
M  V30 31 1 31 32
M  V30 32 1 31 33
M  V30 33 1 33 6
M  V30 34 1 26 9
M  V30 35 2 33 28
M  V30 36 1 23 17
M  V30 37 1 1 34
M  V30 38 1 1 35
M  V30 39 1 1 36
M  V30 40 1 2 37
M  V30 41 1 3 38
M  V30 42 1 3 39
M  V30 43 1 3 40
M  V30 44 1 4 41
M  V30 45 1 4 42
M  V30 46 1 10 43
M  V30 47 1 11 44
M  V30 48 1 13 45
M  V30 49 1 18 46
M  V30 50 1 21 47
M  V30 51 1 22 48
M  V30 52 1 25 49
M  V30 53 1 26 50
M  V30 54 1 29 51
M  V30 55 1 32 52
M  V30 56 1 32 53
M  V30 END BOND
M  V30 END CTAB
M  END
>  <Dataset>  (803) 
ChEMBL_Kinases

>  <Ligand_Instance>  (803) 
nan

>  <PDB_ID>  (803) 
nan

>  <Standardized_SMILES>  (803) 
CC(C)COc1nc(-c2ccc(NS(=O)(=O)c3cc(Cl)ccc3Cl)cc2)nc2[nH]nc(N)c12

>  <Name>  (803) 
nan

>  <Pocket>  (803) 
nan

>  <ATP_Site>  (803) 
nan

>  <Peripheral>  (803) 
nan

>  <Num_H_Atoms_ProtBoundConf>  (803) 
nan

>  <Num_Resolved_Atoms>  (803) 
nan

>  <Num_Not_Resolved_Atoms>  (803) 
nan

$$$$
CHEMBL3355033
     RDKit          3D

  0  0  0  0  0  0  0  0  0  0999 V3000
M  V30 BEGIN CTAB
M  V30 COUNTS 58 62 0 0 0
M  V30 BEGIN ATOM
M  V30 1 C 6.747660 1.471993 4.043170 0
M  V30 2 C 6.490585 1.889911 2.637648 0
M  V30 3 C 7.327776 1.554069 1.591598 0
M  V30 4 C 7.078294 1.948088 0.291052 0
M  V30 5 C 5.964090 2.703871 -0.010616 0
M  V30 6 F 5.764010 3.062576 -1.287737 0
M  V30 7 C 5.106902 3.056592 1.011819 0
M  V30 8 S 3.704962 4.015875 0.587201 0
M  V30 9 O 2.876767 4.327156 1.804799 0
M  V30 10 O 4.183862 5.307080 -0.012715 0
M  V30 11 N 2.670318 3.250922 -0.535773 0
M  V30 12 C 1.988608 2.028772 -0.327265 0
M  V30 13 C 0.639404 1.914238 -0.683691 0
M  V30 14 C -0.066762 0.721925 -0.492285 0
M  V30 15 C 0.625963 -0.336808 0.063719 0
M  V30 16 C -0.079001 -1.598597 0.278187 0
M  V30 17 N -1.382296 -1.735552 -0.056279 0
M  V30 18 C -2.037939 -2.895047 0.138015 0
M  V30 19 O -3.361839 -3.131532 -0.169401 0
M  V30 20 C -4.221952 -2.182644 -0.735350 0
M  V30 21 C -5.615287 -2.729955 -0.959661 0
M  V30 22 C -6.196064 -3.153201 0.379372 0
M  V30 23 N -7.402979 -3.903947 0.135530 0
M  V30 24 C -7.870734 -3.740375 -1.226932 0
M  V30 25 C -7.710891 -2.322109 -1.692735 0
M  V30 26 O -6.455789 -1.794419 -1.515209 0
M  V30 27 C -1.377060 -3.977826 0.690653 0
M  V30 28 C -1.699870 -5.276536 1.028303 0
M  V30 29 N -0.613464 -5.883819 1.546962 0
M  V30 30 N 0.383547 -5.013049 1.548166 0
M  V30 31 C -0.041915 -3.837549 1.033309 0
M  V30 32 N 0.551364 -2.659263 0.814589 0
M  V30 33 C 1.962704 -0.248808 0.425367 0
M  V30 34 C 2.658373 0.946906 0.229761 0
M  V30 35 C 5.384248 2.646996 2.301671 0
M  V30 36 H 6.017365 1.996224 4.685680 0
M  V30 37 H 7.787585 1.741423 4.330152 0
M  V30 38 H 6.680168 0.365405 4.155111 0
M  V30 39 H 8.205947 0.957013 1.836949 0
M  V30 40 H 7.762795 1.661282 -0.497741 0
M  V30 41 H 2.465866 3.658196 -1.495231 0
M  V30 42 H 0.097333 2.747071 -1.120239 0
M  V30 43 H -1.108812 0.645339 -0.771542 0
M  V30 44 H -4.231825 -1.283561 -0.090105 0
M  V30 45 H -3.809550 -1.876680 -1.736384 0
M  V30 46 H -5.502615 -3.595955 -1.655325 0
M  V30 47 H -5.439901 -3.764555 0.936823 0
M  V30 48 H -6.463247 -2.230830 0.922114 0
M  V30 49 H -7.170496 -4.915197 0.294722 0
M  V30 50 H -8.973517 -3.948953 -1.187966 0
M  V30 51 H -7.462362 -4.497279 -1.909657 0
M  V30 52 H -8.056748 -2.300880 -2.757035 0
M  V30 53 H -8.485349 -1.705988 -1.149586 0
M  V30 54 H -2.698212 -5.687890 0.874011 0
M  V30 55 H 1.348066 -5.234693 1.903060 0
M  V30 56 H 2.444917 -1.121771 0.857762 0
M  V30 57 H 3.687010 0.974278 0.521579 0
M  V30 58 H 4.674595 2.954218 3.064870 0
M  V30 END ATOM
M  V30 BEGIN BOND
M  V30 1 1 1 2
M  V30 2 2 2 3
M  V30 3 1 3 4
M  V30 4 2 4 5
M  V30 5 1 5 6
M  V30 6 1 5 7
M  V30 7 1 7 8
M  V30 8 2 8 9
M  V30 9 2 8 10
M  V30 10 1 8 11
M  V30 11 1 11 12
M  V30 12 2 12 13
M  V30 13 1 13 14
M  V30 14 2 14 15
M  V30 15 1 15 16
M  V30 16 2 16 17
M  V30 17 1 17 18
M  V30 18 1 18 19
M  V30 19 1 19 20
M  V30 20 1 20 21
M  V30 21 1 21 22
M  V30 22 1 22 23
M  V30 23 1 23 24
M  V30 24 1 24 25
M  V30 25 1 25 26
M  V30 26 2 18 27
M  V30 27 1 27 28
M  V30 28 2 28 29
M  V30 29 1 29 30
M  V30 30 1 30 31
M  V30 31 2 31 32
M  V30 32 1 15 33
M  V30 33 2 33 34
M  V30 34 2 7 35
M  V30 35 1 35 2
M  V30 36 1 34 12
M  V30 37 1 32 16
M  V30 38 1 26 21
M  V30 39 1 31 27
M  V30 40 1 1 36
M  V30 41 1 1 37
M  V30 42 1 1 38
M  V30 43 1 3 39
M  V30 44 1 4 40
M  V30 45 1 11 41
M  V30 46 1 13 42
M  V30 47 1 14 43
M  V30 48 1 20 44
M  V30 49 1 20 45
M  V30 50 1 21 46
M  V30 51 1 22 47
M  V30 52 1 22 48
M  V30 53 1 23 49
M  V30 54 1 24 50
M  V30 55 1 24 51
M  V30 56 1 25 52
M  V30 57 1 25 53
M  V30 58 1 28 54
M  V30 59 1 30 55
M  V30 60 1 33 56
M  V30 61 1 34 57
M  V30 62 1 35 58
M  V30 END BOND
M  V30 END CTAB
M  END
>  <Dataset>  (804) 
ChEMBL_Kinases

>  <Ligand_Instance>  (804) 
nan

>  <PDB_ID>  (804) 
nan

>  <Standardized_SMILES>  (804) 
Cc1ccc(F)c(S(=O)(=O)Nc2ccc(-c3nc(OCC4CNCCO4)c4cn[nH]c4n3)cc2)c1

>  <Name>  (804) 
nan

>  <Pocket>  (804) 
nan

>  <ATP_Site>  (804) 
nan

>  <Peripheral>  (804) 
nan

>  <Num_H_Atoms_ProtBoundConf>  (804) 
nan

>  <Num_Resolved_Atoms>  (804) 
nan

>  <Num_Not_Resolved_Atoms>  (804) 
nan

$$$$
CHEMBL3355032
     RDKit          3D

  0  0  0  0  0  0  0  0  0  0999 V3000
M  V30 BEGIN CTAB
M  V30 COUNTS 48 52 0 0 0
M  V30 BEGIN ATOM
M  V30 1 C 3.647833 -1.871506 -3.521654 0
M  V30 2 C 3.954348 -0.865171 -2.465463 0
M  V30 3 C 4.889269 -1.123880 -1.510928 0
M  V30 4 C 5.118300 -0.138235 -0.562565 0
M  V30 5 C 4.440098 1.063170 -0.564504 0
M  V30 6 F 4.692403 2.012360 0.387174 0
M  V30 7 C 3.504479 1.266468 -1.557626 0
M  V30 8 S 2.658917 2.782543 -1.547685 0
M  V30 9 O 3.629784 3.928957 -1.691145 0
M  V30 10 O 1.697465 2.905360 -2.695522 0
M  V30 11 N 1.773086 3.031737 -0.094544 0
M  V30 12 C 0.734401 2.127813 0.244612 0
M  V30 13 C 0.733918 1.713785 1.582687 0
M  V30 14 C -0.264163 0.820951 1.987083 0
M  V30 15 C -1.218913 0.359761 1.103053 0
M  V30 16 C -2.245040 -0.573009 1.566852 0
M  V30 17 N -2.302976 -1.011919 2.842523 0
M  V30 18 C -3.241439 -1.867394 3.274450 0
M  V30 19 C -3.298349 -2.345844 4.680593 0
M  V30 20 C -2.504994 -3.620342 4.971316 0
M  V30 21 C -1.979029 -2.339082 5.451357 0
M  V30 22 C -4.185490 -2.315541 2.374783 0
M  V30 23 C -5.269914 -3.177890 2.465727 0
M  V30 24 N -5.841898 -3.235973 1.230176 0
M  V30 25 N -5.170176 -2.459342 0.389478 0
M  V30 26 C -4.152794 -1.882721 1.056004 0
M  V30 27 N -3.175860 -1.022879 0.705691 0
M  V30 28 C -1.207339 0.775603 -0.213288 0
M  V30 29 C -0.228155 1.656829 -0.627164 0
M  V30 30 C 3.242120 0.317782 -2.521123 0
M  V30 31 H 4.494634 -1.993958 -4.227084 0
M  V30 32 H 2.680858 -1.664529 -4.026114 0
M  V30 33 H 3.500713 -2.847218 -2.985329 0
M  V30 34 H 5.407897 -2.068188 -1.526875 0
M  V30 35 H 5.870669 -0.352667 0.201336 0
M  V30 36 H 1.961410 3.836218 0.574869 0
M  V30 37 H 1.470911 2.061467 2.292017 0
M  V30 38 H -0.251024 0.512419 3.017804 0
M  V30 39 H -4.216501 -2.157425 5.271053 0
M  V30 40 H -1.979810 -4.096611 4.102968 0
M  V30 41 H -2.950380 -4.353199 5.676615 0
M  V30 42 H -2.028913 -2.046320 6.532713 0
M  V30 43 H -1.086382 -1.882839 4.955456 0
M  V30 44 H -5.579969 -3.694656 3.365835 0
M  V30 45 H -5.350777 -2.288573 -0.612382 0
M  V30 46 H -1.932899 0.434867 -0.916634 0
M  V30 47 H -0.189186 2.003359 -1.651122 0
M  V30 48 H 2.492879 0.518247 -3.290750 0
M  V30 END ATOM
M  V30 BEGIN BOND
M  V30 1 1 1 2
M  V30 2 2 2 3
M  V30 3 1 3 4
M  V30 4 2 4 5
M  V30 5 1 5 6
M  V30 6 1 5 7
M  V30 7 1 7 8
M  V30 8 2 8 9
M  V30 9 2 8 10
M  V30 10 1 8 11
M  V30 11 1 11 12
M  V30 12 2 12 13
M  V30 13 1 13 14
M  V30 14 2 14 15
M  V30 15 1 15 16
M  V30 16 2 16 17
M  V30 17 1 17 18
M  V30 18 1 18 19
M  V30 19 1 19 20
M  V30 20 1 20 21
M  V30 21 2 18 22
M  V30 22 1 22 23
M  V30 23 2 23 24
M  V30 24 1 24 25
M  V30 25 1 25 26
M  V30 26 2 26 27
M  V30 27 1 15 28
M  V30 28 2 28 29
M  V30 29 2 7 30
M  V30 30 1 30 2
M  V30 31 1 29 12
M  V30 32 1 27 16
M  V30 33 1 21 19
M  V30 34 1 26 22
M  V30 35 1 1 31
M  V30 36 1 1 32
M  V30 37 1 1 33
M  V30 38 1 3 34
M  V30 39 1 4 35
M  V30 40 1 11 36
M  V30 41 1 13 37
M  V30 42 1 14 38
M  V30 43 1 19 39
M  V30 44 1 20 40
M  V30 45 1 20 41
M  V30 46 1 21 42
M  V30 47 1 21 43
M  V30 48 1 23 44
M  V30 49 1 25 45
M  V30 50 1 28 46
M  V30 51 1 29 47
M  V30 52 1 30 48
M  V30 END BOND
M  V30 END CTAB
M  END
>  <Dataset>  (805) 
ChEMBL_Kinases

>  <Ligand_Instance>  (805) 
nan

>  <PDB_ID>  (805) 
nan

>  <Standardized_SMILES>  (805) 
Cc1ccc(F)c(S(=O)(=O)Nc2ccc(-c3nc(C4CC4)c4cn[nH]c4n3)cc2)c1

>  <Name>  (805) 
nan

>  <Pocket>  (805) 
nan

>  <ATP_Site>  (805) 
nan

>  <Peripheral>  (805) 
nan

>  <Num_H_Atoms_ProtBoundConf>  (805) 
nan

>  <Num_Resolved_Atoms>  (805) 
nan

>  <Num_Not_Resolved_Atoms>  (805) 
nan

$$$$
CHEMBL3355031
     RDKit          3D

  0  0  0  0  0  0  0  0  0  0999 V3000
M  V30 BEGIN CTAB
M  V30 COUNTS 45 48 0 0 0
M  V30 BEGIN ATOM
M  V30 1 C 0.072217 -6.284488 2.178455 0
M  V30 2 O -0.692926 -6.436228 1.024426 0
M  V30 3 C -0.844481 -5.486532 0.037299 0
M  V30 4 N -0.190173 -4.316649 0.218844 0
M  V30 5 C -0.267603 -3.317491 -0.683399 0
M  V30 6 C 0.463900 -2.084221 -0.422899 0
M  V30 7 C 0.404425 -1.044239 -1.326816 0
M  V30 8 C 1.124059 0.081708 -1.002971 0
M  V30 9 C 1.882799 0.215845 0.153639 0
M  V30 10 N 2.549959 1.453853 0.283205 0
M  V30 11 S 2.235647 3.141316 0.146661 0
M  V30 12 O 3.461692 3.953766 0.313122 0
M  V30 13 O 1.635205 3.399786 -1.231904 0
M  V30 14 C 1.027745 3.571326 1.334639 0
M  V30 15 C 1.384964 4.494179 2.316813 0
M  V30 16 C 0.573088 4.948648 3.334004 0
M  V30 17 C 1.077274 5.938250 4.321902 0
M  V30 18 C -0.712266 4.451932 3.395731 0
M  V30 19 C -1.098878 3.545328 2.449946 0
M  V30 20 C -0.261264 3.111467 1.444933 0
M  V30 21 F -0.646614 2.218147 0.506263 0
M  V30 22 C 1.932892 -0.836864 1.051581 0
M  V30 23 C 1.205177 -1.957853 0.710601 0
M  V30 24 N -1.007651 -3.495614 -1.775258 0
M  V30 25 C -1.694390 -4.624365 -2.042538 0
M  V30 26 N -2.500471 -5.111167 -3.005169 0
M  V30 27 N -2.900012 -6.335659 -2.721088 0
M  V30 28 C -2.359081 -6.714875 -1.528592 0
M  V30 29 C -1.602819 -5.640792 -1.103437 0
M  V30 30 H 0.462128 -7.297704 2.464098 0
M  V30 31 H -0.419806 -5.801523 3.028664 0
M  V30 32 H 1.011467 -5.687117 2.007490 0
M  V30 33 H -0.176550 -1.132134 -2.223911 0
M  V30 34 H 1.051823 0.884106 -1.744099 0
M  V30 35 H 3.531567 1.197585 0.541233 0
M  V30 36 H 2.400698 4.912035 2.300263 0
M  V30 37 H 0.529492 5.758597 5.288283 0
M  V30 38 H 2.154390 5.730991 4.570606 0
M  V30 39 H 0.979039 6.981003 3.991392 0
M  V30 40 H -1.372329 4.781374 4.171842 0
M  V30 41 H -2.112820 3.134048 2.473880 0
M  V30 42 H 2.531656 -0.692704 1.934395 0
M  V30 43 H 1.237990 -2.790737 1.409929 0
M  V30 44 H -2.738855 -4.522318 -3.857183 0
M  V30 45 H -2.493469 -7.667022 -1.014729 0
M  V30 END ATOM
M  V30 BEGIN BOND
M  V30 1 1 1 2
M  V30 2 1 2 3
M  V30 3 2 3 4
M  V30 4 1 4 5
M  V30 5 1 5 6
M  V30 6 2 6 7
M  V30 7 1 7 8
M  V30 8 2 8 9
M  V30 9 1 9 10
M  V30 10 1 10 11
M  V30 11 2 11 12
M  V30 12 2 11 13
M  V30 13 1 11 14
M  V30 14 2 14 15
M  V30 15 1 15 16
M  V30 16 1 16 17
M  V30 17 2 16 18
M  V30 18 1 18 19
M  V30 19 2 19 20
M  V30 20 1 20 21
M  V30 21 1 9 22
M  V30 22 2 22 23
M  V30 23 2 5 24
M  V30 24 1 24 25
M  V30 25 1 25 26
M  V30 26 1 26 27
M  V30 27 2 27 28
M  V30 28 1 28 29
M  V30 29 1 29 3
M  V30 30 1 23 6
M  V30 31 2 29 25
M  V30 32 1 20 14
M  V30 33 1 1 30
M  V30 34 1 1 31
M  V30 35 1 1 32
M  V30 36 1 7 33
M  V30 37 1 8 34
M  V30 38 1 10 35
M  V30 39 1 15 36
M  V30 40 1 17 37
M  V30 41 1 17 38
M  V30 42 1 17 39
M  V30 43 1 18 40
M  V30 44 1 19 41
M  V30 45 1 22 42
M  V30 46 1 23 43
M  V30 47 1 26 44
M  V30 48 1 28 45
M  V30 END BOND
M  V30 END CTAB
M  END
>  <Dataset>  (806) 
ChEMBL_Kinases

>  <Ligand_Instance>  (806) 
nan

>  <PDB_ID>  (806) 
nan

>  <Standardized_SMILES>  (806) 
COc1nc(-c2ccc(NS(=O)(=O)c3cc(C)ccc3F)cc2)nc2[nH]ncc12

>  <Name>  (806) 
nan

>  <Pocket>  (806) 
nan

>  <ATP_Site>  (806) 
nan

>  <Peripheral>  (806) 
nan

>  <Num_H_Atoms_ProtBoundConf>  (806) 
nan

>  <Num_Resolved_Atoms>  (806) 
nan

>  <Num_Not_Resolved_Atoms>  (806) 
nan

$$$$
CHEMBL3355030
     RDKit          3D

  0  0  0  0  0  0  0  0  0  0999 V3000
M  V30 BEGIN CTAB
M  V30 COUNTS 63 67 0 0 0
M  V30 BEGIN ATOM
M  V30 1 C 0.840922 -0.324672 4.958735 0
M  V30 2 O 2.033488 0.048936 5.623604 0
M  V30 3 C 2.442987 1.369863 5.513072 0
M  V30 4 C 3.597499 1.831833 6.127628 0
M  V30 5 C 4.058271 3.142103 6.052983 0
M  V30 6 C 3.281807 4.021345 5.301528 0
M  V30 7 F 3.760210 5.286163 5.250606 0
M  V30 8 C 2.124492 3.621995 4.667677 0
M  V30 9 S 1.277848 4.844693 3.773053 0
M  V30 10 O 2.159152 5.508730 2.770712 0
M  V30 11 O 0.859109 5.896678 4.761607 0
M  V30 12 N -0.148799 4.238118 3.018849 0
M  V30 13 C -0.116960 3.207918 2.041065 0
M  V30 14 C 0.866080 3.313988 1.049331 0
M  V30 15 C 0.897766 2.315769 0.103820 0
M  V30 16 C 0.066785 1.230684 0.034117 0
M  V30 17 C 0.212355 0.246306 -1.030011 0
M  V30 18 N -0.593383 -0.824124 -1.141201 0
M  V30 19 C -0.461600 -1.753563 -2.136175 0
M  V30 20 O -1.274325 -2.735458 -2.159476 0
M  V30 21 C -2.107069 -3.742146 -2.183905 0 CFG=1
M  V30 22 C -2.040001 -4.660800 -0.951264 0
M  V30 23 C -2.564342 -5.987366 -1.437901 0
M  V30 24 C -3.993969 -5.853631 -1.809166 0 CFG=2
M  V30 25 O -4.211232 -6.737188 -2.895947 0
M  V30 26 C -4.514987 -4.509799 -2.126439 0
M  V30 27 C -3.575817 -3.423131 -2.395700 0
M  V30 28 C 0.557714 -1.539343 -3.041055 0
M  V30 29 C 1.000774 -2.227525 -4.151434 0
M  V30 30 C 0.371221 -3.487790 -4.628408 0
M  V30 31 N 2.051942 -1.563792 -4.677926 0
M  V30 32 N 2.314377 -0.473884 -3.961520 0
M  V30 33 C 1.402819 -0.452366 -2.957035 0
M  V30 34 N 1.184260 0.398828 -1.940451 0
M  V30 35 C -0.891880 1.148652 1.020740 0
M  V30 36 C -0.988816 2.113721 2.008368 0
M  V30 37 C 1.746384 2.315802 4.794405 0
M  V30 38 H 0.000441 0.237409 5.432280 0
M  V30 39 H 0.731887 -1.417272 5.096419 0
M  V30 40 H 0.848233 -0.030949 3.885959 0
M  V30 41 H 4.213934 1.139925 6.722623 0
M  V30 42 H 4.974494 3.435182 6.560679 0
M  V30 43 H -1.138896 4.567675 3.210502 0
M  V30 44 H 1.577670 4.113291 0.990391 0
M  V30 45 H 1.662022 2.389185 -0.675762 0
M  V30 46 H -1.861225 -4.431588 -3.058039 0
M  V30 47 H -2.757147 -4.309063 -0.183534 0
M  V30 48 H -1.001524 -4.729491 -0.583127 0
M  V30 49 H -1.960252 -6.270359 -2.344530 0
M  V30 50 H -2.412619 -6.774182 -0.665978 0
M  V30 51 H -4.594031 -6.333034 -0.982120 0
M  V30 52 H -5.086244 -7.184462 -2.852204 0
M  V30 53 H -5.209581 -4.189014 -1.299527 0
M  V30 54 H -5.216677 -4.600896 -3.007262 0
M  V30 55 H -3.747621 -2.532993 -1.727229 0
M  V30 56 H -3.627918 -3.015798 -3.427358 0
M  V30 57 H -0.713841 -3.333687 -4.857332 0
M  V30 58 H 0.915857 -3.797127 -5.544922 0
M  V30 59 H 0.545282 -4.293109 -3.887731 0
M  V30 60 H 3.066738 0.231084 -4.128215 0
M  V30 61 H -1.580768 0.315319 1.023837 0
M  V30 62 H -1.734905 2.063987 2.789320 0
M  V30 63 H 0.826148 2.011853 4.286266 0
M  V30 END ATOM
M  V30 BEGIN BOND
M  V30 1 1 1 2
M  V30 2 1 2 3
M  V30 3 2 3 4
M  V30 4 1 4 5
M  V30 5 2 5 6
M  V30 6 1 6 7
M  V30 7 1 6 8
M  V30 8 1 8 9
M  V30 9 2 9 10
M  V30 10 2 9 11
M  V30 11 1 9 12
M  V30 12 1 12 13
M  V30 13 2 13 14
M  V30 14 1 14 15
M  V30 15 2 15 16
M  V30 16 1 16 17
M  V30 17 2 17 18
M  V30 18 1 18 19
M  V30 19 1 19 20
M  V30 20 1 20 21
M  V30 21 1 21 22
M  V30 22 1 22 23
M  V30 23 1 23 24
M  V30 24 1 24 25
M  V30 25 1 24 26
M  V30 26 1 26 27
M  V30 27 2 19 28
M  V30 28 1 28 29
M  V30 29 1 29 30
M  V30 30 2 29 31
M  V30 31 1 31 32
M  V30 32 1 32 33
M  V30 33 2 33 34
M  V30 34 1 16 35
M  V30 35 2 35 36
M  V30 36 2 8 37
M  V30 37 1 37 3
M  V30 38 1 36 13
M  V30 39 1 34 17
M  V30 40 1 27 21
M  V30 41 1 33 28
M  V30 42 1 1 38
M  V30 43 1 1 39
M  V30 44 1 1 40
M  V30 45 1 4 41
M  V30 46 1 5 42
M  V30 47 1 12 43
M  V30 48 1 14 44
M  V30 49 1 15 45
M  V30 50 1 21 46 CFG=3
M  V30 51 1 22 47
M  V30 52 1 22 48
M  V30 53 1 23 49
M  V30 54 1 23 50
M  V30 55 1 24 51 CFG=1
M  V30 56 1 25 52
M  V30 57 1 26 53
M  V30 58 1 26 54
M  V30 59 1 27 55
M  V30 60 1 27 56
M  V30 61 1 30 57
M  V30 62 1 30 58
M  V30 63 1 30 59
M  V30 64 1 32 60
M  V30 65 1 35 61
M  V30 66 1 36 62
M  V30 67 1 37 63
M  V30 END BOND
M  V30 END CTAB
M  END
>  <Dataset>  (807) 
ChEMBL_Kinases

>  <Ligand_Instance>  (807) 
nan

>  <PDB_ID>  (807) 
nan

>  <Standardized_SMILES>  (807) 
COc1ccc(F)c(S(=O)(=O)Nc2ccc(-c3nc(O[C@H]4CC[C@H](O)CC4)c4c(C)n[nH]c4n3)cc2)c1

>  <Name>  (807) 
nan

>  <Pocket>  (807) 
nan

>  <ATP_Site>  (807) 
nan

>  <Peripheral>  (807) 
nan

>  <Num_H_Atoms_ProtBoundConf>  (807) 
nan

>  <Num_Resolved_Atoms>  (807) 
nan

>  <Num_Not_Resolved_Atoms>  (807) 
nan

$$$$
CHEMBL3355028
     RDKit          3D

  0  0  0  0  0  0  0  0  0  0999 V3000
M  V30 BEGIN CTAB
M  V30 COUNTS 50 53 0 0 0
M  V30 BEGIN ATOM
M  V30 1 N 4.776609 -2.214062 6.216307 0
M  V30 2 C 3.762487 -2.188503 5.159490 0
M  V30 3 C 4.413773 -1.459933 3.995936 0
M  V30 4 C 3.448031 -1.371985 2.834168 0
M  V30 5 O 3.121301 -2.694842 2.465440 0
M  V30 6 C 2.262300 -3.024501 1.439488 0
M  V30 7 N 1.672593 -2.052004 0.713678 0
M  V30 8 C 0.822321 -2.302621 -0.303196 0
M  V30 9 C 0.205136 -1.216022 -1.063979 0
M  V30 10 C 0.503642 0.090779 -0.728601 0
M  V30 11 C -0.060053 1.153506 -1.424646 0
M  V30 12 C -0.940860 0.921736 -2.478641 0
M  V30 13 N -1.483146 2.054048 -3.150235 0
M  V30 14 S -2.092581 3.414681 -2.307935 0
M  V30 15 O -1.041605 4.044870 -1.406418 0
M  V30 16 O -2.533481 4.456299 -3.263815 0
M  V30 17 C -3.445263 3.037287 -1.269600 0
M  V30 18 C -3.973652 1.769372 -1.138155 0
M  V30 19 C -5.040705 1.450105 -0.324370 0
M  V30 20 Cl -5.634147 -0.206603 -0.233671 0
M  V30 21 C -5.601367 2.483271 0.397033 0
M  V30 22 C -5.111761 3.785250 0.306341 0
M  V30 23 C -4.042746 4.035765 -0.525903 0
M  V30 24 Cl -3.482726 5.706180 -0.585302 0
M  V30 25 C -1.232504 -0.400499 -2.805503 0
M  V30 26 C -0.669971 -1.453796 -2.111020 0
M  V30 27 N 0.557997 -3.583364 -0.597745 0
M  V30 28 C 1.098536 -4.628757 0.070310 0
M  V30 29 N 1.007175 -5.968747 -0.015400 0
M  V30 30 N 1.781410 -6.532679 0.924752 0
M  V30 31 C 2.378505 -5.539665 1.624188 0
M  V30 32 C 1.963398 -4.329743 1.103843 0
M  V30 33 H 4.259285 -2.396472 7.107654 0
M  V30 34 H 5.210008 -1.257895 6.212189 0
M  V30 35 H 3.560680 -3.247705 4.915003 0
M  V30 36 H 2.820545 -1.713063 5.482781 0
M  V30 37 H 4.840256 -0.497403 4.301210 0
M  V30 38 H 5.287295 -2.092614 3.685545 0
M  V30 39 H 3.973541 -0.832493 2.006259 0
M  V30 40 H 2.549371 -0.802866 3.137540 0
M  V30 41 H 1.200628 0.250571 0.105854 0
M  V30 42 H 0.249079 2.125109 -1.070553 0
M  V30 43 H -1.491657 2.014255 -4.204467 0
M  V30 44 H -3.540002 0.962849 -1.697935 0
M  V30 45 H -6.446679 2.236683 1.043248 0
M  V30 46 H -5.607947 4.542757 0.906411 0
M  V30 47 H -1.926019 -0.539318 -3.636157 0
M  V30 48 H -0.917487 -2.472601 -2.390259 0
M  V30 49 H 0.426199 -6.494180 -0.703857 0
M  V30 50 H 3.065782 -5.661876 2.451957 0
M  V30 END ATOM
M  V30 BEGIN BOND
M  V30 1 1 1 2
M  V30 2 1 2 3
M  V30 3 1 3 4
M  V30 4 1 4 5
M  V30 5 1 5 6
M  V30 6 2 6 7
M  V30 7 1 7 8
M  V30 8 1 8 9
M  V30 9 2 9 10
M  V30 10 1 10 11
M  V30 11 2 11 12
M  V30 12 1 12 13
M  V30 13 1 13 14
M  V30 14 2 14 15
M  V30 15 2 14 16
M  V30 16 1 14 17
M  V30 17 2 17 18
M  V30 18 1 18 19
M  V30 19 1 19 20
M  V30 20 2 19 21
M  V30 21 1 21 22
M  V30 22 2 22 23
M  V30 23 1 23 24
M  V30 24 1 12 25
M  V30 25 2 25 26
M  V30 26 2 8 27
M  V30 27 1 27 28
M  V30 28 1 28 29
M  V30 29 1 29 30
M  V30 30 2 30 31
M  V30 31 1 31 32
M  V30 32 1 32 6
M  V30 33 1 26 9
M  V30 34 2 32 28
M  V30 35 1 23 17
M  V30 36 1 1 33
M  V30 37 1 1 34
M  V30 38 1 2 35
M  V30 39 1 2 36
M  V30 40 1 3 37
M  V30 41 1 3 38
M  V30 42 1 4 39
M  V30 43 1 4 40
M  V30 44 1 10 41
M  V30 45 1 11 42
M  V30 46 1 13 43
M  V30 47 1 18 44
M  V30 48 1 21 45
M  V30 49 1 22 46
M  V30 50 1 25 47
M  V30 51 1 26 48
M  V30 52 1 29 49
M  V30 53 1 31 50
M  V30 END BOND
M  V30 END CTAB
M  END
>  <Dataset>  (808) 
ChEMBL_Kinases

>  <Ligand_Instance>  (808) 
nan

>  <PDB_ID>  (808) 
nan

>  <Standardized_SMILES>  (808) 
NCCCOc1nc(-c2ccc(NS(=O)(=O)c3cc(Cl)ccc3Cl)cc2)nc2[nH]ncc12

>  <Name>  (808) 
nan

>  <Pocket>  (808) 
nan

>  <ATP_Site>  (808) 
nan

>  <Peripheral>  (808) 
nan

>  <Num_H_Atoms_ProtBoundConf>  (808) 
nan

>  <Num_Resolved_Atoms>  (808) 
nan

>  <Num_Not_Resolved_Atoms>  (808) 
nan

$$$$
CHEMBL3355027
     RDKit          3D

  0  0  0  0  0  0  0  0  0  0999 V3000
M  V30 BEGIN CTAB
M  V30 COUNTS 57 61 0 0 0
M  V30 BEGIN ATOM
M  V30 1 N 0.873421 3.199659 2.360966 0
M  V30 2 C 0.997127 2.728616 3.422697 0
M  V30 3 C 1.171278 2.163225 4.722120 0
M  V30 4 C 0.056825 2.028513 5.562645 0
M  V30 5 C 0.277504 1.505315 6.824100 0
M  V30 6 C 1.522509 1.124470 7.265451 0
M  V30 7 Cl 1.631303 0.478893 8.893688 0
M  V30 8 C 2.607552 1.269854 6.409279 0
M  V30 9 C 2.431387 1.791345 5.130707 0
M  V30 10 S 3.856062 1.885315 4.132747 0
M  V30 11 O 3.868333 3.301075 3.560360 0
M  V30 12 O 5.100871 1.783265 4.968924 0
M  V30 13 N 3.863961 0.798939 2.811975 0
M  V30 14 C 3.270770 0.348841 1.614437 0
M  V30 15 C 1.920702 -0.000510 1.682910 0
M  V30 16 C 1.288255 -0.467125 0.548412 0
M  V30 17 C 2.045630 -0.560317 -0.601646 0
M  V30 18 C 1.360836 -1.065551 -1.804543 0
M  V30 19 N 0.067457 -1.428596 -1.790073 0
M  V30 20 C -0.573426 -1.897685 -2.878763 0
M  V30 21 O -1.891629 -2.230099 -2.718113 0
M  V30 22 C -2.598337 -2.098924 -1.499896 0
M  V30 23 C -3.771750 -1.193289 -1.585473 0
M  V30 24 C -5.078791 -1.783326 -1.155065 0
M  V30 25 C -5.218035 -3.139799 -1.770856 0
M  V30 26 O -5.300044 -3.072854 -3.165950 0
M  V30 27 C -4.126250 -4.093425 -1.384804 0
M  V30 28 C -2.886198 -3.447097 -0.888721 0
M  V30 29 C 0.100377 -2.020822 -4.071628 0
M  V30 30 C -0.299473 -2.462782 -5.330333 0
M  V30 31 N 0.811097 -2.345822 -6.090255 0
M  V30 32 N 1.811378 -1.875310 -5.375467 0
M  V30 33 C 1.429714 -1.652895 -4.107697 0
M  V30 34 N 2.012880 -1.185553 -2.961791 0
M  V30 35 C 3.378988 -0.225946 -0.709889 0
M  V30 36 C 3.980925 0.235727 0.437358 0
M  V30 37 H -0.888511 2.350534 5.147165 0
M  V30 38 H -0.648919 1.441764 7.395550 0
M  V30 39 H 3.534977 0.936712 6.866520 0
M  V30 40 H 4.687493 0.123019 2.918263 0
M  V30 41 H 1.277875 0.037800 2.547059 0
M  V30 42 H 0.237575 -0.756678 0.530165 0
M  V30 43 H -1.849032 -1.628147 -0.799619 0
M  V30 44 H -3.924104 -0.812030 -2.638143 0
M  V30 45 H -3.635324 -0.238108 -0.998200 0
M  V30 46 H -5.174389 -1.897935 -0.064589 0
M  V30 47 H -5.892314 -1.144700 -1.585110 0
M  V30 48 H -6.223867 -3.542351 -1.451895 0
M  V30 49 H -4.582608 -2.517348 -3.538356 0
M  V30 50 H -3.940078 -4.795482 -2.234548 0
M  V30 51 H -4.529245 -4.738764 -0.562093 0
M  V30 52 H -2.023768 -4.105346 -1.128850 0
M  V30 53 H -2.845252 -3.360367 0.236537 0
M  V30 54 H -1.289190 -2.811813 -5.590716 0
M  V30 55 H 2.816840 -1.659777 -5.640639 0
M  V30 56 H 3.931590 -0.316407 -1.635209 0
M  V30 57 H 5.029055 0.526350 0.459984 0
M  V30 END ATOM
M  V30 BEGIN BOND
M  V30 1 3 1 2
M  V30 2 1 2 3
M  V30 3 2 3 4
M  V30 4 1 4 5
M  V30 5 2 5 6
M  V30 6 1 6 7
M  V30 7 1 6 8
M  V30 8 2 8 9
M  V30 9 1 9 10
M  V30 10 2 10 11
M  V30 11 2 10 12
M  V30 12 1 10 13
M  V30 13 1 13 14
M  V30 14 2 14 15
M  V30 15 1 15 16
M  V30 16 2 16 17
M  V30 17 1 17 18
M  V30 18 2 18 19
M  V30 19 1 19 20
M  V30 20 1 20 21
M  V30 21 1 21 22
M  V30 22 1 22 23
M  V30 23 1 23 24
M  V30 24 1 24 25
M  V30 25 1 25 26
M  V30 26 1 25 27
M  V30 27 1 27 28
M  V30 28 2 20 29
M  V30 29 1 29 30
M  V30 30 2 30 31
M  V30 31 1 31 32
M  V30 32 1 32 33
M  V30 33 2 33 34
M  V30 34 1 17 35
M  V30 35 2 35 36
M  V30 36 1 9 3
M  V30 37 1 36 14
M  V30 38 1 34 18
M  V30 39 1 28 22
M  V30 40 1 33 29
M  V30 41 1 4 37
M  V30 42 1 5 38
M  V30 43 1 8 39
M  V30 44 1 13 40
M  V30 45 1 15 41
M  V30 46 1 16 42
M  V30 47 1 22 43
M  V30 48 1 23 44
M  V30 49 1 23 45
M  V30 50 1 24 46
M  V30 51 1 24 47
M  V30 52 1 25 48
M  V30 53 1 26 49
M  V30 54 1 27 50
M  V30 55 1 27 51
M  V30 56 1 28 52
M  V30 57 1 28 53
M  V30 58 1 30 54
M  V30 59 1 32 55
M  V30 60 1 35 56
M  V30 61 1 36 57
M  V30 END BOND
M  V30 END CTAB
M  END
>  <Dataset>  (809) 
ChEMBL_Kinases

>  <Ligand_Instance>  (809) 
nan

>  <PDB_ID>  (809) 
nan

>  <Standardized_SMILES>  (809) 
N#Cc1ccc(Cl)cc1S(=O)(=O)Nc1ccc(-c2nc(OC3CCC(O)CC3)c3cn[nH]c3n2)cc1

>  <Name>  (809) 
nan

>  <Pocket>  (809) 
nan

>  <ATP_Site>  (809) 
nan

>  <Peripheral>  (809) 
nan

>  <Num_H_Atoms_ProtBoundConf>  (809) 
nan

>  <Num_Resolved_Atoms>  (809) 
nan

>  <Num_Not_Resolved_Atoms>  (809) 
nan

$$$$
CHEMBL3355026
     RDKit          3D

  0  0  0  0  0  0  0  0  0  0999 V3000
M  V30 BEGIN CTAB
M  V30 COUNTS 56 60 0 0 0
M  V30 BEGIN ATOM
M  V30 1 O 4.638297 -5.381122 -0.409732 0
M  V30 2 S 3.794331 -5.284261 -1.651381 0
M  V30 3 O 3.918963 -6.551669 -2.477822 0
M  V30 4 N 2.132992 -5.129047 -1.254604 0
M  V30 5 C 1.555278 -4.065667 -0.507725 0
M  V30 6 C 2.238222 -3.687775 0.636787 0
M  V30 7 C 1.814356 -2.674443 1.473901 0
M  V30 8 C 0.643778 -2.040347 1.101729 0
M  V30 9 C 0.118036 -0.955948 1.926161 0
M  V30 10 N -1.007768 -0.332056 1.585719 0
M  V30 11 C -1.546798 0.680832 2.308300 0
M  V30 12 O -2.730903 1.338524 1.952082 0
M  V30 13 C -3.462150 0.991790 0.798593 0
M  V30 14 C -3.538452 2.270975 -0.043471 0
M  V30 15 C -3.804814 3.385310 0.949086 0
M  V30 16 C -5.097314 3.184694 1.694399 0
M  V30 17 O -5.053234 4.008187 2.822829 0
M  V30 18 C -5.333662 1.791302 2.144197 0
M  V30 19 C -4.885406 0.706475 1.229199 0
M  V30 20 C -0.910928 1.101738 3.459477 0
M  V30 21 C -1.146617 2.066182 4.422167 0
M  V30 22 N -0.146695 1.985539 5.311678 0
M  V30 23 N 0.702414 1.021153 4.956091 0
M  V30 24 C 0.264739 0.451002 3.815978 0
M  V30 25 N 0.757010 -0.551269 3.060288 0
M  V30 26 C -0.080525 -2.369568 -0.023358 0
M  V30 27 C 0.375163 -3.388680 -0.836146 0
M  V30 28 C 4.392839 -3.988150 -2.627344 0
M  V30 29 C 3.567268 -2.952990 -3.020472 0
M  V30 30 C 4.066364 -1.923832 -3.802502 0
M  V30 31 Cl 2.920350 -0.665375 -4.238242 0
M  V30 32 C 5.374209 -1.876770 -4.219115 0
M  V30 33 C 6.204073 -2.912092 -3.827159 0
M  V30 34 C 5.700285 -3.935156 -3.047493 0
M  V30 35 F 6.583909 -4.913961 -2.706286 0
M  V30 36 H 1.386353 -5.808676 -1.528335 0
M  V30 37 H 3.169523 -4.176574 0.952333 0
M  V30 38 H 2.349682 -2.378878 2.370227 0
M  V30 39 H -2.998089 0.163904 0.231403 0
M  V30 40 H -4.414053 2.179356 -0.688095 0
M  V30 41 H -2.586044 2.484464 -0.545467 0
M  V30 42 H -3.854717 4.378106 0.456883 0
M  V30 43 H -2.975450 3.347434 1.690978 0
M  V30 44 H -5.910139 3.592985 1.048034 0
M  V30 45 H -4.658202 3.460804 3.551442 0
M  V30 46 H -6.450354 1.673326 2.256947 0
M  V30 47 H -4.946620 1.594008 3.172380 0
M  V30 48 H -5.532374 0.561266 0.343417 0
M  V30 49 H -4.896101 -0.242552 1.819204 0
M  V30 50 H -2.025301 2.701810 4.340818 0
M  V30 51 H 1.580676 0.744395 5.482021 0
M  V30 52 H -0.991910 -1.884879 -0.324288 0
M  V30 53 H -0.095100 -3.752880 -1.753193 0
M  V30 54 H 2.552188 -2.974101 -2.706620 0
M  V30 55 H 5.677166 -1.033162 -4.828692 0
M  V30 56 H 7.224759 -2.839546 -4.174364 0
M  V30 END ATOM
M  V30 BEGIN BOND
M  V30 1 2 1 2
M  V30 2 2 2 3
M  V30 3 1 2 4
M  V30 4 1 4 5
M  V30 5 2 5 6
M  V30 6 1 6 7
M  V30 7 2 7 8
M  V30 8 1 8 9
M  V30 9 2 9 10
M  V30 10 1 10 11
M  V30 11 1 11 12
M  V30 12 1 12 13
M  V30 13 1 13 14
M  V30 14 1 14 15
M  V30 15 1 15 16
M  V30 16 1 16 17
M  V30 17 1 16 18
M  V30 18 1 18 19
M  V30 19 2 11 20
M  V30 20 1 20 21
M  V30 21 2 21 22
M  V30 22 1 22 23
M  V30 23 1 23 24
M  V30 24 2 24 25
M  V30 25 1 8 26
M  V30 26 2 26 27
M  V30 27 1 2 28
M  V30 28 2 28 29
M  V30 29 1 29 30
M  V30 30 1 30 31
M  V30 31 2 30 32
M  V30 32 1 32 33
M  V30 33 2 33 34
M  V30 34 1 34 35
M  V30 35 1 27 5
M  V30 36 1 34 28
M  V30 37 1 25 9
M  V30 38 1 19 13
M  V30 39 1 24 20
M  V30 40 1 4 36
M  V30 41 1 6 37
M  V30 42 1 7 38
M  V30 43 1 13 39
M  V30 44 1 14 40
M  V30 45 1 14 41
M  V30 46 1 15 42
M  V30 47 1 15 43
M  V30 48 1 16 44
M  V30 49 1 17 45
M  V30 50 1 18 46
M  V30 51 1 18 47
M  V30 52 1 19 48
M  V30 53 1 19 49
M  V30 54 1 21 50
M  V30 55 1 23 51
M  V30 56 1 26 52
M  V30 57 1 27 53
M  V30 58 1 29 54
M  V30 59 1 32 55
M  V30 60 1 33 56
M  V30 END BOND
M  V30 END CTAB
M  END
>  <Dataset>  (810) 
ChEMBL_Kinases

>  <Ligand_Instance>  (810) 
nan

>  <PDB_ID>  (810) 
nan

>  <Standardized_SMILES>  (810) 
O=S(=O)(Nc1ccc(-c2nc(OC3CCC(O)CC3)c3cn[nH]c3n2)cc1)c1cc(Cl)ccc1F

>  <Name>  (810) 
nan

>  <Pocket>  (810) 
nan

>  <ATP_Site>  (810) 
nan

>  <Peripheral>  (810) 
nan

>  <Num_H_Atoms_ProtBoundConf>  (810) 
nan

>  <Num_Resolved_Atoms>  (810) 
nan

>  <Num_Not_Resolved_Atoms>  (810) 
nan

$$$$
CHEMBL3355025
     RDKit          3D

  0  0  0  0  0  0  0  0  0  0999 V3000
M  V30 BEGIN CTAB
M  V30 COUNTS 41 44 0 0 0
M  V30 BEGIN ATOM
M  V30 1 C 1.235602 -7.541269 2.122171 0
M  V30 2 C 1.627993 -6.190378 2.609689 0
M  V30 3 N 2.174127 -5.775557 3.766501 0
M  V30 4 N 2.352435 -4.472725 3.763179 0
M  V30 5 C 1.930708 -3.943293 2.592541 0
M  V30 6 N 1.890607 -2.693693 2.089813 0
M  V30 7 C 1.403938 -2.450901 0.859066 0
M  V30 8 C 1.372752 -1.088129 0.340459 0
M  V30 9 C 0.871892 -0.848340 -0.922889 0
M  V30 10 C 0.855364 0.464104 -1.390413 0
M  V30 11 C 1.332582 1.512990 -0.603657 0
M  V30 12 N 1.226984 2.767509 -1.263015 0
M  V30 13 S 0.601217 4.053545 -0.285592 0
M  V30 14 O 0.594216 5.300149 -1.134739 0
M  V30 15 O 1.440080 4.302103 0.926270 0
M  V30 16 C -1.023978 3.699384 0.252684 0
M  V30 17 C -1.403000 3.601980 1.577863 0
M  V30 18 C -2.702737 3.319677 1.931425 0
M  V30 19 Cl -3.140541 3.205028 3.634871 0
M  V30 20 C -3.615974 3.137036 0.906176 0
M  V30 21 C -3.260173 3.229447 -0.416822 0
M  V30 22 C -1.953111 3.513358 -0.773649 0
M  V30 23 Cl -1.517341 3.627546 -2.475864 0
M  V30 24 C 1.823737 1.225421 0.652327 0
M  V30 25 C 1.846954 -0.055843 1.125497 0
M  V30 26 N 0.947007 -3.473533 0.111693 0
M  V30 27 C 0.970791 -4.747152 0.583653 0
M  V30 28 C 1.469237 -5.025423 1.853846 0
M  V30 29 H 0.122480 -7.680794 2.220895 0
M  V30 30 H 1.669387 -8.319273 2.781995 0
M  V30 31 H 1.451011 -7.654103 1.059631 0
M  V30 32 H 2.756658 -3.894233 4.530803 0
M  V30 33 H 0.510422 -1.679026 -1.507004 0
M  V30 34 H 0.444943 0.558580 -2.392338 0
M  V30 35 H 1.511015 2.880761 -2.260399 0
M  V30 36 H -0.626463 3.758863 2.320925 0
M  V30 37 H -4.630760 2.915913 1.239627 0
M  V30 38 H -4.017940 3.076467 -1.151177 0
M  V30 39 H 2.167787 2.094573 1.182671 0
M  V30 40 H 2.242051 -0.239946 2.120440 0
M  V30 41 H 0.600872 -5.566873 -0.024072 0
M  V30 END ATOM
M  V30 BEGIN BOND
M  V30 1 1 1 2
M  V30 2 2 2 3
M  V30 3 1 3 4
M  V30 4 1 4 5
M  V30 5 2 5 6
M  V30 6 1 6 7
M  V30 7 1 7 8
M  V30 8 2 8 9
M  V30 9 1 9 10
M  V30 10 2 10 11
M  V30 11 1 11 12
M  V30 12 1 12 13
M  V30 13 2 13 14
M  V30 14 2 13 15
M  V30 15 1 13 16
M  V30 16 2 16 17
M  V30 17 1 17 18
M  V30 18 1 18 19
M  V30 19 2 18 20
M  V30 20 1 20 21
M  V30 21 2 21 22
M  V30 22 1 22 23
M  V30 23 1 11 24
M  V30 24 2 24 25
M  V30 25 2 7 26
M  V30 26 1 26 27
M  V30 27 2 27 28
M  V30 28 1 28 2
M  V30 29 1 28 5
M  V30 30 1 25 8
M  V30 31 1 22 16
M  V30 32 1 1 29
M  V30 33 1 1 30
M  V30 34 1 1 31
M  V30 35 1 4 32
M  V30 36 1 9 33
M  V30 37 1 10 34
M  V30 38 1 12 35
M  V30 39 1 17 36
M  V30 40 1 20 37
M  V30 41 1 21 38
M  V30 42 1 24 39
M  V30 43 1 25 40
M  V30 44 1 27 41
M  V30 END BOND
M  V30 END CTAB
M  END
>  <Dataset>  (811) 
ChEMBL_Kinases

>  <Ligand_Instance>  (811) 
nan

>  <PDB_ID>  (811) 
nan

>  <Standardized_SMILES>  (811) 
Cc1n[nH]c2nc(-c3ccc(NS(=O)(=O)c4cc(Cl)ccc4Cl)cc3)ncc12

>  <Name>  (811) 
nan

>  <Pocket>  (811) 
nan

>  <ATP_Site>  (811) 
nan

>  <Peripheral>  (811) 
nan

>  <Num_H_Atoms_ProtBoundConf>  (811) 
nan

>  <Num_Resolved_Atoms>  (811) 
nan

>  <Num_Not_Resolved_Atoms>  (811) 
nan

$$$$
CHEMBL3355024
     RDKit          3D

  0  0  0  0  0  0  0  0  0  0999 V3000
M  V30 BEGIN CTAB
M  V30 COUNTS 47 50 0 0 0
M  V30 BEGIN ATOM
M  V30 1 C -5.912679 -1.470979 0.918460 0
M  V30 2 N -5.211511 -0.454872 1.667021 0
M  V30 3 C -4.018529 0.103646 1.146908 0
M  V30 4 N -3.978554 1.200372 0.340367 0
M  V30 5 C -2.691266 1.448094 0.039607 0
M  V30 6 C -2.120938 2.441817 -0.740151 0
M  V30 7 C -0.749001 2.529927 -0.931351 0
M  V30 8 C 0.049573 1.594887 -0.321018 0
M  V30 9 C 1.484000 1.598279 -0.455373 0
M  V30 10 C 2.692992 1.611471 -0.561476 0
M  V30 11 C 4.162033 1.606770 -0.678539 0 CFG=1
M  V30 12 C 4.531875 1.491266 -2.143639 0
M  V30 13 O 4.590987 2.806674 -0.125524 0
M  V30 14 C 4.740634 0.443519 0.070353 0
M  V30 15 C 4.123225 -0.779714 0.288030 0
M  V30 16 C 4.963714 -1.596487 1.015726 0
M  V30 17 C 4.714987 -2.989031 1.474647 0
M  V30 18 O 6.043927 -0.865504 1.216345 0
M  V30 19 N 5.928652 0.296391 0.683393 0
M  V30 20 C -0.532371 0.611920 0.451899 0
M  V30 21 C -1.888027 0.500353 0.658790 0
M  V30 22 N -2.744886 -0.295628 1.320928 0
M  V30 23 C -2.313425 -1.406460 2.094829 0
M  V30 24 N -1.013769 -1.755753 2.229161 0
M  V30 25 C -0.646500 -2.812660 2.969090 0
M  V30 26 N -1.559906 -3.578647 3.615684 0
M  V30 27 C -2.868520 -3.231709 3.483915 0
M  V30 28 N -3.780741 -4.064694 4.178551 0
M  V30 29 N -3.198089 -2.179932 2.744253 0
M  V30 30 H -6.008881 -1.098944 -0.140164 0
M  V30 31 H -5.267778 -2.367477 0.868354 0
M  V30 32 H -6.892738 -1.716816 1.344873 0
M  V30 33 H -5.643624 -0.174331 2.595847 0
M  V30 34 H -2.695127 3.215443 -1.253152 0
M  V30 35 H -0.261909 3.281573 -1.525945 0
M  V30 36 H 5.481053 0.929994 -2.288178 0
M  V30 37 H 4.591808 2.515440 -2.583782 0
M  V30 38 H 3.691927 0.942833 -2.638417 0
M  V30 39 H 5.530454 2.966803 -0.370739 0
M  V30 40 H 3.135769 -1.091548 -0.042378 0
M  V30 41 H 5.652832 -3.530329 1.673631 0
M  V30 42 H 4.099202 -3.506514 0.686250 0
M  V30 43 H 4.106050 -3.031655 2.401000 0
M  V30 44 H 0.100535 -0.110090 0.921723 0
M  V30 45 H 0.439390 -2.954176 2.970730 0
M  V30 46 H -4.530304 -3.931318 4.891345 0
M  V30 47 H -3.736461 -5.086473 3.959715 0
M  V30 END ATOM
M  V30 BEGIN BOND
M  V30 1 1 1 2
M  V30 2 1 2 3
M  V30 3 2 3 4
M  V30 4 1 4 5
M  V30 5 2 5 6
M  V30 6 1 6 7
M  V30 7 2 7 8
M  V30 8 1 8 9
M  V30 9 3 9 10
M  V30 10 1 11 10 CFG=3
M  V30 11 1 11 12
M  V30 12 1 11 13
M  V30 13 1 11 14
M  V30 14 1 14 15
M  V30 15 2 15 16
M  V30 16 1 16 17
M  V30 17 1 16 18
M  V30 18 1 18 19
M  V30 19 1 8 20
M  V30 20 2 20 21
M  V30 21 1 21 22
M  V30 22 1 22 23
M  V30 23 2 23 24
M  V30 24 1 24 25
M  V30 25 2 25 26
M  V30 26 1 26 27
M  V30 27 1 27 28
M  V30 28 2 27 29
M  V30 29 1 22 3
M  V30 30 1 29 23
M  V30 31 1 21 5
M  V30 32 2 19 14
M  V30 33 1 1 30
M  V30 34 1 1 31
M  V30 35 1 1 32
M  V30 36 1 2 33
M  V30 37 1 6 34
M  V30 38 1 7 35
M  V30 39 1 12 36
M  V30 40 1 12 37
M  V30 41 1 12 38
M  V30 42 1 13 39
M  V30 43 1 15 40
M  V30 44 1 17 41
M  V30 45 1 17 42
M  V30 46 1 17 43
M  V30 47 1 20 44
M  V30 48 1 25 45
M  V30 49 1 28 46
M  V30 50 1 28 47
M  V30 END BOND
M  V30 END CTAB
M  END
>  <Dataset>  (812) 
ChEMBL_Kinases

>  <Ligand_Instance>  (812) 
nan

>  <PDB_ID>  (812) 
nan

>  <Standardized_SMILES>  (812) 
CNc1nc2ccc(C#C[C@@](C)(O)c3cc(C)on3)cc2n1-c1ncnc(N)n1

>  <Name>  (812) 
nan

>  <Pocket>  (812) 
nan

>  <ATP_Site>  (812) 
nan

>  <Peripheral>  (812) 
nan

>  <Num_H_Atoms_ProtBoundConf>  (812) 
nan

>  <Num_Resolved_Atoms>  (812) 
nan

>  <Num_Not_Resolved_Atoms>  (812) 
nan

$$$$
CHEMBL3355023
     RDKit          3D

  0  0  0  0  0  0  0  0  0  0999 V3000
M  V30 BEGIN CTAB
M  V30 COUNTS 50 53 0 0 0
M  V30 BEGIN ATOM
M  V30 1 C 3.634073 -5.589369 -0.189366 0
M  V30 2 C 3.228720 -6.039800 1.175843 0
M  V30 3 N 2.063295 -5.356107 1.712365 0
M  V30 4 C 1.913683 -3.960052 1.904316 0
M  V30 5 N 2.380073 -3.196033 2.899005 0
M  V30 6 C 1.994218 -1.927845 2.684460 0
M  V30 7 C 2.227608 -0.788449 3.424045 0
M  V30 8 C 1.738007 0.438835 3.029618 0
M  V30 9 C 1.000896 0.486509 1.860121 0
M  V30 10 C 0.448654 1.736290 1.371228 0
M  V30 11 C -0.009965 2.767669 0.945117 0
M  V30 12 C -0.586145 4.009826 0.415306 0 CFG=1
M  V30 13 C 0.220219 5.132732 1.028488 0
M  V30 14 O -0.527949 4.077278 -0.977642 0
M  V30 15 C -2.025786 4.080423 0.794142 0
M  V30 16 C -3.088756 4.746100 0.171443 0
M  V30 17 C -4.233415 4.499060 0.916077 0
M  V30 18 C -5.525562 5.088685 0.481808 0
M  V30 19 O -3.864387 3.731417 1.919780 0
M  V30 20 N -2.586701 3.491315 1.846330 0
M  V30 21 C 0.776740 -0.660911 1.132049 0
M  V30 22 C 1.251235 -1.901967 1.497857 0
M  V30 23 N 1.229580 -3.192446 1.051046 0
M  V30 24 C 0.511148 -3.432276 -0.147956 0
M  V30 25 N -0.151146 -2.592811 -0.956416 0
M  V30 26 C -0.799832 -2.995197 -2.058487 0
M  V30 27 N -0.799859 -4.312831 -2.391610 0
M  V30 28 C -0.148578 -5.171925 -1.604995 0
M  V30 29 N -0.121363 -6.573229 -1.913607 0
M  V30 30 N 0.494358 -4.750339 -0.507255 0
M  V30 31 H 3.082364 -6.096968 -1.009147 0
M  V30 32 H 3.469934 -4.494424 -0.278155 0
M  V30 33 H 4.731149 -5.759414 -0.314382 0
M  V30 34 H 4.110943 -5.897555 1.839565 0
M  V30 35 H 3.064078 -7.151837 1.188193 0
M  V30 36 H 1.215833 -5.885232 2.005761 0
M  V30 37 H 2.798560 -0.817801 4.331799 0
M  V30 38 H 1.903009 1.347109 3.586230 0
M  V30 39 H 1.170579 5.228006 0.443670 0
M  V30 40 H 0.546554 4.879715 2.073694 0
M  V30 41 H -0.289024 6.098643 1.062338 0
M  V30 42 H 0.296296 3.597895 -1.241745 0
M  V30 43 H -2.955837 5.341525 -0.745783 0
M  V30 44 H -5.983889 4.489885 -0.329245 0
M  V30 45 H -6.255049 5.153158 1.311728 0
M  V30 46 H -5.394637 6.142066 0.124539 0
M  V30 47 H 0.199036 -0.593786 0.223053 0
M  V30 48 H -1.287693 -2.220253 -2.615923 0
M  V30 49 H 0.854423 -6.725065 -2.225619 0
M  V30 50 H -1.018171 -7.121659 -1.774421 0
M  V30 END ATOM
M  V30 BEGIN BOND
M  V30 1 1 1 2
M  V30 2 1 2 3
M  V30 3 1 3 4
M  V30 4 2 4 5
M  V30 5 1 5 6
M  V30 6 2 6 7
M  V30 7 1 7 8
M  V30 8 2 8 9
M  V30 9 1 9 10
M  V30 10 3 10 11
M  V30 11 1 12 11 CFG=1
M  V30 12 1 12 13
M  V30 13 1 12 14
M  V30 14 1 12 15
M  V30 15 1 15 16
M  V30 16 2 16 17
M  V30 17 1 17 18
M  V30 18 1 17 19
M  V30 19 1 19 20
M  V30 20 1 9 21
M  V30 21 2 21 22
M  V30 22 1 22 23
M  V30 23 1 23 24
M  V30 24 2 24 25
M  V30 25 1 25 26
M  V30 26 2 26 27
M  V30 27 1 27 28
M  V30 28 1 28 29
M  V30 29 2 28 30
M  V30 30 1 23 4
M  V30 31 1 30 24
M  V30 32 1 22 6
M  V30 33 2 20 15
M  V30 34 1 1 31
M  V30 35 1 1 32
M  V30 36 1 1 33
M  V30 37 1 2 34
M  V30 38 1 2 35
M  V30 39 1 3 36
M  V30 40 1 7 37
M  V30 41 1 8 38
M  V30 42 1 13 39
M  V30 43 1 13 40
M  V30 44 1 13 41
M  V30 45 1 14 42
M  V30 46 1 16 43
M  V30 47 1 18 44
M  V30 48 1 18 45
M  V30 49 1 18 46
M  V30 50 1 21 47
M  V30 51 1 26 48
M  V30 52 1 29 49
M  V30 53 1 29 50
M  V30 END BOND
M  V30 END CTAB
M  END
>  <Dataset>  (813) 
ChEMBL_Kinases

>  <Ligand_Instance>  (813) 
nan

>  <PDB_ID>  (813) 
nan

>  <Standardized_SMILES>  (813) 
CCNc1nc2ccc(C#C[C@@](C)(O)c3cc(C)on3)cc2n1-c1ncnc(N)n1

>  <Name>  (813) 
nan

>  <Pocket>  (813) 
nan

>  <ATP_Site>  (813) 
nan

>  <Peripheral>  (813) 
nan

>  <Num_H_Atoms_ProtBoundConf>  (813) 
nan

>  <Num_Resolved_Atoms>  (813) 
nan

>  <Num_Not_Resolved_Atoms>  (813) 
nan

$$$$
CHEMBL3355002
     RDKit          3D

  0  0  0  0  0  0  0  0  0  0999 V3000
M  V30 BEGIN CTAB
M  V30 COUNTS 68 72 0 0 0
M  V30 BEGIN ATOM
M  V30 1 C 1.908073 0.098656 5.627918 0
M  V30 2 C 2.794337 -0.723653 4.721715 0
M  V30 3 C 2.229172 -2.128525 4.517332 0
M  V30 4 O 3.104835 -0.162259 3.539486 0
M  V30 5 C 2.669852 0.291938 2.393778 0
M  V30 6 C 3.794408 0.746275 1.679910 0
M  V30 7 C 3.759449 1.311663 0.396488 0
M  V30 8 N 4.575433 1.819457 -0.521087 0
M  V30 9 N 3.902466 2.210713 -1.586159 0
M  V30 10 C 2.587420 1.974164 -1.416637 0
M  V30 11 C 2.484660 1.403593 -0.161892 0
M  V30 12 C 1.330550 0.987366 0.458370 0
M  V30 13 C 1.493014 0.451528 1.710121 0
M  V30 14 N 0.364107 -0.000069 2.425127 0
M  V30 15 C -1.037019 -0.096463 2.260287 0
M  V30 16 N -1.819090 0.990302 2.533029 0
M  V30 17 C -3.169277 0.920197 2.400268 0
M  V30 18 N -3.786818 -0.191401 2.005039 0
M  V30 19 C -3.113300 -1.315821 1.711820 0
M  V30 20 N -3.430753 -2.560544 1.305953 0
M  V30 21 C -2.322478 -3.289439 1.174295 0
M  V30 22 C -1.266883 -2.448910 1.516166 0
M  V30 23 C -1.752582 -1.204906 1.857676 0
M  V30 24 C 0.078168 -3.080768 1.411125 0
M  V30 25 C 0.031544 -3.824420 0.063521 0
M  V30 26 C -0.787390 -3.068345 -0.940184 0
M  V30 27 O -1.825003 -3.551400 -1.515033 0
M  V30 28 N -0.483454 -1.741359 -1.343059 0
M  V30 29 C -1.404540 -1.187473 -2.317238 0
M  V30 30 C -1.053975 0.215454 -2.710600 0
M  V30 31 C -2.108231 0.668929 -3.729191 0
M  V30 32 S -1.787132 2.331611 -4.258705 0
M  V30 33 C -3.034077 2.791216 -5.422747 0
M  V30 34 O -1.925067 3.221826 -3.051534 0
M  V30 35 O -0.419526 2.395329 -4.861196 0
M  V30 36 C -0.775472 -5.089010 0.385556 0
M  V30 37 C -2.167785 -4.715248 0.763014 0
M  V30 38 H 0.860198 -0.261356 5.675577 0
M  V30 39 H 2.342813 0.139655 6.638416 0
M  V30 40 H 1.873365 1.152926 5.227885 0
M  V30 41 H 3.723254 -0.930224 5.370203 0
M  V30 42 H 1.160650 -2.100335 4.832099 0
M  V30 43 H 2.212795 -2.312088 3.432322 0
M  V30 44 H 2.792088 -2.906912 5.038878 0
M  V30 45 H 4.844886 0.733865 1.996641 0
M  V30 46 H 5.599247 1.874589 -0.362214 0
M  V30 47 H 1.822556 2.201920 -2.141128 0
M  V30 48 H 0.349156 1.055224 0.037099 0
M  V30 49 H 0.294332 -0.421527 3.361448 0
M  V30 50 H -3.786861 1.794828 2.620624 0
M  V30 51 H -4.400199 -2.894994 1.125039 0
M  V30 52 H 0.151658 -3.824065 2.227659 0
M  V30 53 H 0.911172 -2.364031 1.429266 0
M  V30 54 H 1.048277 -4.027629 -0.247858 0
M  V30 55 H 0.372233 -1.363955 -0.867940 0
M  V30 56 H -2.418229 -1.210918 -1.857459 0
M  V30 57 H -1.406445 -1.842348 -3.202945 0
M  V30 58 H -0.084536 0.235698 -3.242338 0
M  V30 59 H -1.107495 0.929300 -1.869341 0
M  V30 60 H -2.147365 -0.031747 -4.592325 0
M  V30 61 H -3.088541 0.608873 -3.221076 0
M  V30 62 H -3.996847 2.280018 -5.285438 0
M  V30 63 H -2.684391 2.691548 -6.472140 0
M  V30 64 H -3.246982 3.873274 -5.285302 0
M  V30 65 H -0.246417 -5.728276 1.103718 0
M  V30 66 H -0.823872 -5.655430 -0.575599 0
M  V30 67 H -2.450336 -5.391179 1.625762 0
M  V30 68 H -2.925022 -4.935772 -0.007502 0
M  V30 END ATOM
M  V30 BEGIN BOND
M  V30 1 1 1 2
M  V30 2 1 2 3
M  V30 3 1 2 4
M  V30 4 1 4 5
M  V30 5 2 5 6
M  V30 6 1 6 7
M  V30 7 1 7 8
M  V30 8 1 8 9
M  V30 9 2 9 10
M  V30 10 1 10 11
M  V30 11 1 11 12
M  V30 12 2 12 13
M  V30 13 1 13 14
M  V30 14 1 14 15
M  V30 15 2 15 16
M  V30 16 1 16 17
M  V30 17 2 17 18
M  V30 18 1 18 19
M  V30 19 1 19 20
M  V30 20 1 20 21
M  V30 21 2 21 22
M  V30 22 1 22 23
M  V30 23 1 22 24
M  V30 24 1 24 25
M  V30 25 1 25 26
M  V30 26 2 26 27
M  V30 27 1 26 28
M  V30 28 1 28 29
M  V30 29 1 29 30
M  V30 30 1 30 31
M  V30 31 1 31 32
M  V30 32 1 32 33
M  V30 33 2 32 34
M  V30 34 2 32 35
M  V30 35 1 25 36
M  V30 36 1 36 37
M  V30 37 1 13 5
M  V30 38 1 23 15
M  V30 39 2 11 7
M  V30 40 2 23 19
M  V30 41 1 37 21
M  V30 42 1 1 38
M  V30 43 1 1 39
M  V30 44 1 1 40
M  V30 45 1 2 41
M  V30 46 1 3 42
M  V30 47 1 3 43
M  V30 48 1 3 44
M  V30 49 1 6 45
M  V30 50 1 8 46
M  V30 51 1 10 47
M  V30 52 1 12 48
M  V30 53 1 14 49
M  V30 54 1 17 50
M  V30 55 1 20 51
M  V30 56 1 24 52
M  V30 57 1 24 53
M  V30 58 1 25 54
M  V30 59 1 28 55
M  V30 60 1 29 56
M  V30 61 1 29 57
M  V30 62 1 30 58
M  V30 63 1 30 59
M  V30 64 1 31 60
M  V30 65 1 31 61
M  V30 66 1 33 62
M  V30 67 1 33 63
M  V30 68 1 33 64
M  V30 69 1 36 65
M  V30 70 1 36 66
M  V30 71 1 37 67
M  V30 72 1 37 68
M  V30 END BOND
M  V30 END CTAB
M  END
>  <Dataset>  (814) 
ChEMBL_Kinases

>  <Ligand_Instance>  (814) 
nan

>  <PDB_ID>  (814) 
nan

>  <Standardized_SMILES>  (814) 
CC(C)Oc1cc2[nH]ncc2cc1Nc1ncnc2[nH]c3c(c12)CC(C(=O)NCCCS(C)(=O)=O)CC3

>  <Name>  (814) 
nan

>  <Pocket>  (814) 
nan

>  <ATP_Site>  (814) 
nan

>  <Peripheral>  (814) 
nan

>  <Num_H_Atoms_ProtBoundConf>  (814) 
nan

>  <Num_Resolved_Atoms>  (814) 
nan

>  <Num_Not_Resolved_Atoms>  (814) 
nan

$$$$
CHEMBL3355001
     RDKit          3D

  0  0  0  0  0  0  0  0  0  0999 V3000
M  V30 BEGIN CTAB
M  V30 COUNTS 44 48 0 0 0
M  V30 BEGIN ATOM
M  V30 1 O 1.883812 -1.750507 3.453879 0
M  V30 2 C 0.921182 -2.001374 2.685193 0
M  V30 3 O 1.055224 -2.313084 1.352170 0
M  V30 4 C 2.332458 -2.374785 0.705759 0
M  V30 5 C 2.983316 -0.993687 0.828308 0
M  V30 6 O 2.204373 -0.008349 0.229340 0
M  V30 7 C 2.478488 1.345572 0.163716 0
M  V30 8 C 3.686100 2.004637 0.175219 0
M  V30 9 C 3.747741 3.379539 0.100716 0
M  V30 10 F 4.980879 3.934811 0.119024 0
M  V30 11 C 2.593031 4.125243 0.012714 0
M  V30 12 C 1.354677 3.472849 -0.000490 0
M  V30 13 C 1.321933 2.083913 0.075800 0
M  V30 14 N -0.019764 1.625654 0.042361 0
M  V30 15 C -0.723821 0.562311 -0.590120 0
M  V30 16 N -0.721147 0.840239 -1.901251 0
M  V30 17 C -1.298947 0.058260 -2.848347 0
M  V30 18 N -1.913948 -1.069802 -2.437846 0
M  V30 19 C -1.914023 -1.344439 -1.120199 0
M  V30 20 N -2.466010 -2.402520 -0.503604 0
M  V30 21 C -2.261081 -2.324850 0.809599 0
M  V30 22 C -1.548393 -1.170575 1.049226 0
M  V30 23 C -1.338003 -0.573973 -0.132485 0
M  V30 24 C -1.173522 -0.804654 2.397862 0
M  V30 25 C -0.533685 -2.009162 3.059561 0
M  V30 26 C -1.205608 -3.308027 2.713263 0
M  V30 27 C -2.573329 -3.107151 2.061078 0
M  V30 28 H 2.132261 -2.567963 -0.360839 0
M  V30 29 H 2.980710 -3.159056 1.109456 0
M  V30 30 H 3.953320 -1.043842 0.253947 0
M  V30 31 H 3.227873 -0.726802 1.856945 0
M  V30 32 H 4.536806 1.317975 0.247761 0
M  V30 33 H 2.729510 5.196392 -0.041692 0
M  V30 34 H 0.480797 4.134789 -0.071591 0
M  V30 35 H -0.822434 2.057566 0.541631 0
M  V30 36 H -1.328323 0.230482 -3.911579 0
M  V30 37 H -2.985651 -3.192085 -0.933694 0
M  V30 38 H -0.568051 0.099529 2.498241 0
M  V30 39 H -2.104200 -0.616086 3.011469 0
M  V30 40 H -0.591177 -1.925503 4.178385 0
M  V30 41 H -0.600400 -3.825567 1.936074 0
M  V30 42 H -1.314121 -3.970878 3.584918 0
M  V30 43 H -2.967985 -4.090078 1.806900 0
M  V30 44 H -3.212984 -2.465781 2.670807 0
M  V30 END ATOM
M  V30 BEGIN BOND
M  V30 1 2 1 2
M  V30 2 1 2 3
M  V30 3 1 3 4
M  V30 4 1 4 5
M  V30 5 1 5 6
M  V30 6 1 6 7
M  V30 7 2 7 8
M  V30 8 1 8 9
M  V30 9 1 9 10
M  V30 10 2 9 11
M  V30 11 1 11 12
M  V30 12 2 12 13
M  V30 13 1 13 14
M  V30 14 1 14 15
M  V30 15 2 15 16
M  V30 16 1 16 17
M  V30 17 2 17 18
M  V30 18 1 18 19
M  V30 19 1 19 20
M  V30 20 1 20 21
M  V30 21 2 21 22
M  V30 22 1 22 23
M  V30 23 1 22 24
M  V30 24 1 24 25
M  V30 25 1 25 26
M  V30 26 1 26 27
M  V30 27 1 25 2
M  V30 28 1 13 7
M  V30 29 1 23 15
M  V30 30 2 23 19
M  V30 31 1 27 21
M  V30 32 1 4 28
M  V30 33 1 4 29
M  V30 34 1 5 30
M  V30 35 1 5 31
M  V30 36 1 8 32
M  V30 37 1 11 33
M  V30 38 1 12 34
M  V30 39 1 14 35
M  V30 40 1 17 36
M  V30 41 1 20 37
M  V30 42 1 24 38
M  V30 43 1 24 39
M  V30 44 1 25 40
M  V30 45 1 26 41
M  V30 46 1 26 42
M  V30 47 1 27 43
M  V30 48 1 27 44
M  V30 END BOND
M  V30 END CTAB
M  END
>  <Dataset>  (815) 
ChEMBL_Kinases

>  <Ligand_Instance>  (815) 
nan

>  <PDB_ID>  (815) 
nan

>  <Standardized_SMILES>  (815) 
O=C1OCCOc2cc(F)ccc2Nc2ncnc3[nH]c4c(c23)CC1CC4

>  <Name>  (815) 
nan

>  <Pocket>  (815) 
nan

>  <ATP_Site>  (815) 
nan

>  <Peripheral>  (815) 
nan

>  <Num_H_Atoms_ProtBoundConf>  (815) 
nan

>  <Num_Resolved_Atoms>  (815) 
nan

>  <Num_Not_Resolved_Atoms>  (815) 
nan

$$$$
CHEMBL3355000
     RDKit          3D

  0  0  0  0  0  0  0  0  0  0999 V3000
M  V30 BEGIN CTAB
M  V30 COUNTS 60 65 0 0 0
M  V30 BEGIN ATOM
M  V30 1 C 1.806918 -1.934908 2.847857 0
M  V30 2 O 1.527232 -0.651971 2.376818 0
M  V30 3 C 2.388612 0.217749 1.766871 0
M  V30 4 C 3.707193 -0.022522 1.505184 0
M  V30 5 C 4.521423 0.900895 0.886876 0
M  V30 6 N 5.810119 0.893642 0.533208 0
M  V30 7 N 6.128501 2.041308 -0.044227 0
M  V30 8 C 5.011098 2.810661 -0.062803 0
M  V30 9 C 3.971597 2.111331 0.523013 0
M  V30 10 C 2.644660 2.352947 0.786435 0
M  V30 11 C 1.810870 1.418223 1.414623 0
M  V30 12 N 0.483305 1.909833 1.578119 0
M  V30 13 C -0.173282 2.031078 2.855014 0
M  V30 14 N 0.168440 2.820433 3.874795 0
M  V30 15 C -0.558948 2.814554 5.007931 0
M  V30 16 N -1.642749 2.018727 5.143028 0
M  V30 17 C -2.006170 1.209534 4.116881 0
M  V30 18 N -3.056038 0.369761 4.096196 0
M  V30 19 C -3.029861 -0.209367 2.899265 0
M  V30 20 C -1.967309 0.256395 2.153261 0
M  V30 21 C -1.284702 1.179966 2.922778 0
M  V30 22 C -1.643339 -0.164851 0.768838 0
M  V30 23 C -2.418934 -1.338174 0.279520 0
M  V30 24 C -1.480466 -2.239142 -0.450615 0
M  V30 25 O -0.276181 -1.887660 -0.526692 0
M  V30 26 N -1.902244 -3.446516 -1.043603 0
M  V30 27 C -1.088598 -4.400429 -1.778549 0
M  V30 28 C -0.848233 -3.835337 -3.133338 0
M  V30 29 C -1.800581 -4.124766 -4.108647 0
M  V30 30 C -1.685632 -3.660560 -5.400973 0
M  V30 31 C -0.602410 -2.890893 -5.737844 0
M  V30 32 C 0.366922 -2.579718 -4.799655 0
M  V30 33 C 0.225584 -3.059968 -3.508415 0
M  V30 34 C -3.247582 -2.057418 1.285660 0
M  V30 35 C -3.934874 -1.230873 2.289654 0
M  V30 36 H 2.806018 -2.323190 2.640124 0
M  V30 37 H 1.098321 -2.701328 2.435871 0
M  V30 38 H 1.655401 -1.983340 3.958336 0
M  V30 39 H 4.103452 -0.985457 1.806863 0
M  V30 40 H 6.424918 0.063874 0.715912 0
M  V30 41 H 4.910331 3.809080 -0.460139 0
M  V30 42 H 2.323460 3.333215 0.456995 0
M  V30 43 H 0.005147 2.183770 0.687634 0
M  V30 44 H -0.227443 3.488780 5.815325 0
M  V30 45 H -3.757007 0.191333 4.843994 0
M  V30 46 H -0.551943 -0.333352 0.650657 0
M  V30 47 H -1.829448 0.745265 0.116744 0
M  V30 48 H -3.169004 -0.946190 -0.474519 0
M  V30 49 H -2.927679 -3.681055 -0.940694 0
M  V30 50 H -1.600395 -5.362661 -1.905774 0
M  V30 51 H -0.131254 -4.520725 -1.221713 0
M  V30 52 H -2.692688 -4.737904 -3.900346 0
M  V30 53 H -2.380291 -3.842516 -6.208261 0
M  V30 54 H -0.461725 -2.496450 -6.749210 0
M  V30 55 H 1.240987 -1.978816 -5.006286 0
M  V30 56 H 0.955490 -2.838181 -2.771994 0
M  V30 57 H -4.010936 -2.675302 0.761281 0
M  V30 58 H -2.589919 -2.795630 1.808420 0
M  V30 59 H -4.783593 -0.689490 1.825834 0
M  V30 60 H -4.377865 -1.890657 3.063349 0
M  V30 END ATOM
M  V30 BEGIN BOND
M  V30 1 1 1 2
M  V30 2 1 2 3
M  V30 3 2 3 4
M  V30 4 1 4 5
M  V30 5 1 5 6
M  V30 6 1 6 7
M  V30 7 2 7 8
M  V30 8 1 8 9
M  V30 9 1 9 10
M  V30 10 2 10 11
M  V30 11 1 11 12
M  V30 12 1 12 13
M  V30 13 2 13 14
M  V30 14 1 14 15
M  V30 15 2 15 16
M  V30 16 1 16 17
M  V30 17 1 17 18
M  V30 18 1 18 19
M  V30 19 2 19 20
M  V30 20 1 20 21
M  V30 21 1 20 22
M  V30 22 1 22 23
M  V30 23 1 23 24
M  V30 24 2 24 25
M  V30 25 1 24 26
M  V30 26 1 26 27
M  V30 27 1 27 28
M  V30 28 2 28 29
M  V30 29 1 29 30
M  V30 30 2 30 31
M  V30 31 1 31 32
M  V30 32 2 32 33
M  V30 33 1 23 34
M  V30 34 1 34 35
M  V30 35 1 11 3
M  V30 36 1 21 13
M  V30 37 1 33 28
M  V30 38 2 9 5
M  V30 39 2 21 17
M  V30 40 1 35 19
M  V30 41 1 1 36
M  V30 42 1 1 37
M  V30 43 1 1 38
M  V30 44 1 4 39
M  V30 45 1 6 40
M  V30 46 1 8 41
M  V30 47 1 10 42
M  V30 48 1 12 43
M  V30 49 1 15 44
M  V30 50 1 18 45
M  V30 51 1 22 46
M  V30 52 1 22 47
M  V30 53 1 23 48
M  V30 54 1 26 49
M  V30 55 1 27 50
M  V30 56 1 27 51
M  V30 57 1 29 52
M  V30 58 1 30 53
M  V30 59 1 31 54
M  V30 60 1 32 55
M  V30 61 1 33 56
M  V30 62 1 34 57
M  V30 63 1 34 58
M  V30 64 1 35 59
M  V30 65 1 35 60
M  V30 END BOND
M  V30 END CTAB
M  END
>  <Dataset>  (816) 
ChEMBL_Kinases

>  <Ligand_Instance>  (816) 
nan

>  <PDB_ID>  (816) 
nan

>  <Standardized_SMILES>  (816) 
COc1cc2[nH]ncc2cc1Nc1ncnc2[nH]c3c(c12)CC(C(=O)NCc1ccccc1)CC3

>  <Name>  (816) 
nan

>  <Pocket>  (816) 
nan

>  <ATP_Site>  (816) 
nan

>  <Peripheral>  (816) 
nan

>  <Num_H_Atoms_ProtBoundConf>  (816) 
nan

>  <Num_Resolved_Atoms>  (816) 
nan

>  <Num_Not_Resolved_Atoms>  (816) 
nan

$$$$
CHEMBL3354999
     RDKit          3D

  0  0  0  0  0  0  0  0  0  0999 V3000
M  V30 BEGIN CTAB
M  V30 COUNTS 53 57 0 0 0
M  V30 BEGIN ATOM
M  V30 1 C 3.564875 -1.310319 -1.682628 0
M  V30 2 C 3.098266 -2.641382 -1.139896 0
M  V30 3 N 2.256253 -2.432046 0.021699 0
M  V30 4 C 2.769435 -1.762351 1.171468 0
M  V30 5 O 3.974566 -1.371080 1.117952 0
M  V30 6 C 1.857606 -1.579225 2.328341 0
M  V30 7 C 2.522401 -0.869685 3.457159 0
M  V30 8 C 2.621193 0.607743 3.342024 0
M  V30 9 C 1.912813 1.197768 2.201815 0
M  V30 10 N 2.074312 2.432142 1.672910 0
M  V30 11 C 1.222011 2.557806 0.639972 0
M  V30 12 N 1.027733 3.606750 -0.180533 0
M  V30 13 C 0.094641 3.451357 -1.140847 0
M  V30 14 N -0.628544 2.311631 -1.300208 0
M  V30 15 C -0.424246 1.253122 -0.462842 0
M  V30 16 N -1.163876 0.049290 -0.605445 0
M  V30 17 C -2.346285 -0.473830 -0.071258 0
M  V30 18 C -3.063620 0.260727 0.831398 0
M  V30 19 C -4.220484 -0.304083 1.325384 0
M  V30 20 C -5.214109 0.056545 2.215360 0
M  V30 21 N -6.127386 -0.930159 2.308078 0
M  V30 22 N -5.787194 -1.937200 1.517828 0
M  V30 23 C -4.632973 -1.574490 0.914043 0
M  V30 24 C -3.861802 -2.279407 -0.009730 0
M  V30 25 C -2.684080 -1.731483 -0.527652 0
M  V30 26 O -1.909914 -2.428437 -1.449315 0
M  V30 27 C -2.221343 -3.699112 -1.931062 0
M  V30 28 C 0.522406 1.369739 0.535103 0
M  V30 29 C 0.942796 0.500475 1.509747 0
M  V30 30 C 0.587078 -0.872609 1.904404 0
M  V30 31 H 4.501802 -0.950431 -1.170229 0
M  V30 32 H 3.686251 -1.323895 -2.782467 0
M  V30 33 H 2.801087 -0.556211 -1.441424 0
M  V30 34 H 2.549554 -3.198330 -1.909843 0
M  V30 35 H 4.009234 -3.187748 -0.797426 0
M  V30 36 H 1.262729 -2.777616 0.013539 0
M  V30 37 H 1.544219 -2.579340 2.709342 0
M  V30 38 H 3.558316 -1.302866 3.552076 0
M  V30 39 H 2.031853 -1.175130 4.421806 0
M  V30 40 H 3.701389 0.917186 3.284580 0
M  V30 41 H 2.282127 1.057057 4.323748 0
M  V30 42 H 2.737899 3.174061 1.993056 0
M  V30 43 H -0.173220 4.204850 -1.874621 0
M  V30 44 H -0.526032 -0.408289 -1.294944 0
M  V30 45 H -2.777736 1.227721 1.163531 0
M  V30 46 H -5.210925 1.012546 2.739955 0
M  V30 47 H -6.269911 -2.846951 1.354507 0
M  V30 48 H -4.157947 -3.272251 -0.348609 0
M  V30 49 H -3.205902 -3.702107 -2.422533 0
M  V30 50 H -1.433049 -3.943205 -2.695004 0
M  V30 51 H -2.156475 -4.495607 -1.179257 0
M  V30 52 H 0.141670 -1.460572 1.093426 0
M  V30 53 H -0.073397 -0.885052 2.821125 0
M  V30 END ATOM
M  V30 BEGIN BOND
M  V30 1 1 1 2
M  V30 2 1 2 3
M  V30 3 1 3 4
M  V30 4 2 4 5
M  V30 5 1 4 6
M  V30 6 1 6 7
M  V30 7 1 7 8
M  V30 8 1 8 9
M  V30 9 1 9 10
M  V30 10 1 10 11
M  V30 11 2 11 12
M  V30 12 1 12 13
M  V30 13 2 13 14
M  V30 14 1 14 15
M  V30 15 1 15 16
M  V30 16 1 16 17
M  V30 17 2 17 18
M  V30 18 1 18 19
M  V30 19 1 19 20
M  V30 20 2 20 21
M  V30 21 1 21 22
M  V30 22 1 22 23
M  V30 23 1 23 24
M  V30 24 2 24 25
M  V30 25 1 25 26
M  V30 26 1 26 27
M  V30 27 2 15 28
M  V30 28 1 28 29
M  V30 29 1 29 30
M  V30 30 1 30 6
M  V30 31 2 29 9
M  V30 32 1 28 11
M  V30 33 1 25 17
M  V30 34 2 23 19
M  V30 35 1 1 31
M  V30 36 1 1 32
M  V30 37 1 1 33
M  V30 38 1 2 34
M  V30 39 1 2 35
M  V30 40 1 3 36
M  V30 41 1 6 37
M  V30 42 1 7 38
M  V30 43 1 7 39
M  V30 44 1 8 40
M  V30 45 1 8 41
M  V30 46 1 10 42
M  V30 47 1 13 43
M  V30 48 1 16 44
M  V30 49 1 18 45
M  V30 50 1 20 46
M  V30 51 1 22 47
M  V30 52 1 24 48
M  V30 53 1 27 49
M  V30 54 1 27 50
M  V30 55 1 27 51
M  V30 56 1 30 52
M  V30 57 1 30 53
M  V30 END BOND
M  V30 END CTAB
M  END
>  <Dataset>  (817) 
ChEMBL_Kinases

>  <Ligand_Instance>  (817) 
nan

>  <PDB_ID>  (817) 
nan

>  <Standardized_SMILES>  (817) 
CCNC(=O)C1CCc2[nH]c3ncnc(Nc4cc5cn[nH]c5cc4OC)c3c2C1

>  <Name>  (817) 
nan

>  <Pocket>  (817) 
nan

>  <ATP_Site>  (817) 
nan

>  <Peripheral>  (817) 
nan

>  <Num_H_Atoms_ProtBoundConf>  (817) 
nan

>  <Num_Resolved_Atoms>  (817) 
nan

>  <Num_Not_Resolved_Atoms>  (817) 
nan

$$$$
CHEMBL3353350
     RDKit          3D

  0  0  0  0  0  0  0  0  0  0999 V3000
M  V30 BEGIN CTAB
M  V30 COUNTS 59 64 0 0 0
M  V30 BEGIN ATOM
M  V30 1 C 9.308171 -1.092162 2.336742 0
M  V30 2 N 7.935557 -1.198807 1.856312 0
M  V30 3 C 7.305456 -2.253754 2.628785 0
M  V30 4 C 7.316635 0.077322 2.024542 0
M  V30 5 C 5.918175 0.172438 1.598945 0
M  V30 6 C 4.858732 -0.075427 2.458876 0
M  V30 7 C 3.515919 0.000725 2.098471 0
M  V30 8 C 3.247499 0.348739 0.790361 0
M  V30 9 C 1.844836 0.433876 0.403113 0
M  V30 10 C 1.288955 0.725166 -0.729903 0
M  V30 11 C -0.026228 0.860612 -1.307256 0
M  V30 12 N -0.189251 1.217344 -2.606667 0
M  V30 13 N -1.467197 1.271839 -2.889449 0
M  V30 14 C -2.236773 0.966737 -1.839852 0
M  V30 15 C -3.593321 0.870960 -1.588696 0
M  V30 16 C -4.087366 0.512838 -0.332917 0
M  V30 17 C -5.540047 0.463920 -0.179724 0 CFG=2
M  V30 18 C -6.246311 0.243108 1.084201 0
M  V30 19 C -6.288624 -0.780064 0.051087 0 CFG=1
M  V30 20 C -7.483983 -0.977446 -0.818904 0
M  V30 21 O -8.264900 -0.011664 -1.078087 0
M  V30 22 N -7.606889 -2.313757 -1.280174 0
M  V30 23 C -6.507626 -2.996833 -0.662323 0
M  V30 24 C -6.276996 -4.346555 -0.830331 0
M  V30 25 C -5.220409 -4.928259 -0.175502 0
M  V30 26 C -4.426556 -4.148924 0.626096 0
M  V30 27 Cl -3.085994 -4.913968 1.449691 0
M  V30 28 C -4.721045 -2.808934 0.742716 0
M  V30 29 C -5.750965 -2.125268 0.132794 0
M  V30 30 C -3.121660 0.270985 0.606832 0
M  V30 31 C -1.766798 0.357307 0.389783 0
M  V30 32 C -1.313190 0.710771 -0.852884 0
M  V30 33 C 4.287648 0.597951 -0.076394 0
M  V30 34 C 5.611019 0.517285 0.299194 0
M  V30 35 H 9.771850 -0.156639 1.951188 0
M  V30 36 H 9.913300 -1.959132 1.976879 0
M  V30 37 H 9.364007 -1.045906 3.438691 0
M  V30 38 H 7.559689 -2.089037 3.699119 0
M  V30 39 H 7.655255 -3.255611 2.306409 0
M  V30 40 H 6.203518 -2.230811 2.524234 0
M  V30 41 H 7.337463 0.305374 3.111246 0
M  V30 42 H 7.914772 0.806607 1.437333 0
M  V30 43 H 5.075826 -0.348150 3.488813 0
M  V30 44 H 2.758002 -0.214894 2.856575 0
M  V30 45 H 1.091421 0.233044 1.135738 0
M  V30 46 H 2.146154 0.911762 -1.400653 0
M  V30 47 H -1.794689 1.529468 -3.841576 0
M  V30 48 H -4.223811 1.097839 -2.450352 0
M  V30 49 H -6.053571 1.176522 -0.908030 0
M  V30 50 H -5.739873 0.006177 2.034819 0
M  V30 51 H -7.226238 0.766107 1.276469 0
M  V30 52 H -8.355625 -2.643699 -1.921946 0
M  V30 53 H -6.871185 -4.999930 -1.448762 0
M  V30 54 H -5.020262 -5.982390 -0.291889 0
M  V30 55 H -4.045817 -2.297313 1.398600 0
M  V30 56 H -3.478894 -0.002695 1.590737 0
M  V30 57 H -1.098269 0.147703 1.189681 0
M  V30 58 H 4.124690 0.871300 -1.100521 0
M  V30 59 H 6.444684 0.711271 -0.372734 0
M  V30 END ATOM
M  V30 BEGIN BOND
M  V30 1 1 1 2
M  V30 2 1 2 3
M  V30 3 1 2 4
M  V30 4 1 4 5
M  V30 5 2 5 6
M  V30 6 1 6 7
M  V30 7 2 7 8
M  V30 8 1 8 9
M  V30 9 2 9 10
M  V30 10 1 10 11
M  V30 11 2 11 12
M  V30 12 1 12 13
M  V30 13 1 13 14
M  V30 14 2 14 15
M  V30 15 1 15 16
M  V30 16 1 16 17
M  V30 17 1 17 18
M  V30 18 1 19 18 CFG=1
M  V30 19 1 19 20
M  V30 20 2 20 21
M  V30 21 1 20 22
M  V30 22 1 22 23
M  V30 23 2 23 24
M  V30 24 1 24 25
M  V30 25 2 25 26
M  V30 26 1 26 27
M  V30 27 1 26 28
M  V30 28 2 28 29
M  V30 29 2 16 30
M  V30 30 1 30 31
M  V30 31 2 31 32
M  V30 32 1 8 33
M  V30 33 2 33 34
M  V30 34 1 34 5
M  V30 35 1 32 11
M  V30 36 1 32 14
M  V30 37 1 19 17
M  V30 38 1 29 23
M  V30 39 1 29 19
M  V30 40 1 1 35
M  V30 41 1 1 36
M  V30 42 1 1 37
M  V30 43 1 3 38
M  V30 44 1 3 39
M  V30 45 1 3 40
M  V30 46 1 4 41
M  V30 47 1 4 42
M  V30 48 1 6 43
M  V30 49 1 7 44
M  V30 50 1 9 45
M  V30 51 1 10 46
M  V30 52 1 13 47
M  V30 53 1 15 48
M  V30 54 1 17 49 CFG=3
M  V30 55 1 18 50
M  V30 56 1 18 51
M  V30 57 1 22 52
M  V30 58 1 24 53
M  V30 59 1 25 54
M  V30 60 1 28 55
M  V30 61 1 30 56
M  V30 62 1 31 57
M  V30 63 1 33 58
M  V30 64 1 34 59
M  V30 END BOND
M  V30 END CTAB
M  END
>  <Dataset>  (818) 
ChEMBL_Kinases

>  <Ligand_Instance>  (818) 
nan

>  <PDB_ID>  (818) 
nan

>  <Standardized_SMILES>  (818) 
CN(C)Cc1ccc(/C=C/c2n[nH]c3cc([C@@H]4C[C@@]45C(=O)Nc4ccc(Cl)cc45)ccc23)cc1

>  <Name>  (818) 
nan

>  <Pocket>  (818) 
nan

>  <ATP_Site>  (818) 
nan

>  <Peripheral>  (818) 
nan

>  <Num_H_Atoms_ProtBoundConf>  (818) 
nan

>  <Num_Resolved_Atoms>  (818) 
nan

>  <Num_Not_Resolved_Atoms>  (818) 
nan

$$$$
CHEMBL3353351
     RDKit          3D

  0  0  0  0  0  0  0  0  0  0999 V3000
M  V30 BEGIN CTAB
M  V30 COUNTS 62 67 0 0 0
M  V30 BEGIN ATOM
M  V30 1 C 4.234635 2.555861 -1.656074 0
M  V30 2 C 3.881057 3.440179 -0.518449 0
M  V30 3 C 4.822771 3.748561 0.437244 0
M  V30 4 C 4.510087 4.563304 1.496358 0
M  V30 5 C 3.210121 5.075240 1.584227 0
M  V30 6 C 2.187308 4.815194 0.660253 0
M  V30 7 C 2.626470 3.987605 -0.353263 0
M  V30 8 C 0.972908 5.503556 1.078680 0 CFG=1
M  V30 9 C -0.083606 6.014474 0.229337 0
M  V30 10 C -0.364550 4.868916 1.194097 0 CFG=1
M  V30 11 C -0.633215 3.519642 0.697287 0
M  V30 12 C -0.787670 2.541723 1.661762 0
M  V30 13 C -1.067031 1.224653 1.378848 0
M  V30 14 C -1.204491 0.842727 0.048507 0
M  V30 15 C -1.478265 -0.335437 -0.620459 0
M  V30 16 C -1.695426 -1.628695 0.018804 0
M  V30 17 C -1.995923 -2.735210 -0.634957 0
M  V30 18 C -2.221197 -4.048784 -0.054967 0
M  V30 19 C -2.520392 -5.125836 -0.864375 0
M  V30 20 C -2.753447 -6.395761 -0.376877 0
M  V30 21 C -2.685438 -6.608341 0.992797 0
M  V30 22 C -2.959743 -8.011255 1.400756 0
M  V30 23 N -1.769873 -8.796016 1.458396 0
M  V30 24 C -1.951472 -10.156561 1.835006 0
M  V30 25 C -0.969588 -8.695508 0.264111 0
M  V30 26 C -2.389160 -5.561119 1.841120 0
M  V30 27 C -2.161455 -4.295297 1.299482 0
M  V30 28 N -1.495988 -0.102750 -1.960857 0
M  V30 29 N -1.238074 1.200758 -2.159309 0
M  V30 30 C -1.061416 1.776467 -0.958395 0
M  V30 31 C -0.782289 3.074195 -0.599189 0
M  V30 32 C 1.439097 6.217830 2.301828 0
M  V30 33 O 0.663710 6.977640 2.943590 0
M  V30 34 N 2.794747 5.943348 2.628387 0
M  V30 35 H 3.509272 2.718363 -2.481790 0
M  V30 36 H 5.293485 2.694888 -1.987720 0
M  V30 37 H 4.200259 1.482907 -1.319043 0
M  V30 38 H 5.819150 3.342548 0.349417 0
M  V30 39 H 5.293141 4.764358 2.209108 0
M  V30 40 H 1.936204 3.714381 -1.137892 0
M  V30 41 H -0.082656 5.747144 -0.833801 0
M  V30 42 H -0.539486 7.002346 0.466387 0
M  V30 43 H -0.895115 5.096317 2.152847 0
M  V30 44 H -0.697816 2.740457 2.717041 0
M  V30 45 H -1.191896 0.444750 2.114695 0
M  V30 46 H -1.609079 -1.713042 1.095907 0
M  V30 47 H -2.071024 -2.608383 -1.705661 0
M  V30 48 H -2.565960 -4.919463 -1.939975 0
M  V30 49 H -2.978223 -7.143428 -1.148618 0
M  V30 50 H -3.695605 -8.497823 0.725454 0
M  V30 51 H -3.448250 -8.047700 2.408708 0
M  V30 52 H -2.476574 -10.276471 2.789906 0
M  V30 53 H -2.619123 -10.624609 1.056169 0
M  V30 54 H -0.987330 -10.683435 1.762448 0
M  V30 55 H -0.101435 -9.371982 0.335160 0
M  V30 56 H -1.568309 -9.015316 -0.608534 0
M  V30 57 H -0.570501 -7.687967 0.067605 0
M  V30 58 H -2.349742 -5.784797 2.894396 0
M  V30 59 H -1.933125 -3.507511 1.989710 0
M  V30 60 H -1.177656 1.720184 -3.081266 0
M  V30 61 H -0.656999 3.869596 -1.353728 0
M  V30 62 H 3.290008 6.326144 3.453072 0
M  V30 END ATOM
M  V30 BEGIN BOND
M  V30 1 1 1 2
M  V30 2 2 2 3
M  V30 3 1 3 4
M  V30 4 2 4 5
M  V30 5 1 5 6
M  V30 6 2 6 7
M  V30 7 1 6 8
M  V30 8 1 8 9 CFG=3
M  V30 9 1 9 10
M  V30 10 1 10 11
M  V30 11 2 11 12
M  V30 12 1 12 13
M  V30 13 2 13 14
M  V30 14 1 14 15
M  V30 15 1 15 16
M  V30 16 2 16 17
M  V30 17 1 17 18
M  V30 18 2 18 19
M  V30 19 1 19 20
M  V30 20 2 20 21
M  V30 21 1 21 22
M  V30 22 1 22 23
M  V30 23 1 23 24
M  V30 24 1 23 25
M  V30 25 1 21 26
M  V30 26 2 26 27
M  V30 27 2 15 28
M  V30 28 1 28 29
M  V30 29 1 29 30
M  V30 30 2 30 31
M  V30 31 1 8 32
M  V30 32 2 32 33
M  V30 33 1 32 34
M  V30 34 1 7 2
M  V30 35 1 10 8
M  V30 36 1 31 11
M  V30 37 1 34 5
M  V30 38 1 30 14
M  V30 39 1 27 18
M  V30 40 1 1 35
M  V30 41 1 1 36
M  V30 42 1 1 37
M  V30 43 1 3 38
M  V30 44 1 4 39
M  V30 45 1 7 40
M  V30 46 1 9 41
M  V30 47 1 9 42
M  V30 48 1 10 43 CFG=1
M  V30 49 1 12 44
M  V30 50 1 13 45
M  V30 51 1 16 46
M  V30 52 1 17 47
M  V30 53 1 19 48
M  V30 54 1 20 49
M  V30 55 1 22 50
M  V30 56 1 22 51
M  V30 57 1 24 52
M  V30 58 1 24 53
M  V30 59 1 24 54
M  V30 60 1 25 55
M  V30 61 1 25 56
M  V30 62 1 25 57
M  V30 63 1 26 58
M  V30 64 1 27 59
M  V30 65 1 29 60
M  V30 66 1 31 61
M  V30 67 1 34 62
M  V30 END BOND
M  V30 END CTAB
M  END
>  <Dataset>  (819) 
ChEMBL_Kinases

>  <Ligand_Instance>  (819) 
nan

>  <PDB_ID>  (819) 
nan

>  <Standardized_SMILES>  (819) 
Cc1ccc2c(c1)[C@]1(C[C@H]1c1ccc3c(/C=C/c4ccc(CN(C)C)cc4)n[nH]c3c1)C(=O)N2

>  <Name>  (819) 
nan

>  <Pocket>  (819) 
nan

>  <ATP_Site>  (819) 
nan

>  <Peripheral>  (819) 
nan

>  <Num_H_Atoms_ProtBoundConf>  (819) 
nan

>  <Num_Resolved_Atoms>  (819) 
nan

>  <Num_Not_Resolved_Atoms>  (819) 
nan

$$$$
CHEMBL3353352
     RDKit          3D

  0  0  0  0  0  0  0  0  0  0999 V3000
M  V30 BEGIN CTAB
M  V30 COUNTS 59 64 0 0 0
M  V30 BEGIN ATOM
M  V30 1 C 9.251230 -1.363543 2.585849 0
M  V30 2 N 7.895228 -1.258777 2.079513 0
M  V30 3 C 7.127644 -2.427600 2.386827 0
M  V30 4 C 7.265352 -0.026607 2.421961 0
M  V30 5 C 5.889373 0.122158 1.924162 0
M  V30 6 C 4.829236 -0.304858 2.698210 0
M  V30 7 C 3.528057 -0.181856 2.265918 0
M  V30 8 C 3.253269 0.376456 1.037528 0
M  V30 9 C 1.859976 0.481201 0.630457 0
M  V30 10 C 1.330220 0.956700 -0.450178 0
M  V30 11 C 0.026555 1.148065 -1.029366 0
M  V30 12 N -0.123982 1.711893 -2.251149 0
M  V30 13 N -1.397098 1.779287 -2.560738 0
M  V30 14 C -2.179502 1.279429 -1.596957 0
M  V30 15 C -3.536277 1.102255 -1.395460 0
M  V30 16 C -4.046540 0.526614 -0.233987 0
M  V30 17 C -5.502759 0.427359 -0.160411 0 CFG=2
M  V30 18 C -6.243009 0.012575 1.049405 0
M  V30 19 C -6.269992 -0.835831 -0.129515 0 CFG=1
M  V30 20 C -7.468035 -0.918682 -1.017850 0
M  V30 21 O -8.242671 0.084775 -1.110549 0
M  V30 22 N -7.589536 -2.170585 -1.674574 0
M  V30 23 C -6.488180 -2.914557 -1.167401 0
M  V30 24 C -6.231385 -4.241680 -1.529113 0
M  V30 25 C -5.165574 -4.907015 -0.972881 0
M  V30 26 C -4.376520 -4.231889 -0.064750 0
M  V30 27 F -3.338901 -4.912060 0.463558 0
M  V30 28 C -4.682997 -2.936837 0.243715 0
M  V30 29 C -5.722362 -2.176928 -0.252755 0
M  V30 30 C -3.089874 0.155266 0.683225 0
M  V30 31 C -1.737832 0.320765 0.505658 0
M  V30 32 C -1.265585 0.889686 -0.646897 0
M  V30 33 C 4.330692 0.793546 0.286950 0
M  V30 34 C 5.646323 0.686373 0.687284 0
M  V30 35 H 9.777598 -0.392885 2.545490 0
M  V30 36 H 9.827550 -2.150691 2.062899 0
M  V30 37 H 9.196600 -1.669783 3.660878 0
M  V30 38 H 6.870617 -2.384299 3.466258 0
M  V30 39 H 7.816659 -3.303923 2.289676 0
M  V30 40 H 6.290848 -2.636495 1.715601 0
M  V30 41 H 7.294064 0.204804 3.521095 0
M  V30 42 H 7.904057 0.785708 1.971648 0
M  V30 43 H 5.041735 -0.737957 3.651019 0
M  V30 44 H 2.718033 -0.536851 2.918753 0
M  V30 45 H 1.109169 0.122309 1.293175 0
M  V30 46 H 2.195206 1.292070 -1.048212 0
M  V30 47 H -1.716630 2.182684 -3.462677 0
M  V30 48 H -4.176755 1.435813 -2.190083 0
M  V30 49 H -6.019242 1.235783 -0.777526 0
M  V30 50 H -5.710911 -0.356465 1.958201 0
M  V30 51 H -7.204339 0.528231 1.334723 0
M  V30 52 H -8.330332 -2.422726 -2.354529 0
M  V30 53 H -6.829879 -4.795249 -2.235371 0
M  V30 54 H -4.963915 -5.914410 -1.242350 0
M  V30 55 H -4.013552 -2.516008 0.961974 0
M  V30 56 H -3.499468 -0.289207 1.593062 0
M  V30 57 H -1.078759 -0.002519 1.281032 0
M  V30 58 H 4.170532 1.231324 -0.669075 0
M  V30 59 H 6.465438 1.030709 0.058198 0
M  V30 END ATOM
M  V30 BEGIN BOND
M  V30 1 1 1 2
M  V30 2 1 2 3
M  V30 3 1 2 4
M  V30 4 1 4 5
M  V30 5 2 5 6
M  V30 6 1 6 7
M  V30 7 2 7 8
M  V30 8 1 8 9
M  V30 9 2 9 10
M  V30 10 1 10 11
M  V30 11 2 11 12
M  V30 12 1 12 13
M  V30 13 1 13 14
M  V30 14 2 14 15
M  V30 15 1 15 16
M  V30 16 1 16 17
M  V30 17 1 17 18
M  V30 18 1 19 18 CFG=1
M  V30 19 1 19 20
M  V30 20 2 20 21
M  V30 21 1 20 22
M  V30 22 1 22 23
M  V30 23 2 23 24
M  V30 24 1 24 25
M  V30 25 2 25 26
M  V30 26 1 26 27
M  V30 27 1 26 28
M  V30 28 2 28 29
M  V30 29 2 16 30
M  V30 30 1 30 31
M  V30 31 2 31 32
M  V30 32 1 8 33
M  V30 33 2 33 34
M  V30 34 1 34 5
M  V30 35 1 32 11
M  V30 36 1 32 14
M  V30 37 1 19 17
M  V30 38 1 29 23
M  V30 39 1 29 19
M  V30 40 1 1 35
M  V30 41 1 1 36
M  V30 42 1 1 37
M  V30 43 1 3 38
M  V30 44 1 3 39
M  V30 45 1 3 40
M  V30 46 1 4 41
M  V30 47 1 4 42
M  V30 48 1 6 43
M  V30 49 1 7 44
M  V30 50 1 9 45
M  V30 51 1 10 46
M  V30 52 1 13 47
M  V30 53 1 15 48
M  V30 54 1 17 49 CFG=3
M  V30 55 1 18 50
M  V30 56 1 18 51
M  V30 57 1 22 52
M  V30 58 1 24 53
M  V30 59 1 25 54
M  V30 60 1 28 55
M  V30 61 1 30 56
M  V30 62 1 31 57
M  V30 63 1 33 58
M  V30 64 1 34 59
M  V30 END BOND
M  V30 END CTAB
M  END
>  <Dataset>  (820) 
ChEMBL_Kinases

>  <Ligand_Instance>  (820) 
nan

>  <PDB_ID>  (820) 
nan

>  <Standardized_SMILES>  (820) 
CN(C)Cc1ccc(/C=C/c2n[nH]c3cc([C@@H]4C[C@@]45C(=O)Nc4ccc(F)cc45)ccc23)cc1

>  <Name>  (820) 
nan

>  <Pocket>  (820) 
nan

>  <ATP_Site>  (820) 
nan

>  <Peripheral>  (820) 
nan

>  <Num_H_Atoms_ProtBoundConf>  (820) 
nan

>  <Num_Resolved_Atoms>  (820) 
nan

>  <Num_Not_Resolved_Atoms>  (820) 
nan

$$$$
CHEMBL3353353
     RDKit          3D

  0  0  0  0  0  0  0  0  0  0999 V3000
M  V30 BEGIN CTAB
M  V30 COUNTS 65 70 0 0 0
M  V30 BEGIN ATOM
M  V30 1 C 2.794087 1.406980 4.625505 0
M  V30 2 C 4.135815 1.824249 4.121504 0
M  V30 3 C 4.073994 2.876129 3.094716 0
M  V30 4 C 4.109813 4.187002 3.521738 0
M  V30 5 C 4.056072 5.216879 2.611051 0
M  V30 6 C 3.964753 4.878599 1.255257 0
M  V30 7 C 3.920676 3.583145 0.718219 0
M  V30 8 C 3.983023 2.655226 1.737530 0
M  V30 9 C 3.814796 3.632488 -0.720095 0 CFG=1
M  V30 10 C 4.532116 2.844972 -1.710118 0
M  V30 11 C 3.048385 2.772714 -1.616679 0 CFG=1
M  V30 12 C 2.471660 1.494215 -1.186034 0
M  V30 13 C 1.071606 1.416446 -1.219172 0
M  V30 14 C 0.341329 0.290687 -0.879419 0
M  V30 15 C 1.029279 -0.824851 -0.483531 0
M  V30 16 C 0.539611 -2.044127 -0.103767 0
M  V30 17 C -0.750464 -2.658958 0.043591 0
M  V30 18 C -1.994080 -2.351726 -0.107992 0
M  V30 19 C -3.217471 -3.115278 0.090554 0
M  V30 20 C -4.429607 -2.509633 -0.155776 0
M  V30 21 C -5.593398 -3.221479 0.027305 0
M  V30 22 C -5.604249 -4.530962 0.451765 0
M  V30 23 C -6.857393 -5.309740 0.651703 0
M  V30 24 N -7.257655 -6.011237 -0.550487 0
M  V30 25 C -7.495358 -5.084548 -1.637528 0
M  V30 26 C -6.281479 -6.973302 -0.979843 0
M  V30 27 C -4.403783 -5.163655 0.706451 0
M  V30 28 C -3.254894 -4.426196 0.514380 0
M  V30 29 N 1.664733 -2.764930 0.180226 0
M  V30 30 N 2.723273 -2.014777 -0.021702 0
M  V30 31 C 2.401100 -0.801951 -0.433513 0
M  V30 32 C 3.088554 0.334627 -0.778632 0
M  V30 33 C 3.866851 5.115503 -0.960986 0
M  V30 34 O 3.854071 5.632875 -2.116928 0
M  V30 35 N 3.931729 5.883191 0.231662 0
M  V30 36 H 2.611982 1.552920 5.693539 0
M  V30 37 H 2.559264 0.387893 4.276542 0
M  V30 38 H 2.040858 2.070275 4.109598 0
M  V30 39 H 4.654933 0.954888 3.675638 0
M  V30 40 H 4.800401 2.129274 4.981910 0
M  V30 41 H 4.180229 4.420211 4.573757 0
M  V30 42 H 4.087420 6.210435 2.993060 0
M  V30 43 H 3.970650 1.605661 1.527490 0
M  V30 44 H 4.870695 3.341879 -2.668061 0
M  V30 45 H 5.170121 1.985428 -1.485306 0
M  V30 46 H 2.387459 3.292530 -2.387517 0
M  V30 47 H 0.472959 2.287283 -1.530767 0
M  V30 48 H -0.723971 0.300444 -0.927143 0
M  V30 49 H -0.793463 -3.708165 0.383715 0
M  V30 50 H -2.098813 -1.337088 -0.443066 0
M  V30 51 H -4.521857 -1.476579 -0.494805 0
M  V30 52 H -6.547868 -2.737001 -0.169012 0
M  V30 53 H -6.679738 -6.057949 1.440892 0
M  V30 54 H -7.642137 -4.600906 0.955918 0
M  V30 55 H -6.622024 -4.461706 -1.836089 0
M  V30 56 H -8.417007 -4.499166 -1.399700 0
M  V30 57 H -7.716096 -5.631723 -2.562813 0
M  V30 58 H -6.640434 -7.368105 -1.958383 0
M  V30 59 H -5.301492 -6.474058 -1.194979 0
M  V30 60 H -6.149578 -7.828633 -0.289342 0
M  V30 61 H -4.382102 -6.193719 1.041716 0
M  V30 62 H -2.337224 -4.954327 0.723191 0
M  V30 63 H 3.695409 -2.353155 0.130232 0
M  V30 64 H 4.165330 0.381084 -0.748750 0
M  V30 65 H 3.947531 6.915690 0.272371 0
M  V30 END ATOM
M  V30 BEGIN BOND
M  V30 1 1 1 2
M  V30 2 1 2 3
M  V30 3 2 3 4
M  V30 4 1 4 5
M  V30 5 2 5 6
M  V30 6 1 6 7
M  V30 7 2 7 8
M  V30 8 1 7 9
M  V30 9 1 9 10 CFG=3
M  V30 10 1 10 11
M  V30 11 1 11 12
M  V30 12 2 12 13
M  V30 13 1 13 14
M  V30 14 2 14 15
M  V30 15 1 15 16
M  V30 16 1 16 17
M  V30 17 2 17 18
M  V30 18 1 18 19
M  V30 19 2 19 20
M  V30 20 1 20 21
M  V30 21 2 21 22
M  V30 22 1 22 23
M  V30 23 1 23 24
M  V30 24 1 24 25
M  V30 25 1 24 26
M  V30 26 1 22 27
M  V30 27 2 27 28
M  V30 28 2 16 29
M  V30 29 1 29 30
M  V30 30 1 30 31
M  V30 31 2 31 32
M  V30 32 1 9 33
M  V30 33 2 33 34
M  V30 34 1 33 35
M  V30 35 1 8 3
M  V30 36 1 11 9
M  V30 37 1 32 12
M  V30 38 1 35 6
M  V30 39 1 31 15
M  V30 40 1 28 19
M  V30 41 1 1 36
M  V30 42 1 1 37
M  V30 43 1 1 38
M  V30 44 1 2 39
M  V30 45 1 2 40
M  V30 46 1 4 41
M  V30 47 1 5 42
M  V30 48 1 8 43
M  V30 49 1 10 44
M  V30 50 1 10 45
M  V30 51 1 11 46 CFG=3
M  V30 52 1 13 47
M  V30 53 1 14 48
M  V30 54 1 17 49
M  V30 55 1 18 50
M  V30 56 1 20 51
M  V30 57 1 21 52
M  V30 58 1 23 53
M  V30 59 1 23 54
M  V30 60 1 25 55
M  V30 61 1 25 56
M  V30 62 1 25 57
M  V30 63 1 26 58
M  V30 64 1 26 59
M  V30 65 1 26 60
M  V30 66 1 27 61
M  V30 67 1 28 62
M  V30 68 1 30 63
M  V30 69 1 32 64
M  V30 70 1 35 65
M  V30 END BOND
M  V30 END CTAB
M  END
>  <Dataset>  (821) 
ChEMBL_Kinases

>  <Ligand_Instance>  (821) 
nan

>  <PDB_ID>  (821) 
nan

>  <Standardized_SMILES>  (821) 
CCc1ccc2c(c1)[C@]1(C[C@H]1c1ccc3c(/C=C/c4ccc(CN(C)C)cc4)n[nH]c3c1)C(=O)N2

>  <Name>  (821) 
nan

>  <Pocket>  (821) 
nan

>  <ATP_Site>  (821) 
nan

>  <Peripheral>  (821) 
nan

>  <Num_H_Atoms_ProtBoundConf>  (821) 
nan

>  <Num_Resolved_Atoms>  (821) 
nan

>  <Num_Not_Resolved_Atoms>  (821) 
nan

$$$$
CHEMBL3353356
     RDKit          3D

  0  0  0  0  0  0  0  0  0  0999 V3000
M  V30 BEGIN CTAB
M  V30 COUNTS 64 70 0 0 0
M  V30 BEGIN ATOM
M  V30 1 O 2.598153 6.414608 5.352527 0
M  V30 2 C 3.117757 5.352507 4.965555 0
M  V30 3 N 3.957086 4.525282 5.768695 0
M  V30 4 C 4.363142 3.428166 4.954189 0
M  V30 5 C 5.201696 2.406689 5.350804 0
M  V30 6 C 5.543341 1.406794 4.463273 0
M  V30 7 C 5.045800 1.429764 3.180478 0
M  V30 8 F 5.316140 0.497247 2.221464 0
M  V30 9 C 4.220093 2.474274 2.859362 0
M  V30 10 C 3.819268 3.516853 3.667066 0
M  V30 11 C 2.990332 4.715326 3.622371 0 CFG=2
M  V30 12 C 2.942390 5.522704 2.375480 0
M  V30 13 C 1.719283 4.911473 2.964522 0 CFG=1
M  V30 14 C 0.947410 3.903819 2.205007 0
M  V30 15 C 0.850390 2.536079 2.336191 0
M  V30 16 C 0.076414 1.770037 1.494806 0
M  V30 17 C -0.645358 2.348675 0.469626 0
M  V30 18 C -1.467359 1.754719 -0.468437 0
M  V30 19 C -1.757094 0.329479 -0.566804 0
M  V30 20 C -2.535150 -0.186083 -1.487470 0
M  V30 21 C -2.866206 -1.599393 -1.641470 0
M  V30 22 C -3.692716 -2.047549 -2.653342 0
M  V30 23 C -4.000148 -3.386559 -2.790190 0
M  V30 24 C -3.499656 -4.339786 -1.927300 0
M  V30 25 C -3.900097 -5.745496 -2.173434 0
M  V30 26 N -3.015732 -6.459045 -3.058233 0
M  V30 27 C -3.431501 -7.824571 -3.286383 0
M  V30 28 C -2.403754 -8.832040 -2.814012 0
M  V30 29 O -2.069242 -8.491840 -1.511090 0
M  V30 30 C -1.273783 -7.357108 -1.553743 0
M  V30 31 C -1.630669 -6.420451 -2.680882 0
M  V30 32 C -2.663121 -3.922542 -0.895037 0
M  V30 33 C -2.384362 -2.575749 -0.798139 0
M  V30 34 N -1.892777 2.782410 -1.201703 0
M  V30 35 N -1.380637 3.934284 -0.762439 0
M  V30 36 C -0.582218 3.714257 0.296703 0
M  V30 37 C 0.205646 4.468120 1.157943 0
M  V30 38 H 4.199694 4.731263 6.760393 0
M  V30 39 H 5.624460 2.332371 6.339344 0
M  V30 40 H 6.194664 0.561058 4.678717 0
M  V30 41 H 3.810769 2.510309 1.836683 0
M  V30 42 H 3.116244 6.595128 2.402547 0
M  V30 43 H 3.336335 5.008151 1.468585 0
M  V30 44 H 1.019146 5.724874 3.352819 0
M  V30 45 H 1.428557 2.152372 3.161525 0
M  V30 46 H 0.111233 0.709159 1.734148 0
M  V30 47 H -1.317771 -0.350955 0.145799 0
M  V30 48 H -2.964136 0.510225 -2.191976 0
M  V30 49 H -4.105930 -1.334886 -3.350955 0
M  V30 50 H -4.658747 -3.681878 -3.608839 0
M  V30 51 H -3.951789 -6.323780 -1.226346 0
M  V30 52 H -4.904558 -5.774085 -2.616523 0
M  V30 53 H -4.413059 -8.065542 -2.858400 0
M  V30 54 H -3.527590 -8.006476 -4.394806 0
M  V30 55 H -1.477033 -8.762568 -3.419743 0
M  V30 56 H -2.821057 -9.835436 -2.915740 0
M  V30 57 H -0.212538 -7.713625 -1.683252 0
M  V30 58 H -1.352261 -6.871819 -0.558666 0
M  V30 59 H -1.006161 -6.670997 -3.562024 0
M  V30 60 H -1.366433 -5.397526 -2.371638 0
M  V30 61 H -2.277768 -4.678087 -0.225622 0
M  V30 62 H -1.734819 -2.331709 0.019351 0
M  V30 63 H -1.536378 4.902454 -1.140870 0
M  V30 64 H 0.174631 5.521270 0.923247 0
M  V30 END ATOM
M  V30 BEGIN BOND
M  V30 1 2 1 2
M  V30 2 1 2 3
M  V30 3 1 3 4
M  V30 4 2 4 5
M  V30 5 1 5 6
M  V30 6 2 6 7
M  V30 7 1 7 8
M  V30 8 1 7 9
M  V30 9 2 9 10
M  V30 10 1 10 11
M  V30 11 1 11 12 CFG=3
M  V30 12 1 12 13
M  V30 13 1 13 14
M  V30 14 2 14 15
M  V30 15 1 15 16
M  V30 16 2 16 17
M  V30 17 1 17 18
M  V30 18 1 18 19
M  V30 19 2 19 20
M  V30 20 1 20 21
M  V30 21 2 21 22
M  V30 22 1 22 23
M  V30 23 2 23 24
M  V30 24 1 24 25
M  V30 25 1 25 26
M  V30 26 1 26 27
M  V30 27 1 27 28
M  V30 28 1 28 29
M  V30 29 1 29 30
M  V30 30 1 30 31
M  V30 31 1 24 32
M  V30 32 2 32 33
M  V30 33 2 18 34
M  V30 34 1 34 35
M  V30 35 1 35 36
M  V30 36 2 36 37
M  V30 37 1 11 2
M  V30 38 1 37 14
M  V30 39 1 10 4
M  V30 40 1 13 11
M  V30 41 1 36 17
M  V30 42 1 33 21
M  V30 43 1 31 26
M  V30 44 1 3 38
M  V30 45 1 5 39
M  V30 46 1 6 40
M  V30 47 1 9 41
M  V30 48 1 12 42
M  V30 49 1 12 43
M  V30 50 1 13 44 CFG=1
M  V30 51 1 15 45
M  V30 52 1 16 46
M  V30 53 1 19 47
M  V30 54 1 20 48
M  V30 55 1 22 49
M  V30 56 1 23 50
M  V30 57 1 25 51
M  V30 58 1 25 52
M  V30 59 1 27 53
M  V30 60 1 27 54
M  V30 61 1 28 55
M  V30 62 1 28 56
M  V30 63 1 30 57
M  V30 64 1 30 58
M  V30 65 1 31 59
M  V30 66 1 31 60
M  V30 67 1 32 61
M  V30 68 1 33 62
M  V30 69 1 35 63
M  V30 70 1 37 64
M  V30 END BOND
M  V30 END CTAB
M  END
>  <Dataset>  (822) 
ChEMBL_Kinases

>  <Ligand_Instance>  (822) 
nan

>  <PDB_ID>  (822) 
nan

>  <Standardized_SMILES>  (822) 
O=C1Nc2ccc(F)cc2[C@]12C[C@H]2c1ccc2c(/C=C/c3ccc(CN4CCOCC4)cc3)n[nH]c2c1

>  <Name>  (822) 
nan

>  <Pocket>  (822) 
nan

>  <ATP_Site>  (822) 
nan

>  <Peripheral>  (822) 
nan

>  <Num_H_Atoms_ProtBoundConf>  (822) 
nan

>  <Num_Resolved_Atoms>  (822) 
nan

>  <Num_Not_Resolved_Atoms>  (822) 
nan

$$$$
CHEMBL3353357
     RDKit          3D

  0  0  0  0  0  0  0  0  0  0999 V3000
M  V30 BEGIN CTAB
M  V30 COUNTS 67 73 0 0 0
M  V30 BEGIN ATOM
M  V30 1 C 4.087129 -2.141176 3.898653 0
M  V30 2 C 4.988502 -0.968706 3.760606 0
M  V30 3 C 5.889707 -0.766233 4.774538 0
M  V30 4 C 6.749081 0.306354 4.694985 0
M  V30 5 C 6.675440 1.154003 3.583729 0
M  V30 6 C 5.777822 1.000175 2.518829 0
M  V30 7 C 4.974209 -0.103391 2.712240 0
M  V30 8 C 5.980928 2.057827 1.561387 0 CFG=1
M  V30 9 C 6.093583 1.941863 0.110996 0
M  V30 10 C 5.027757 2.822632 0.792528 0 CFG=1
M  V30 11 C 3.615928 2.499169 0.529482 0
M  V30 12 C 3.065996 1.331234 0.043445 0
M  V30 13 C 1.717581 1.142589 -0.159664 0
M  V30 14 C 0.842999 2.156635 0.128575 0
M  V30 15 C -0.520819 2.163133 -0.003146 0
M  V30 16 C -1.547378 1.260632 -0.451717 0
M  V30 17 C -1.640202 0.058630 -0.938860 0
M  V30 18 C -2.809306 -0.705438 -1.344442 0
M  V30 19 C -4.096274 -0.282827 -1.301972 0
M  V30 20 C -5.196217 -1.017757 -1.691727 0
M  V30 21 C -4.947604 -2.294543 -2.164269 0
M  V30 22 C -5.992977 -3.211504 -2.627140 0
M  V30 23 N -6.525718 -4.010017 -1.583831 0
M  V30 24 C -7.528104 -4.943219 -1.905782 0
M  V30 25 C -7.601521 -6.132938 -0.977888 0
M  V30 26 O -7.542638 -5.624012 0.323983 0
M  V30 27 C -6.225120 -5.231775 0.530057 0
M  V30 28 C -5.780661 -4.154665 -0.405650 0
M  V30 29 C -3.652929 -2.767691 -2.225698 0
M  V30 30 C -2.597928 -1.981737 -1.820409 0
M  V30 31 N -0.857341 3.412344 0.427377 0
M  V30 32 N 0.218969 4.070376 0.776717 0
M  V30 33 C 1.334407 3.344658 0.616605 0
M  V30 34 C 2.689339 3.516396 0.813921 0
M  V30 35 C 7.135218 2.828016 2.180388 0
M  V30 36 O 7.692276 3.856746 1.661064 0
M  V30 37 N 7.538495 2.274058 3.422379 0
M  V30 38 H 3.787100 -2.225660 4.968361 0
M  V30 39 H 4.612562 -3.084327 3.645113 0
M  V30 40 H 3.225655 -1.957235 3.243070 0
M  V30 41 H 5.939933 -1.423551 5.628985 0
M  V30 42 H 7.444062 0.434715 5.510878 0
M  V30 43 H 4.233590 -0.363748 1.982813 0
M  V30 44 H 5.761502 1.007857 -0.388510 0
M  V30 45 H 6.866729 2.464857 -0.486730 0
M  V30 46 H 5.276830 3.934034 0.756246 0
M  V30 47 H 3.782843 0.563401 -0.171707 0
M  V30 48 H 1.384672 0.199109 -0.540041 0
M  V30 49 H -2.592337 1.604511 -0.400743 0
M  V30 50 H -0.663789 -0.386398 -1.034003 0
M  V30 51 H -4.313295 0.701332 -0.940550 0
M  V30 52 H -6.202486 -0.653941 -1.644454 0
M  V30 53 H -6.838274 -2.599578 -3.051944 0
M  V30 54 H -5.663587 -3.869520 -3.458046 0
M  V30 55 H -7.380896 -5.292820 -2.957816 0
M  V30 56 H -8.536566 -4.473232 -1.910858 0
M  V30 57 H -8.542908 -6.664317 -1.194593 0
M  V30 58 H -6.705171 -6.761765 -1.162220 0
M  V30 59 H -6.129806 -4.910109 1.587735 0
M  V30 60 H -5.603869 -6.146612 0.436268 0
M  V30 61 H -4.703500 -4.303318 -0.613814 0
M  V30 62 H -5.858630 -3.183318 0.164925 0
M  V30 63 H -3.420375 -3.777499 -2.595544 0
M  V30 64 H -1.583212 -2.405806 -1.889784 0
M  V30 65 H 0.180106 5.045585 1.135154 0
M  V30 66 H 2.922715 4.512844 1.205736 0
M  V30 67 H 8.298535 2.654453 4.020558 0
M  V30 END ATOM
M  V30 BEGIN BOND
M  V30 1 1 1 2
M  V30 2 2 2 3
M  V30 3 1 3 4
M  V30 4 2 4 5
M  V30 5 1 5 6
M  V30 6 2 6 7
M  V30 7 1 6 8
M  V30 8 1 8 9 CFG=3
M  V30 9 1 9 10
M  V30 10 1 10 11
M  V30 11 2 11 12
M  V30 12 1 12 13
M  V30 13 2 13 14
M  V30 14 1 14 15
M  V30 15 1 15 16
M  V30 16 2 16 17
M  V30 17 1 17 18
M  V30 18 2 18 19
M  V30 19 1 19 20
M  V30 20 2 20 21
M  V30 21 1 21 22
M  V30 22 1 22 23
M  V30 23 1 23 24
M  V30 24 1 24 25
M  V30 25 1 25 26
M  V30 26 1 26 27
M  V30 27 1 27 28
M  V30 28 1 21 29
M  V30 29 2 29 30
M  V30 30 2 15 31
M  V30 31 1 31 32
M  V30 32 1 32 33
M  V30 33 2 33 34
M  V30 34 1 8 35
M  V30 35 2 35 36
M  V30 36 1 35 37
M  V30 37 1 7 2
M  V30 38 1 10 8
M  V30 39 1 34 11
M  V30 40 1 37 5
M  V30 41 1 33 14
M  V30 42 1 30 18
M  V30 43 1 28 23
M  V30 44 1 1 38
M  V30 45 1 1 39
M  V30 46 1 1 40
M  V30 47 1 3 41
M  V30 48 1 4 42
M  V30 49 1 7 43
M  V30 50 1 9 44
M  V30 51 1 9 45
M  V30 52 1 10 46 CFG=3
M  V30 53 1 12 47
M  V30 54 1 13 48
M  V30 55 1 16 49
M  V30 56 1 17 50
M  V30 57 1 19 51
M  V30 58 1 20 52
M  V30 59 1 22 53
M  V30 60 1 22 54
M  V30 61 1 24 55
M  V30 62 1 24 56
M  V30 63 1 25 57
M  V30 64 1 25 58
M  V30 65 1 27 59
M  V30 66 1 27 60
M  V30 67 1 28 61
M  V30 68 1 28 62
M  V30 69 1 29 63
M  V30 70 1 30 64
M  V30 71 1 32 65
M  V30 72 1 34 66
M  V30 73 1 37 67
M  V30 END BOND
M  V30 END CTAB
M  END
>  <Dataset>  (823) 
ChEMBL_Kinases

>  <Ligand_Instance>  (823) 
nan

>  <PDB_ID>  (823) 
nan

>  <Standardized_SMILES>  (823) 
Cc1ccc2c(c1)[C@]1(C[C@H]1c1ccc3c(/C=C/c4ccc(CN5CCOCC5)cc4)n[nH]c3c1)C(=O)N2

>  <Name>  (823) 
nan

>  <Pocket>  (823) 
nan

>  <ATP_Site>  (823) 
nan

>  <Peripheral>  (823) 
nan

>  <Num_H_Atoms_ProtBoundConf>  (823) 
nan

>  <Num_Resolved_Atoms>  (823) 
nan

>  <Num_Not_Resolved_Atoms>  (823) 
nan

$$$$
CHEMBL3353360
     RDKit          3D

  0  0  0  0  0  0  0  0  0  0999 V3000
M  V30 BEGIN CTAB
M  V30 COUNTS 65 70 0 0 0
M  V30 BEGIN ATOM
M  V30 1 C 4.240821 -2.523343 4.773168 0
M  V30 2 C 5.430008 -2.584276 3.834593 0
M  V30 3 N 6.088481 -1.375476 3.636545 0
M  V30 4 C 6.817816 -0.755898 4.655183 0
M  V30 5 C 5.954531 -0.216855 5.804043 0
M  V30 6 C 6.092131 -0.887908 2.331502 0
M  V30 7 C 4.769848 -0.597512 1.716995 0
M  V30 8 C 4.018669 -1.428259 0.923057 0
M  V30 9 C 2.792300 -1.096845 0.388849 0
M  V30 10 C 2.266310 0.151824 0.657843 0
M  V30 11 C 0.970300 0.472257 0.073290 0
M  V30 12 C 0.235958 1.542769 0.149217 0
M  V30 13 C -1.016861 2.034919 -0.332343 0
M  V30 14 N -1.464236 3.285365 -0.014245 0
M  V30 15 N -2.617070 3.501228 -0.567126 0
M  V30 16 C -3.038708 2.454051 -1.283573 0
M  V30 17 C -4.172269 2.234284 -2.024691 0
M  V30 18 C -4.289836 1.011449 -2.650282 0
M  V30 19 C -5.417562 0.561549 -3.493276 0 CFG=2
M  V30 20 C -6.818762 0.519948 -2.965475 0
M  V30 21 C -6.101477 -0.728977 -3.214275 0 CFG=1
M  V30 22 C -6.404682 -1.670258 -4.301037 0
M  V30 23 O -6.856792 -1.333376 -5.436223 0
M  V30 24 N -6.099104 -2.992246 -3.838960 0
M  V30 25 C -5.636491 -2.933637 -2.490905 0
M  V30 26 C -5.231966 -3.919841 -1.600169 0
M  V30 27 C -4.836692 -3.585139 -0.320323 0
M  V30 28 C -4.830980 -2.275128 0.110186 0
M  V30 29 C -5.236998 -1.330342 -0.799100 0
M  V30 30 C -5.647686 -1.606267 -2.108042 0
M  V30 31 C -3.265920 0.066103 -2.503870 0
M  V30 32 C -2.147611 0.337741 -1.747323 0
M  V30 33 C -2.023607 1.541075 -1.127001 0
M  V30 34 C 3.009608 0.997692 1.454069 0
M  V30 35 C 4.233936 0.654334 1.982632 0
M  V30 36 H 4.580757 -2.715620 5.789374 0
M  V30 37 H 3.594604 -3.405249 4.489033 0
M  V30 38 H 3.602297 -1.645622 4.629521 0
M  V30 39 H 5.091797 -3.001636 2.854450 0
M  V30 40 H 6.107646 -3.368979 4.287944 0
M  V30 41 H 7.536885 -1.471220 5.116709 0
M  V30 42 H 7.462582 0.074691 4.265057 0
M  V30 43 H 5.884493 -0.901842 6.648933 0
M  V30 44 H 6.452554 0.707905 6.211434 0
M  V30 45 H 4.991698 0.146774 5.395045 0
M  V30 46 H 6.732710 0.011594 2.161029 0
M  V30 47 H 6.600086 -1.673706 1.682062 0
M  V30 48 H 4.413580 -2.399619 0.695166 0
M  V30 49 H 2.274807 -1.835717 -0.232971 0
M  V30 50 H 0.492494 -0.256194 -0.528929 0
M  V30 51 H 0.835537 2.214354 0.795336 0
M  V30 52 H -3.126321 4.402780 -0.441011 0
M  V30 53 H -4.973441 2.945721 -2.152320 0
M  V30 54 H -5.389647 0.838448 -4.583292 0
M  V30 55 H -7.688615 0.774549 -3.605476 0
M  V30 56 H -6.909579 0.881668 -1.916319 0
M  V30 57 H -6.218796 -3.834100 -4.446432 0
M  V30 58 H -5.218865 -4.976206 -1.893426 0
M  V30 59 H -4.517782 -4.357351 0.382735 0
M  V30 60 H -4.523049 -1.998313 1.112459 0
M  V30 61 H -5.224313 -0.302148 -0.426436 0
M  V30 62 H -3.316890 -0.923344 -2.984327 0
M  V30 63 H -1.388863 -0.404924 -1.657040 0
M  V30 64 H 2.625394 1.977032 1.681930 0
M  V30 65 H 4.769767 1.363468 2.601620 0
M  V30 END ATOM
M  V30 BEGIN BOND
M  V30 1 1 1 2
M  V30 2 1 2 3
M  V30 3 1 3 4
M  V30 4 1 4 5
M  V30 5 1 3 6
M  V30 6 1 6 7
M  V30 7 2 7 8
M  V30 8 1 8 9
M  V30 9 2 9 10
M  V30 10 1 10 11
M  V30 11 2 11 12
M  V30 12 1 12 13
M  V30 13 2 13 14
M  V30 14 1 14 15
M  V30 15 1 15 16
M  V30 16 2 16 17
M  V30 17 1 17 18
M  V30 18 1 18 19
M  V30 19 1 19 20
M  V30 20 1 21 20 CFG=1
M  V30 21 1 21 22
M  V30 22 2 22 23
M  V30 23 1 22 24
M  V30 24 1 24 25
M  V30 25 2 25 26
M  V30 26 1 26 27
M  V30 27 2 27 28
M  V30 28 1 28 29
M  V30 29 2 29 30
M  V30 30 2 18 31
M  V30 31 1 31 32
M  V30 32 2 32 33
M  V30 33 1 10 34
M  V30 34 2 34 35
M  V30 35 1 35 7
M  V30 36 1 33 13
M  V30 37 1 33 16
M  V30 38 1 21 19
M  V30 39 1 30 25
M  V30 40 1 30 21
M  V30 41 1 1 36
M  V30 42 1 1 37
M  V30 43 1 1 38
M  V30 44 1 2 39
M  V30 45 1 2 40
M  V30 46 1 4 41
M  V30 47 1 4 42
M  V30 48 1 5 43
M  V30 49 1 5 44
M  V30 50 1 5 45
M  V30 51 1 6 46
M  V30 52 1 6 47
M  V30 53 1 8 48
M  V30 54 1 9 49
M  V30 55 1 11 50
M  V30 56 1 12 51
M  V30 57 1 15 52
M  V30 58 1 17 53
M  V30 59 1 19 54 CFG=3
M  V30 60 1 20 55
M  V30 61 1 20 56
M  V30 62 1 24 57
M  V30 63 1 26 58
M  V30 64 1 27 59
M  V30 65 1 28 60
M  V30 66 1 29 61
M  V30 67 1 31 62
M  V30 68 1 32 63
M  V30 69 1 34 64
M  V30 70 1 35 65
M  V30 END BOND
M  V30 END CTAB
M  END
>  <Dataset>  (824) 
ChEMBL_Kinases

>  <Ligand_Instance>  (824) 
nan

>  <PDB_ID>  (824) 
nan

>  <Standardized_SMILES>  (824) 
CCN(CC)Cc1ccc(/C=C/c2n[nH]c3cc([C@@H]4C[C@@]45C(=O)Nc4ccccc45)ccc23)cc1

>  <Name>  (824) 
nan

>  <Pocket>  (824) 
nan

>  <ATP_Site>  (824) 
nan

>  <Peripheral>  (824) 
nan

>  <Num_H_Atoms_ProtBoundConf>  (824) 
nan

>  <Num_Resolved_Atoms>  (824) 
nan

>  <Num_Not_Resolved_Atoms>  (824) 
nan

$$$$
CHEMBL3353361
     RDKit          3D

  0  0  0  0  0  0  0  0  0  0999 V3000
M  V30 BEGIN CTAB
M  V30 COUNTS 63 69 0 0 0
M  V30 BEGIN ATOM
M  V30 1 O 4.970496 5.598084 4.850194 0
M  V30 2 C 5.256704 4.754797 3.936167 0
M  V30 3 N 6.475860 4.052994 3.727424 0
M  V30 4 C 6.266102 3.284659 2.549972 0
M  V30 5 C 7.216860 2.461991 1.963777 0
M  V30 6 C 6.898275 1.786454 0.797949 0
M  V30 7 C 5.642091 1.953359 0.253782 0
M  V30 8 C 4.738048 2.785141 0.882823 0
M  V30 9 C 4.997538 3.481385 2.043602 0
M  V30 10 C 4.234708 4.394405 2.901218 0 CFG=2
M  V30 11 C 3.306267 5.373205 2.332269 0
M  V30 12 C 2.835797 4.224572 3.284827 0 CFG=1
M  V30 13 C 1.920109 3.234926 2.644638 0
M  V30 14 C 2.084509 1.882290 2.444881 0
M  V30 15 C 1.100995 1.158614 1.804729 0
M  V30 16 C -0.048261 1.757754 1.357261 0
M  V30 17 C -1.150374 1.251909 0.697425 0
M  V30 18 C -1.405591 -0.143228 0.289952 0
M  V30 19 C -2.476115 -0.519653 -0.362949 0
M  V30 20 C -2.741170 -1.896059 -0.770100 0
M  V30 21 C -1.918917 -2.960941 -0.501014 0
M  V30 22 C -2.157997 -4.264057 -0.883203 0
M  V30 23 C -3.321705 -4.539662 -1.600123 0
M  V30 24 C -3.519443 -5.962465 -1.978738 0
M  V30 25 N -4.260764 -6.742515 -1.044809 0
M  V30 26 C -5.622459 -6.304687 -0.854199 0
M  V30 27 C -6.304875 -6.576780 -2.169497 0
M  V30 28 C -5.546594 -7.801217 -2.663207 0
M  V30 29 C -4.463910 -8.052454 -1.635836 0
M  V30 30 C -4.173615 -3.495357 -1.890076 0
M  V30 31 C -3.884364 -2.204272 -1.481264 0
M  V30 32 N -1.964386 2.317668 0.510627 0
M  V30 33 N -1.412008 3.408382 1.016352 0
M  V30 34 C -0.213561 3.123251 1.559639 0
M  V30 35 C 0.764485 3.892366 2.206816 0
M  V30 36 H 7.296650 4.151323 4.364981 0
M  V30 37 H 8.208777 2.296660 2.344761 0
M  V30 38 H 7.605296 1.134360 0.303928 0
M  V30 39 H 5.419016 1.413622 -0.657937 0
M  V30 40 H 3.792651 2.847754 0.368073 0
M  V30 41 H 3.026174 5.231750 1.267104 0
M  V30 42 H 3.228329 6.399979 2.686201 0
M  V30 43 H 2.403995 4.667373 4.211081 0
M  V30 44 H 3.022340 1.517174 2.837089 0
M  V30 45 H 1.284784 0.095970 1.676460 0
M  V30 46 H -0.655511 -0.860966 0.559262 0
M  V30 47 H -3.198074 0.245028 -0.611477 0
M  V30 48 H -1.009425 -2.791481 0.050008 0
M  V30 49 H -1.455832 -5.050372 -0.630497 0
M  V30 50 H -4.016247 -6.040521 -2.991122 0
M  V30 51 H -2.545942 -6.472359 -2.133800 0
M  V30 52 H -6.081656 -7.014322 -0.122113 0
M  V30 53 H -5.751756 -5.312884 -0.443709 0
M  V30 54 H -7.371135 -6.895846 -1.991027 0
M  V30 55 H -6.228286 -5.780630 -2.910301 0
M  V30 56 H -6.230185 -8.692464 -2.733470 0
M  V30 57 H -5.153082 -7.679465 -3.688001 0
M  V30 58 H -4.825566 -8.804140 -0.904574 0
M  V30 59 H -3.541124 -8.389845 -2.158672 0
M  V30 60 H -5.068233 -3.738423 -2.445972 0
M  V30 61 H -4.609435 -1.439145 -1.751805 0
M  V30 62 H -1.836974 4.376195 1.004367 0
M  V30 63 H 0.512252 4.938249 2.300148 0
M  V30 END ATOM
M  V30 BEGIN BOND
M  V30 1 2 1 2
M  V30 2 1 2 3
M  V30 3 1 3 4
M  V30 4 2 4 5
M  V30 5 1 5 6
M  V30 6 2 6 7
M  V30 7 1 7 8
M  V30 8 2 8 9
M  V30 9 1 9 10
M  V30 10 1 10 11 CFG=3
M  V30 11 1 11 12
M  V30 12 1 12 13
M  V30 13 2 13 14
M  V30 14 1 14 15
M  V30 15 2 15 16
M  V30 16 1 16 17
M  V30 17 1 17 18
M  V30 18 2 18 19
M  V30 19 1 19 20
M  V30 20 2 20 21
M  V30 21 1 21 22
M  V30 22 2 22 23
M  V30 23 1 23 24
M  V30 24 1 24 25
M  V30 25 1 25 26
M  V30 26 1 26 27
M  V30 27 1 27 28
M  V30 28 1 28 29
M  V30 29 1 23 30
M  V30 30 2 30 31
M  V30 31 2 17 32
M  V30 32 1 32 33
M  V30 33 1 33 34
M  V30 34 2 34 35
M  V30 35 1 10 2
M  V30 36 1 35 13
M  V30 37 1 9 4
M  V30 38 1 12 10
M  V30 39 1 34 16
M  V30 40 1 31 20
M  V30 41 1 29 25
M  V30 42 1 3 36
M  V30 43 1 5 37
M  V30 44 1 6 38
M  V30 45 1 7 39
M  V30 46 1 8 40
M  V30 47 1 11 41
M  V30 48 1 11 42
M  V30 49 1 12 43 CFG=1
M  V30 50 1 14 44
M  V30 51 1 15 45
M  V30 52 1 18 46
M  V30 53 1 19 47
M  V30 54 1 21 48
M  V30 55 1 22 49
M  V30 56 1 24 50
M  V30 57 1 24 51
M  V30 58 1 26 52
M  V30 59 1 26 53
M  V30 60 1 27 54
M  V30 61 1 27 55
M  V30 62 1 28 56
M  V30 63 1 28 57
M  V30 64 1 29 58
M  V30 65 1 29 59
M  V30 66 1 30 60
M  V30 67 1 31 61
M  V30 68 1 33 62
M  V30 69 1 35 63
M  V30 END BOND
M  V30 END CTAB
M  END
>  <Dataset>  (825) 
ChEMBL_Kinases

>  <Ligand_Instance>  (825) 
nan

>  <PDB_ID>  (825) 
nan

>  <Standardized_SMILES>  (825) 
O=C1Nc2ccccc2[C@]12C[C@H]2c1ccc2c(/C=C/c3ccc(CN4CCCC4)cc3)n[nH]c2c1

>  <Name>  (825) 
nan

>  <Pocket>  (825) 
nan

>  <ATP_Site>  (825) 
nan

>  <Peripheral>  (825) 
nan

>  <Num_H_Atoms_ProtBoundConf>  (825) 
nan

>  <Num_Resolved_Atoms>  (825) 
nan

>  <Num_Not_Resolved_Atoms>  (825) 
nan

$$$$
CHEMBL3354998
     RDKit          3D

  0  0  0  0  0  0  0  0  0  0999 V3000
M  V30 BEGIN CTAB
M  V30 COUNTS 49 53 0 0 0
M  V30 BEGIN ATOM
M  V30 1 C 1.351653 -2.784784 2.635438 0
M  V30 2 C 2.173343 -2.174427 1.514170 0
M  V30 3 C 2.294395 -3.174563 0.375422 0
M  V30 4 O 1.528379 -1.020819 1.071664 0
M  V30 5 C 1.964693 0.268093 1.143278 0
M  V30 6 C 3.181726 0.642014 1.721371 0
M  V30 7 C 3.485292 1.981542 1.717655 0
M  V30 8 N 4.585780 2.570537 2.212011 0
M  V30 9 N 4.591360 3.908165 2.057361 0
M  V30 10 C 3.411631 4.197917 1.418315 0
M  V30 11 C 2.732571 3.019346 1.209719 0
M  V30 12 C 1.523467 2.588157 0.642411 0
M  V30 13 C 1.153550 1.244052 0.612621 0
M  V30 14 N -0.106876 1.097967 -0.030396 0
M  V30 15 C -0.719363 0.442347 -1.134136 0
M  V30 16 N -0.417465 0.899626 -2.382660 0
M  V30 17 C -0.955916 0.341998 -3.481784 0
M  V30 18 N -1.810229 -0.687876 -3.351308 0
M  V30 19 C -2.155226 -1.191558 -2.154203 0
M  V30 20 N -2.969350 -2.185929 -1.693029 0
M  V30 21 C -2.931102 -2.236264 -0.335463 0
M  V30 22 C -2.063427 -1.237019 0.037153 0
M  V30 23 C -1.595854 -0.607423 -1.065726 0
M  V30 24 C -1.898874 -1.137654 1.508581 0
M  V30 25 C -3.292800 -1.247523 2.106946 0
M  V30 26 C -3.944779 -2.552939 1.841962 0
M  V30 27 C -3.684080 -3.183197 0.522884 0
M  V30 28 H 2.032211 -3.211162 3.424725 0
M  V30 29 H 0.714057 -2.019691 3.138118 0
M  V30 30 H 0.695773 -3.586709 2.286490 0
M  V30 31 H 3.196567 -1.995752 1.929580 0
M  V30 32 H 1.282956 -3.620623 0.184892 0
M  V30 33 H 3.019566 -3.975773 0.591146 0
M  V30 34 H 2.616219 -2.634369 -0.547170 0
M  V30 35 H 3.834067 -0.094587 2.144195 0
M  V30 36 H 5.406122 2.094374 2.688649 0
M  V30 37 H 2.960566 5.118051 1.078062 0
M  V30 38 H 0.928015 3.421192 0.238101 0
M  V30 39 H -0.930316 1.598391 0.349130 0
M  V30 40 H -0.783151 0.628905 -4.509597 0
M  V30 41 H -3.497937 -2.759142 -2.412433 0
M  V30 42 H -1.500991 -0.162471 1.850397 0
M  V30 43 H -1.296540 -2.000536 1.830783 0
M  V30 44 H -3.188175 -1.071154 3.196390 0
M  V30 45 H -3.895583 -0.380015 1.718129 0
M  V30 46 H -3.738828 -3.282146 2.675428 0
M  V30 47 H -5.054904 -2.376621 1.930051 0
M  V30 48 H -4.630841 -3.509550 0.042967 0
M  V30 49 H -3.008450 -4.067850 0.697310 0
M  V30 END ATOM
M  V30 BEGIN BOND
M  V30 1 1 1 2
M  V30 2 1 2 3
M  V30 3 1 2 4
M  V30 4 1 4 5
M  V30 5 2 5 6
M  V30 6 1 6 7
M  V30 7 1 7 8
M  V30 8 1 8 9
M  V30 9 2 9 10
M  V30 10 1 10 11
M  V30 11 1 11 12
M  V30 12 2 12 13
M  V30 13 1 13 14
M  V30 14 1 14 15
M  V30 15 2 15 16
M  V30 16 1 16 17
M  V30 17 2 17 18
M  V30 18 1 18 19
M  V30 19 1 19 20
M  V30 20 1 20 21
M  V30 21 2 21 22
M  V30 22 1 22 23
M  V30 23 1 22 24
M  V30 24 1 24 25
M  V30 25 1 25 26
M  V30 26 1 26 27
M  V30 27 1 13 5
M  V30 28 1 23 15
M  V30 29 2 11 7
M  V30 30 2 23 19
M  V30 31 1 27 21
M  V30 32 1 1 28
M  V30 33 1 1 29
M  V30 34 1 1 30
M  V30 35 1 2 31
M  V30 36 1 3 32
M  V30 37 1 3 33
M  V30 38 1 3 34
M  V30 39 1 6 35
M  V30 40 1 8 36
M  V30 41 1 10 37
M  V30 42 1 12 38
M  V30 43 1 14 39
M  V30 44 1 17 40
M  V30 45 1 20 41
M  V30 46 1 24 42
M  V30 47 1 24 43
M  V30 48 1 25 44
M  V30 49 1 25 45
M  V30 50 1 26 46
M  V30 51 1 26 47
M  V30 52 1 27 48
M  V30 53 1 27 49
M  V30 END BOND
M  V30 END CTAB
M  END
>  <Dataset>  (826) 
ChEMBL_Kinases

>  <Ligand_Instance>  (826) 
nan

>  <PDB_ID>  (826) 
nan

>  <Standardized_SMILES>  (826) 
CC(C)Oc1cc2[nH]ncc2cc1Nc1ncnc2[nH]c3c(c12)CCCC3

>  <Name>  (826) 
nan

>  <Pocket>  (826) 
nan

>  <ATP_Site>  (826) 
nan

>  <Peripheral>  (826) 
nan

>  <Num_H_Atoms_ProtBoundConf>  (826) 
nan

>  <Num_Resolved_Atoms>  (826) 
nan

>  <Num_Not_Resolved_Atoms>  (826) 
nan

$$$$
CHEMBL3354191
     RDKit          3D

  0  0  0  0  0  0  0  0  0  0999 V3000
M  V30 BEGIN CTAB
M  V30 COUNTS 54 57 0 0 0
M  V30 BEGIN ATOM
M  V30 1 C -0.042900 -5.135573 2.692396 0
M  V30 2 O 1.185845 -4.653854 2.322905 0
M  V30 3 C 1.071892 -3.469743 1.554402 0
M  V30 4 C 1.762270 -2.378847 2.286617 0
M  V30 5 C 3.191961 -2.297561 1.796630 0
M  V30 6 N 3.069184 -1.792140 0.430376 0
M  V30 7 C 3.466380 -0.469003 0.076847 0
M  V30 8 N 4.650127 -0.002626 -0.325094 0
M  V30 9 C 4.783881 1.320583 -0.599710 0
M  V30 10 C 3.677175 2.131518 -0.448009 0
M  V30 11 C 2.436957 1.676391 -0.032500 0
M  V30 12 N 1.325995 2.564230 0.126921 0
M  V30 13 C 0.094233 1.952466 0.532090 0
M  V30 14 C -1.015796 1.744767 -0.258606 0
M  V30 15 C -2.102249 1.115167 0.323438 0
M  V30 16 C -1.961117 0.756911 1.642272 0
M  V30 17 C -0.860383 0.959281 2.438040 0
M  V30 18 N 0.176945 1.585003 1.808428 0
M  V30 19 C -3.178952 0.173330 1.917154 0
M  V30 20 N -3.695807 -0.404838 3.090677 0
M  V30 21 N -3.953111 0.208046 0.806014 0
M  V30 22 N -3.295943 0.786463 -0.175823 0
M  V30 23 C -3.801399 1.002494 -1.518850 0
M  V30 24 C -5.190463 0.414620 -1.673822 0
M  V30 25 C -2.893846 0.448263 -2.586985 0
M  V30 26 N 2.396574 0.373178 0.212203 0
M  V30 27 C 2.509230 -2.797859 -0.435079 0
M  V30 28 C 1.633881 -3.785902 0.221588 0
M  V30 29 H -0.662779 -4.466081 3.307978 0
M  V30 30 H 0.157191 -6.067953 3.298354 0
M  V30 31 H -0.650866 -5.491413 1.831858 0
M  V30 32 H -0.046984 -3.302485 1.516123 0
M  V30 33 H 1.243820 -1.411202 1.998542 0
M  V30 34 H 1.698326 -2.449715 3.389148 0
M  V30 35 H 3.655522 -3.297639 1.753202 0
M  V30 36 H 3.789199 -1.594861 2.423851 0
M  V30 37 H 5.761334 1.649920 -0.922556 0
M  V30 38 H 3.811198 3.202099 -0.677187 0
M  V30 39 H 1.472701 3.571241 -0.051255 0
M  V30 40 H -0.988204 2.069889 -1.269221 0
M  V30 41 H -0.878512 0.625616 3.468538 0
M  V30 42 H -4.159217 -0.421970 4.002115 0
M  V30 43 H -3.576878 -1.461784 3.131019 0
M  V30 44 H -3.918963 2.102281 -1.684895 0
M  V30 45 H -5.461976 0.510073 -2.725425 0
M  V30 46 H -5.875961 0.939292 -1.005675 0
M  V30 47 H -5.143111 -0.673525 -1.428776 0
M  V30 48 H -2.110368 -0.204302 -2.184303 0
M  V30 49 H -2.452250 1.256386 -3.222183 0
M  V30 50 H -3.485860 -0.184262 -3.310108 0
M  V30 51 H 3.405745 -3.336953 -0.870366 0
M  V30 52 H 1.994439 -2.351951 -1.320288 0
M  V30 53 H 2.135656 -4.798546 0.194312 0
M  V30 54 H 0.737191 -3.960376 -0.458623 0
M  V30 END ATOM
M  V30 BEGIN BOND
M  V30 1 1 1 2
M  V30 2 1 2 3
M  V30 3 1 3 4
M  V30 4 1 4 5
M  V30 5 1 5 6
M  V30 6 1 6 7
M  V30 7 2 7 8
M  V30 8 1 8 9
M  V30 9 2 9 10
M  V30 10 1 10 11
M  V30 11 1 11 12
M  V30 12 1 12 13
M  V30 13 2 13 14
M  V30 14 1 14 15
M  V30 15 2 15 16
M  V30 16 1 16 17
M  V30 17 2 17 18
M  V30 18 1 16 19
M  V30 19 1 19 20
M  V30 20 2 19 21
M  V30 21 1 21 22
M  V30 22 1 22 23
M  V30 23 1 23 24
M  V30 24 1 23 25
M  V30 25 2 11 26
M  V30 26 1 6 27
M  V30 27 1 27 28
M  V30 28 1 28 3
M  V30 29 1 26 7
M  V30 30 1 18 13
M  V30 31 1 22 15
M  V30 32 1 1 29
M  V30 33 1 1 30
M  V30 34 1 1 31
M  V30 35 1 3 32
M  V30 36 1 4 33
M  V30 37 1 4 34
M  V30 38 1 5 35
M  V30 39 1 5 36
M  V30 40 1 9 37
M  V30 41 1 10 38
M  V30 42 1 12 39
M  V30 43 1 14 40
M  V30 44 1 17 41
M  V30 45 1 20 42
M  V30 46 1 20 43
M  V30 47 1 23 44
M  V30 48 1 24 45
M  V30 49 1 24 46
M  V30 50 1 24 47
M  V30 51 1 25 48
M  V30 52 1 25 49
M  V30 53 1 25 50
M  V30 54 1 27 51
M  V30 55 1 27 52
M  V30 56 1 28 53
M  V30 57 1 28 54
M  V30 END BOND
M  V30 END CTAB
M  END
>  <Dataset>  (827) 
ChEMBL_Kinases

>  <Ligand_Instance>  (827) 
nan

>  <PDB_ID>  (827) 
nan

>  <Standardized_SMILES>  (827) 
COC1CCN(c2nccc(Nc3cc4c(cn3)c(N)nn4C(C)C)n2)CC1

>  <Name>  (827) 
nan

>  <Pocket>  (827) 
nan

>  <ATP_Site>  (827) 
nan

>  <Peripheral>  (827) 
nan

>  <Num_H_Atoms_ProtBoundConf>  (827) 
nan

>  <Num_Resolved_Atoms>  (827) 
nan

>  <Num_Not_Resolved_Atoms>  (827) 
nan

$$$$
CHEMBL3354192
     RDKit          3D

  0  0  0  0  0  0  0  0  0  0999 V3000
M  V30 BEGIN CTAB
M  V30 COUNTS 52 55 0 0 0
M  V30 BEGIN ATOM
M  V30 1 C 1.384820 -4.771439 3.485074 0
M  V30 2 O 1.022975 -5.062113 2.159571 0
M  V30 3 C 1.311531 -4.035761 1.290968 0
M  V30 4 C 2.207002 -4.436535 0.148202 0
M  V30 5 C 2.788197 -3.206219 -0.465020 0
M  V30 6 N 1.888717 -2.083083 -0.278164 0
M  V30 7 C 2.480411 -0.775973 -0.413380 0
M  V30 8 N 3.795261 -0.693267 -0.687338 0
M  V30 9 C 4.400928 0.519603 -0.824958 0
M  V30 10 C 3.587312 1.601608 -0.666469 0
M  V30 11 C 2.233591 1.565588 -0.384906 0
M  V30 12 N 1.515849 2.781632 -0.247494 0
M  V30 13 C 0.149945 2.968894 0.031739 0
M  V30 14 C -0.757265 1.956413 0.224374 0
M  V30 15 C -2.099437 2.108967 0.499198 0
M  V30 16 C -3.157348 1.251366 0.721835 0
M  V30 17 C -3.079656 -0.240279 0.715135 0
M  V30 18 C -2.770578 -0.789919 2.078852 0
M  V30 19 C -4.305255 -0.877764 0.090264 0
M  V30 20 N -4.238623 2.016917 0.939260 0
M  V30 21 N -3.911597 3.315861 0.864061 0
M  V30 22 C -2.592674 3.393525 0.592612 0
M  V30 23 C -1.672428 4.401265 0.397325 0
M  V30 24 N -0.377178 4.177464 0.132583 0
M  V30 25 N 1.760665 0.337864 -0.274702 0
M  V30 26 C 0.466711 -2.141697 0.028491 0
M  V30 27 C 0.055068 -3.461679 0.643997 0
M  V30 28 H 2.475732 -4.585292 3.510068 0
M  V30 29 H 1.128375 -5.674851 4.087286 0
M  V30 30 H 0.856212 -3.876182 3.869709 0
M  V30 31 H 1.776986 -3.184747 1.839630 0
M  V30 32 H 2.958962 -5.193387 0.439622 0
M  V30 33 H 1.561903 -4.936812 -0.613602 0
M  V30 34 H 3.796546 -2.987737 -0.028019 0
M  V30 35 H 2.943703 -3.352053 -1.561221 0
M  V30 36 H 5.439857 0.585464 -1.041432 0
M  V30 37 H 4.104334 2.562266 -0.783202 0
M  V30 38 H 2.081927 3.675311 -0.371326 0
M  V30 39 H -0.450261 0.921900 0.167440 0
M  V30 40 H -2.210887 -0.544609 0.061320 0
M  V30 41 H -2.775886 0.001023 2.858294 0
M  V30 42 H -1.788487 -1.281069 2.152167 0
M  V30 43 H -3.537315 -1.557665 2.320667 0
M  V30 44 H -5.167112 -0.525324 0.675866 0
M  V30 45 H -4.323956 -0.517808 -0.961314 0
M  V30 46 H -4.137845 -1.968410 0.166739 0
M  V30 47 H -4.540554 4.139531 0.988204 0
M  V30 48 H -2.025562 5.438108 0.463478 0
M  V30 49 H -0.070360 -1.979758 -0.938564 0
M  V30 50 H 0.170894 -1.325385 0.723167 0
M  V30 51 H -0.202581 -4.173682 -0.172598 0
M  V30 52 H -0.787227 -3.376612 1.330203 0
M  V30 END ATOM
M  V30 BEGIN BOND
M  V30 1 1 1 2
M  V30 2 1 2 3
M  V30 3 1 3 4
M  V30 4 1 4 5
M  V30 5 1 5 6
M  V30 6 1 6 7
M  V30 7 2 7 8
M  V30 8 1 8 9
M  V30 9 2 9 10
M  V30 10 1 10 11
M  V30 11 1 11 12
M  V30 12 1 12 13
M  V30 13 2 13 14
M  V30 14 1 14 15
M  V30 15 1 15 16
M  V30 16 1 16 17
M  V30 17 1 17 18
M  V30 18 1 17 19
M  V30 19 2 16 20
M  V30 20 1 20 21
M  V30 21 1 21 22
M  V30 22 1 22 23
M  V30 23 2 23 24
M  V30 24 2 11 25
M  V30 25 1 6 26
M  V30 26 1 26 27
M  V30 27 1 27 3
M  V30 28 1 25 7
M  V30 29 1 24 13
M  V30 30 2 22 15
M  V30 31 1 1 28
M  V30 32 1 1 29
M  V30 33 1 1 30
M  V30 34 1 3 31
M  V30 35 1 4 32
M  V30 36 1 4 33
M  V30 37 1 5 34
M  V30 38 1 5 35
M  V30 39 1 9 36
M  V30 40 1 10 37
M  V30 41 1 12 38
M  V30 42 1 14 39
M  V30 43 1 17 40
M  V30 44 1 18 41
M  V30 45 1 18 42
M  V30 46 1 18 43
M  V30 47 1 19 44
M  V30 48 1 19 45
M  V30 49 1 19 46
M  V30 50 1 21 47
M  V30 51 1 23 48
M  V30 52 1 26 49
M  V30 53 1 26 50
M  V30 54 1 27 51
M  V30 55 1 27 52
M  V30 END BOND
M  V30 END CTAB
M  END
>  <Dataset>  (828) 
ChEMBL_Kinases

>  <Ligand_Instance>  (828) 
nan

>  <PDB_ID>  (828) 
nan

>  <Standardized_SMILES>  (828) 
COC1CCN(c2nccc(Nc3cc4c(C(C)C)n[nH]c4cn3)n2)CC1

>  <Name>  (828) 
nan

>  <Pocket>  (828) 
nan

>  <ATP_Site>  (828) 
nan

>  <Peripheral>  (828) 
nan

>  <Num_H_Atoms_ProtBoundConf>  (828) 
nan

>  <Num_Resolved_Atoms>  (828) 
nan

>  <Num_Not_Resolved_Atoms>  (828) 
nan

$$$$
CHEMBL3354567
     RDKit          3D

  0  0  0  0  0  0  0  0  0  0999 V3000
M  V30 BEGIN CTAB
M  V30 COUNTS 65 69 0 0 0
M  V30 BEGIN ATOM
M  V30 1 C 1.362737 -2.618732 5.154456 0
M  V30 2 O 2.543726 -2.356004 4.467207 0
M  V30 3 C 2.642564 -1.424917 3.476538 0
M  V30 4 C 1.585921 -0.637593 3.036346 0
M  V30 5 C 1.602119 0.318552 2.045368 0
M  V30 6 C 2.826918 0.530224 1.401509 0
M  V30 7 C 2.815532 1.531951 0.357912 0
M  V30 8 O 3.956571 2.075581 0.222375 0
M  V30 9 C 1.679577 1.894302 -0.440735 0
M  V30 10 C 1.501903 3.040822 -1.165429 0
M  V30 11 C 0.399708 3.286600 -1.950457 0
M  V30 12 N 0.212887 4.461050 -2.713699 0
M  V30 13 C 1.015912 5.647785 -2.864944 0
M  V30 14 C 1.106206 6.488946 -1.614903 0
M  V30 15 C -0.277396 6.970264 -1.166427 0
M  V30 16 F -0.037602 7.718486 -0.024139 0
M  V30 17 F -0.903384 7.729732 -2.122748 0
M  V30 18 F -1.026959 5.859675 -0.799762 0
M  V30 19 C -0.559657 2.266859 -1.968334 0
M  V30 20 N -1.743312 2.208131 -2.641305 0
M  V30 21 C -2.301324 1.006929 -2.328946 0
M  V30 22 C -1.443551 0.356866 -1.468194 0
M  V30 23 C -1.630032 -0.969481 -0.887649 0
M  V30 24 C -2.078598 -1.886037 -1.845707 0
M  V30 25 C -2.287448 -3.199994 -1.465546 0
M  V30 26 C -2.068549 -3.636510 -0.174079 0
M  V30 27 C -2.241708 -4.982950 0.325347 0
M  V30 28 O -1.057021 -5.384289 0.407691 0
M  V30 29 N -3.374649 -5.783281 0.671872 0
M  V30 30 C -3.370526 -7.151286 1.143630 0
M  V30 31 C -2.161836 -8.004413 0.858598 0
M  V30 32 C -2.583198 -7.628569 2.271128 0
M  V30 33 C -1.618802 -2.697843 0.770228 0
M  V30 34 C -1.362678 -3.106119 2.184807 0
M  V30 35 C -1.406113 -1.379942 0.404766 0
M  V30 36 N -0.361856 1.165997 -1.256176 0
M  V30 37 N 0.711379 0.963275 -0.509939 0
M  V30 38 C 3.920924 -0.214709 1.787353 0
M  V30 39 C 3.835732 -1.165464 2.794084 0
M  V30 40 F 4.928657 -1.885523 3.157800 0
M  V30 41 H 1.206173 -1.903089 5.979187 0
M  V30 42 H 0.472007 -2.573649 4.495302 0
M  V30 43 H 1.425677 -3.670677 5.574531 0
M  V30 44 H 0.639578 -0.817053 3.559373 0
M  V30 45 H 0.687028 0.826726 1.845511 0
M  V30 46 H 2.286535 3.763534 -1.096009 0
M  V30 47 H -0.681085 4.502658 -3.292241 0
M  V30 48 H 0.638648 6.319011 -3.656312 0
M  V30 49 H 2.070393 5.402783 -3.151009 0
M  V30 50 H 1.530321 5.976858 -0.747099 0
M  V30 51 H 1.699387 7.408132 -1.815286 0
M  V30 52 H -3.247838 0.604975 -2.675873 0
M  V30 53 H -2.286012 -1.661773 -2.897575 0
M  V30 54 H -2.633164 -3.961211 -2.141865 0
M  V30 55 H -4.229213 -5.208471 0.523891 0
M  V30 56 H -4.292015 -7.712699 0.809582 0
M  V30 57 H -1.228367 -7.595152 0.453980 0
M  V30 58 H -2.284732 -9.081812 0.611676 0
M  V30 59 H -1.914396 -6.953921 2.857766 0
M  V30 60 H -3.007574 -8.450794 2.918146 0
M  V30 61 H -0.412868 -3.679699 2.289511 0
M  V30 62 H -2.250127 -3.732087 2.491434 0
M  V30 63 H -1.401575 -2.196925 2.812051 0
M  V30 64 H -1.064084 -0.607233 1.066317 0
M  V30 65 H 4.843467 -0.014609 1.259906 0
M  V30 END ATOM
M  V30 BEGIN BOND
M  V30 1 1 1 2
M  V30 2 1 2 3
M  V30 3 2 3 4
M  V30 4 1 4 5
M  V30 5 2 5 6
M  V30 6 1 6 7
M  V30 7 2 7 8
M  V30 8 1 7 9
M  V30 9 1 9 10
M  V30 10 2 10 11
M  V30 11 1 11 12
M  V30 12 1 12 13
M  V30 13 1 13 14
M  V30 14 1 14 15
M  V30 15 1 15 16
M  V30 16 1 15 17
M  V30 17 1 15 18
M  V30 18 1 11 19
M  V30 19 2 19 20
M  V30 20 1 20 21
M  V30 21 2 21 22
M  V30 22 1 22 23
M  V30 23 2 23 24
M  V30 24 1 24 25
M  V30 25 2 25 26
M  V30 26 1 26 27
M  V30 27 2 27 28
M  V30 28 1 27 29
M  V30 29 1 29 30
M  V30 30 1 30 31
M  V30 31 1 31 32
M  V30 32 1 26 33
M  V30 33 1 33 34
M  V30 34 2 33 35
M  V30 35 1 22 36
M  V30 36 1 36 37
M  V30 37 1 6 38
M  V30 38 2 38 39
M  V30 39 1 39 40
M  V30 40 1 39 3
M  V30 41 2 37 9
M  V30 42 1 36 19
M  V30 43 1 35 23
M  V30 44 1 32 30
M  V30 45 1 1 41
M  V30 46 1 1 42
M  V30 47 1 1 43
M  V30 48 1 4 44
M  V30 49 1 5 45
M  V30 50 1 10 46
M  V30 51 1 12 47
M  V30 52 1 13 48
M  V30 53 1 13 49
M  V30 54 1 14 50
M  V30 55 1 14 51
M  V30 56 1 21 52
M  V30 57 1 24 53
M  V30 58 1 25 54
M  V30 59 1 29 55
M  V30 60 1 30 56
M  V30 61 1 31 57
M  V30 62 1 31 58
M  V30 63 1 32 59
M  V30 64 1 32 60
M  V30 65 1 34 61
M  V30 66 1 34 62
M  V30 67 1 34 63
M  V30 68 1 35 64
M  V30 69 1 38 65
M  V30 END BOND
M  V30 END CTAB
M  END
>  <Dataset>  (829) 
ChEMBL_Kinases

>  <Ligand_Instance>  (829) 
nan

>  <PDB_ID>  (829) 
nan

>  <Standardized_SMILES>  (829) 
COc1ccc(C(=O)c2cc(NCCC(F)(F)F)c3ncc(-c4ccc(C(=O)NC5CC5)c(C)c4)n3n2)cc1F

>  <Name>  (829) 
nan

>  <Pocket>  (829) 
nan

>  <ATP_Site>  (829) 
nan

>  <Peripheral>  (829) 
nan

>  <Num_H_Atoms_ProtBoundConf>  (829) 
nan

>  <Num_Resolved_Atoms>  (829) 
nan

>  <Num_Not_Resolved_Atoms>  (829) 
nan

$$$$
CHEMBL3354568
     RDKit          3D

  0  0  0  0  0  0  0  0  0  0999 V3000
M  V30 BEGIN CTAB
M  V30 COUNTS 67 71 0 0 0
M  V30 BEGIN ATOM
M  V30 1 C 4.373383 -0.490290 3.800411 0
M  V30 2 C 3.010351 -0.137647 3.380606 0
M  V30 3 C 2.596961 -0.358585 2.079734 0
M  V30 4 C 1.310297 -0.060500 1.616568 0
M  V30 5 C 0.884727 -0.193317 0.242851 0
M  V30 6 C 1.791063 0.458445 -0.606805 0
M  V30 7 N 1.284450 0.284339 -1.835386 0
M  V30 8 C 0.141204 -0.428392 -1.758426 0
M  V30 9 C -0.725782 -0.860984 -2.717526 0
M  V30 10 N -0.406179 -0.460971 -4.044779 0
M  V30 11 C -0.910997 -0.608054 -5.410131 0
M  V30 12 C -0.317252 0.402110 -6.372583 0
M  V30 13 C -0.650462 1.830572 -5.954826 0
M  V30 14 F -0.073114 2.665586 -6.900591 0
M  V30 15 F -2.007645 2.057431 -5.998462 0
M  V30 16 F -0.182409 2.104468 -4.705104 0
M  V30 17 C -1.865617 -1.610227 -2.402859 0
M  V30 18 C -2.002504 -1.850321 -1.024844 0
M  V30 19 C -3.219128 -2.606844 -0.602199 0
M  V30 20 C -4.367977 -2.385833 -1.569918 0
M  V30 21 O -3.658291 -2.137699 0.627266 0
M  V30 22 C -2.862839 -4.033402 -0.475639 0
M  V30 23 C -3.544626 -4.965592 -1.286996 0
M  V30 24 C -3.278633 -6.333336 -1.230589 0
M  V30 25 C -2.303511 -6.819891 -0.345247 0
M  V30 26 C -1.649225 -5.925428 0.433804 0
M  V30 27 F -0.725576 -6.405321 1.284562 0
M  V30 28 C -1.924453 -4.578752 0.366788 0
M  V30 29 O -1.224708 -3.706647 1.190123 0
M  V30 30 N -1.120343 -1.405014 -0.090103 0
M  V30 31 N -0.078879 -0.710853 -0.467668 0
M  V30 32 C 0.363919 0.487774 2.489201 0
M  V30 33 C 0.769596 0.711726 3.788080 0
M  V30 34 C 2.070974 0.402487 4.217657 0
M  V30 35 C 2.299826 0.763921 5.620897 0
M  V30 36 O 2.490106 0.096372 6.704390 0
M  V30 37 N 2.306297 2.199410 5.798496 0
M  V30 38 C 2.470934 2.990180 7.000523 0
M  V30 39 C 3.572065 3.971354 7.169641 0
M  V30 40 C 2.164455 4.455367 7.005993 0
M  V30 41 H 4.725503 -1.333287 3.127993 0
M  V30 42 H 4.315999 -0.961114 4.820578 0
M  V30 43 H 5.104748 0.330630 3.769192 0
M  V30 44 H 3.276602 -0.789204 1.340669 0
M  V30 45 H 2.728294 1.034412 -0.597800 0
M  V30 46 H 0.455120 0.082528 -4.242037 0
M  V30 47 H -0.779081 -1.653097 -5.772665 0
M  V30 48 H -2.004047 -0.411435 -5.375992 0
M  V30 49 H -0.818107 0.241317 -7.358784 0
M  V30 50 H 0.781960 0.320614 -6.479882 0
M  V30 51 H -2.520358 -1.918450 -3.188068 0
M  V30 52 H -5.259878 -2.867084 -1.116250 0
M  V30 53 H -4.590013 -1.320891 -1.675986 0
M  V30 54 H -4.200779 -2.822407 -2.569062 0
M  V30 55 H -3.892377 -1.169779 0.594269 0
M  V30 56 H -4.336011 -4.723041 -2.018460 0
M  V30 57 H -3.823630 -7.036136 -1.882045 0
M  V30 58 H -2.176945 -7.897038 -0.387240 0
M  V30 59 H -1.347452 -3.646282 2.183115 0
M  V30 60 H -0.655051 0.729079 2.185194 0
M  V30 61 H 0.004161 1.133066 4.445021 0
M  V30 62 H 2.167002 2.849335 4.958309 0
M  V30 63 H 2.265768 2.418089 7.928145 0
M  V30 64 H 3.994584 4.083925 8.185997 0
M  V30 65 H 4.305089 4.194938 6.370656 0
M  V30 66 H 1.843596 4.852841 6.004229 0
M  V30 67 H 1.645604 4.970610 7.838772 0
M  V30 END ATOM
M  V30 BEGIN BOND
M  V30 1 1 1 2
M  V30 2 2 2 3
M  V30 3 1 3 4
M  V30 4 1 4 5
M  V30 5 2 5 6
M  V30 6 1 6 7
M  V30 7 2 7 8
M  V30 8 1 8 9
M  V30 9 1 9 10
M  V30 10 1 10 11
M  V30 11 1 11 12
M  V30 12 1 12 13
M  V30 13 1 13 14
M  V30 14 1 13 15
M  V30 15 1 13 16
M  V30 16 2 9 17
M  V30 17 1 17 18
M  V30 18 1 18 19
M  V30 19 1 19 20
M  V30 20 1 19 21
M  V30 21 1 19 22
M  V30 22 2 22 23
M  V30 23 1 23 24
M  V30 24 2 24 25
M  V30 25 1 25 26
M  V30 26 1 26 27
M  V30 27 2 26 28
M  V30 28 1 28 29
M  V30 29 2 18 30
M  V30 30 1 30 31
M  V30 31 2 4 32
M  V30 32 1 32 33
M  V30 33 2 33 34
M  V30 34 1 34 35
M  V30 35 2 35 36
M  V30 36 1 35 37
M  V30 37 1 37 38
M  V30 38 1 38 39
M  V30 39 1 39 40
M  V30 40 1 34 2
M  V30 41 1 40 38
M  V30 42 1 31 5
M  V30 43 1 31 8
M  V30 44 1 28 22
M  V30 45 1 1 41
M  V30 46 1 1 42
M  V30 47 1 1 43
M  V30 48 1 3 44
M  V30 49 1 6 45
M  V30 50 1 10 46
M  V30 51 1 11 47
M  V30 52 1 11 48
M  V30 53 1 12 49
M  V30 54 1 12 50
M  V30 55 1 17 51
M  V30 56 1 20 52
M  V30 57 1 20 53
M  V30 58 1 20 54
M  V30 59 1 21 55
M  V30 60 1 23 56
M  V30 61 1 24 57
M  V30 62 1 25 58
M  V30 63 1 29 59
M  V30 64 1 32 60
M  V30 65 1 33 61
M  V30 66 1 37 62
M  V30 67 1 38 63
M  V30 68 1 39 64
M  V30 69 1 39 65
M  V30 70 1 40 66
M  V30 71 1 40 67
M  V30 END BOND
M  V30 END CTAB
M  END
>  <Dataset>  (830) 
ChEMBL_Kinases

>  <Ligand_Instance>  (830) 
nan

>  <PDB_ID>  (830) 
nan

>  <Standardized_SMILES>  (830) 
Cc1cc(-c2cnc3c(NCCC(F)(F)F)cc(C(C)(O)c4cccc(F)c4O)nn23)ccc1C(=O)NC1CC1

>  <Name>  (830) 
nan

>  <Pocket>  (830) 
nan

>  <ATP_Site>  (830) 
nan

>  <Peripheral>  (830) 
nan

>  <Num_H_Atoms_ProtBoundConf>  (830) 
nan

>  <Num_Resolved_Atoms>  (830) 
nan

>  <Num_Not_Resolved_Atoms>  (830) 
nan

$$$$
CHEMBL3354569
     RDKit          3D

  0  0  0  0  0  0  0  0  0  0999 V3000
M  V30 BEGIN CTAB
M  V30 COUNTS 62 66 0 0 0
M  V30 BEGIN ATOM
M  V30 1 C 2.119825 -4.053053 1.208527 0
M  V30 2 C 2.212481 -2.584640 1.316803 0
M  V30 3 C 1.461074 -1.778565 0.486728 0
M  V30 4 C 1.543773 -0.400635 0.589204 0
M  V30 5 C 0.816954 0.572888 -0.217292 0
M  V30 6 C 1.341894 1.706927 -0.783591 0
M  V30 7 N 0.401436 2.380722 -1.465739 0
M  V30 8 C -0.738862 1.660832 -1.329477 0
M  V30 9 C -1.990863 1.942762 -1.856994 0
M  V30 10 N -2.273267 3.098635 -2.659305 0
M  V30 11 C -3.615794 3.256181 -3.134108 0
M  V30 12 C -3.829401 4.484764 -3.951976 0
M  V30 13 C -3.554395 5.777593 -3.249886 0
M  V30 14 F -3.806810 6.814679 -4.161799 0
M  V30 15 F -4.458830 5.928384 -2.204442 0
M  V30 16 F -2.259959 5.815145 -2.821009 0
M  V30 17 C -2.965476 1.016425 -1.549957 0
M  V30 18 C -2.693182 -0.093602 -0.777892 0
M  V30 19 C -3.666186 -1.139926 -0.409990 0
M  V30 20 F -4.779783 -1.000915 -1.229616 0
M  V30 21 F -4.079243 -0.900845 0.884532 0
M  V30 22 C -3.078683 -2.509439 -0.540854 0
M  V30 23 C -2.644749 -3.095037 0.637192 0
M  V30 24 C -2.072417 -4.353569 0.685966 0
M  V30 25 C -1.946672 -5.026438 -0.529980 0
M  V30 26 C -2.383799 -4.435448 -1.713633 0
M  V30 27 F -2.233397 -5.142544 -2.876492 0
M  V30 28 C -2.951679 -3.179162 -1.737764 0
M  V30 29 N -1.458867 -0.296000 -0.304993 0
M  V30 30 N -0.484294 0.571743 -0.575960 0
M  V30 31 C 2.394467 0.176477 1.540536 0
M  V30 32 C 3.144046 -0.634780 2.368393 0
M  V30 33 C 3.061583 -2.007885 2.265972 0
M  V30 34 C 3.876995 -2.819362 3.164933 0
M  V30 35 O 4.750328 -3.649848 2.757720 0
M  V30 36 N 3.675850 -2.664983 4.569064 0
M  V30 37 C 4.406065 -3.398527 5.588061 0
M  V30 38 C 3.819319 -3.503586 6.934241 0
M  V30 39 C 4.900970 -2.523627 6.753401 0
M  V30 40 H 2.661750 -4.546690 2.032938 0
M  V30 41 H 1.085305 -4.448209 1.173386 0
M  V30 42 H 2.609793 -4.353205 0.259930 0
M  V30 43 H 0.785001 -2.157716 -0.269036 0
M  V30 44 H 2.374022 2.022762 -0.696601 0
M  V30 45 H -1.438400 3.706782 -2.808958 0
M  V30 46 H -3.874234 2.369708 -3.780696 0
M  V30 47 H -4.358970 3.250107 -2.289711 0
M  V30 48 H -3.203029 4.432647 -4.876667 0
M  V30 49 H -4.923750 4.508640 -4.242591 0
M  V30 50 H -3.997211 1.138653 -1.915586 0
M  V30 51 H -2.739687 -2.578783 1.581405 0
M  V30 52 H -1.751364 -4.764065 1.633495 0
M  V30 53 H -1.497593 -6.007434 -0.468800 0
M  V30 54 H -3.296292 -2.703789 -2.643201 0
M  V30 55 H 2.495573 1.241171 1.662212 0
M  V30 56 H 3.804493 -0.156761 3.107044 0
M  V30 57 H 2.949296 -1.974570 4.919377 0
M  V30 58 H 5.171103 -4.128746 5.212980 0
M  V30 59 H 4.031570 -4.415192 7.510357 0
M  V30 60 H 2.780451 -3.113458 7.052170 0
M  V30 61 H 4.634934 -1.442767 6.745532 0
M  V30 62 H 5.935606 -2.713065 7.116206 0
M  V30 END ATOM
M  V30 BEGIN BOND
M  V30 1 1 1 2
M  V30 2 2 2 3
M  V30 3 1 3 4
M  V30 4 1 4 5
M  V30 5 2 5 6
M  V30 6 1 6 7
M  V30 7 2 7 8
M  V30 8 1 8 9
M  V30 9 1 9 10
M  V30 10 1 10 11
M  V30 11 1 11 12
M  V30 12 1 12 13
M  V30 13 1 13 14
M  V30 14 1 13 15
M  V30 15 1 13 16
M  V30 16 2 9 17
M  V30 17 1 17 18
M  V30 18 1 18 19
M  V30 19 1 19 20
M  V30 20 1 19 21
M  V30 21 1 19 22
M  V30 22 2 22 23
M  V30 23 1 23 24
M  V30 24 2 24 25
M  V30 25 1 25 26
M  V30 26 1 26 27
M  V30 27 2 26 28
M  V30 28 2 18 29
M  V30 29 1 29 30
M  V30 30 2 4 31
M  V30 31 1 31 32
M  V30 32 2 32 33
M  V30 33 1 33 34
M  V30 34 2 34 35
M  V30 35 1 34 36
M  V30 36 1 36 37
M  V30 37 1 37 38
M  V30 38 1 38 39
M  V30 39 1 33 2
M  V30 40 1 39 37
M  V30 41 1 30 5
M  V30 42 1 30 8
M  V30 43 1 28 22
M  V30 44 1 1 40
M  V30 45 1 1 41
M  V30 46 1 1 42
M  V30 47 1 3 43
M  V30 48 1 6 44
M  V30 49 1 10 45
M  V30 50 1 11 46
M  V30 51 1 11 47
M  V30 52 1 12 48
M  V30 53 1 12 49
M  V30 54 1 17 50
M  V30 55 1 23 51
M  V30 56 1 24 52
M  V30 57 1 25 53
M  V30 58 1 28 54
M  V30 59 1 31 55
M  V30 60 1 32 56
M  V30 61 1 36 57
M  V30 62 1 37 58
M  V30 63 1 38 59
M  V30 64 1 38 60
M  V30 65 1 39 61
M  V30 66 1 39 62
M  V30 END BOND
M  V30 END CTAB
M  END
>  <Dataset>  (831) 
ChEMBL_Kinases

>  <Ligand_Instance>  (831) 
nan

>  <PDB_ID>  (831) 
nan

>  <Standardized_SMILES>  (831) 
Cc1cc(-c2cnc3c(NCCC(F)(F)F)cc(C(F)(F)c4cccc(F)c4)nn23)ccc1C(=O)NC1CC1

>  <Name>  (831) 
nan

>  <Pocket>  (831) 
nan

>  <ATP_Site>  (831) 
nan

>  <Peripheral>  (831) 
nan

>  <Num_H_Atoms_ProtBoundConf>  (831) 
nan

>  <Num_Resolved_Atoms>  (831) 
nan

>  <Num_Not_Resolved_Atoms>  (831) 
nan

$$$$
CHEMBL3354995
     RDKit          3D

  0  0  0  0  0  0  0  0  0  0999 V3000
M  V30 BEGIN CTAB
M  V30 COUNTS 66 70 0 0 0
M  V30 BEGIN ATOM
M  V30 1 C 3.378310 -3.281147 5.856304 0
M  V30 2 O 3.947990 -2.902964 4.622296 0
M  V30 3 C 3.565425 -1.737096 3.992179 0
M  V30 4 C 2.618216 -0.927590 4.564742 0
M  V30 5 C 2.147654 0.268005 4.032781 0
M  V30 6 C 2.743958 0.593737 2.812632 0
M  V30 7 C 2.249521 1.886639 2.212890 0
M  V30 8 F 2.447255 2.942360 3.057878 0
M  V30 9 F 2.832387 2.062232 0.981022 0
M  V30 10 C 0.785846 1.657925 1.977351 0
M  V30 11 C -0.197377 2.292601 2.693858 0
M  V30 12 C -1.551325 2.115158 2.518184 0
M  V30 13 N -2.548122 2.774226 3.278820 0
M  V30 14 C -2.480843 3.737586 4.324904 0
M  V30 15 C -1.962520 5.093174 3.908350 0
M  V30 16 C -2.924295 5.606260 2.829534 0
M  V30 17 F -2.861714 4.663848 1.813083 0
M  V30 18 F -2.543606 6.804720 2.301579 0
M  V30 19 F -4.186820 5.613789 3.395871 0
M  V30 20 C -1.859935 1.208860 1.521259 0
M  V30 21 N -3.064017 0.795372 1.081178 0
M  V30 22 C -2.868349 -0.095198 0.093707 0
M  V30 23 C -1.483459 -0.212230 -0.055668 0
M  V30 24 C -1.007322 -1.134906 -1.076414 0
M  V30 25 C -1.596925 -2.402613 -1.162711 0
M  V30 26 C -1.221367 -3.349716 -2.093120 0
M  V30 27 C -0.202050 -3.033511 -2.997520 0
M  V30 28 C 0.066292 -4.146922 -3.907210 0
M  V30 29 O 1.091431 -4.870714 -4.054573 0
M  V30 30 N -1.018870 -4.439908 -4.749438 0
M  V30 31 C -1.008691 -5.489854 -5.726411 0
M  V30 32 C -2.131431 -6.534581 -5.470785 0
M  V30 33 C -1.998007 -5.736293 -6.747851 0
M  V30 34 C 0.387208 -1.802726 -2.931495 0
M  V30 35 C 1.443910 -1.568805 -3.922835 0
M  V30 36 C -0.009255 -0.877262 -1.990877 0
M  V30 37 N -0.883214 0.598144 0.831229 0
M  V30 38 N 0.410911 0.779564 1.011863 0
M  V30 39 C 3.695633 -0.172278 2.189048 0
M  V30 40 C 4.113843 -1.358041 2.788555 0
M  V30 41 H 3.457017 -2.439665 6.570712 0
M  V30 42 H 3.928754 -4.155135 6.272803 0
M  V30 43 H 2.305878 -3.520036 5.714583 0
M  V30 44 H 2.191196 -1.245367 5.522143 0
M  V30 45 H 1.399792 0.875865 4.518447 0
M  V30 46 H 0.179125 2.964011 3.441057 0
M  V30 47 H -3.542564 2.492145 3.012847 0
M  V30 48 H -1.771360 3.356074 5.093130 0
M  V30 49 H -3.453538 3.822627 4.841245 0
M  V30 50 H -0.962478 5.011466 3.506130 0
M  V30 51 H -2.033933 5.835974 4.723544 0
M  V30 52 H -3.725662 -0.548312 -0.396176 0
M  V30 53 H -2.394762 -2.626280 -0.441083 0
M  V30 54 H -1.767027 -4.299617 -2.048036 0
M  V30 55 H -1.947787 -3.925809 -4.756055 0
M  V30 56 H -0.016967 -6.003992 -5.818372 0
M  V30 57 H -1.856226 -7.601229 -5.451060 0
M  V30 58 H -2.917143 -6.281158 -4.746677 0
M  V30 59 H -2.888390 -5.119547 -6.947975 0
M  V30 60 H -1.708807 -6.336136 -7.628890 0
M  V30 61 H 1.673754 -0.481782 -4.074278 0
M  V30 62 H 2.393788 -1.997256 -3.489789 0
M  V30 63 H 1.274361 -2.096748 -4.867950 0
M  V30 64 H 0.469143 0.089093 -1.955376 0
M  V30 65 H 4.095225 0.173627 1.238890 0
M  V30 66 H 4.859117 -1.936961 2.279235 0
M  V30 END ATOM
M  V30 BEGIN BOND
M  V30 1 1 1 2
M  V30 2 1 2 3
M  V30 3 2 3 4
M  V30 4 1 4 5
M  V30 5 2 5 6
M  V30 6 1 6 7
M  V30 7 1 7 8
M  V30 8 1 7 9
M  V30 9 1 7 10
M  V30 10 1 10 11
M  V30 11 2 11 12
M  V30 12 1 12 13
M  V30 13 1 13 14
M  V30 14 1 14 15
M  V30 15 1 15 16
M  V30 16 1 16 17
M  V30 17 1 16 18
M  V30 18 1 16 19
M  V30 19 1 12 20
M  V30 20 2 20 21
M  V30 21 1 21 22
M  V30 22 2 22 23
M  V30 23 1 23 24
M  V30 24 2 24 25
M  V30 25 1 25 26
M  V30 26 2 26 27
M  V30 27 1 27 28
M  V30 28 2 28 29
M  V30 29 1 28 30
M  V30 30 1 30 31
M  V30 31 1 31 32
M  V30 32 1 32 33
M  V30 33 1 27 34
M  V30 34 1 34 35
M  V30 35 2 34 36
M  V30 36 1 23 37
M  V30 37 1 37 38
M  V30 38 1 6 39
M  V30 39 2 39 40
M  V30 40 1 40 3
M  V30 41 2 38 10
M  V30 42 1 37 20
M  V30 43 1 36 24
M  V30 44 1 33 31
M  V30 45 1 1 41
M  V30 46 1 1 42
M  V30 47 1 1 43
M  V30 48 1 4 44
M  V30 49 1 5 45
M  V30 50 1 11 46
M  V30 51 1 13 47
M  V30 52 1 14 48
M  V30 53 1 14 49
M  V30 54 1 15 50
M  V30 55 1 15 51
M  V30 56 1 22 52
M  V30 57 1 25 53
M  V30 58 1 26 54
M  V30 59 1 30 55
M  V30 60 1 31 56
M  V30 61 1 32 57
M  V30 62 1 32 58
M  V30 63 1 33 59
M  V30 64 1 33 60
M  V30 65 1 35 61
M  V30 66 1 35 62
M  V30 67 1 35 63
M  V30 68 1 36 64
M  V30 69 1 39 65
M  V30 70 1 40 66
M  V30 END BOND
M  V30 END CTAB
M  END
>  <Dataset>  (832) 
ChEMBL_Kinases

>  <Ligand_Instance>  (832) 
nan

>  <PDB_ID>  (832) 
nan

>  <Standardized_SMILES>  (832) 
COc1ccc(C(F)(F)c2cc(NCCC(F)(F)F)c3ncc(-c4ccc(C(=O)NC5CC5)c(C)c4)n3n2)cc1

>  <Name>  (832) 
nan

>  <Pocket>  (832) 
nan

>  <ATP_Site>  (832) 
nan

>  <Peripheral>  (832) 
nan

>  <Num_H_Atoms_ProtBoundConf>  (832) 
nan

>  <Num_Resolved_Atoms>  (832) 
nan

>  <Num_Not_Resolved_Atoms>  (832) 
nan

$$$$
CHEMBL3354996
     RDKit          3D

  0  0  0  0  0  0  0  0  0  0999 V3000
M  V30 BEGIN CTAB
M  V30 COUNTS 66 71 0 0 0
M  V30 BEGIN ATOM
M  V30 1 C 3.788932 0.395735 4.560651 0
M  V30 2 C 2.459359 0.335021 3.898379 0
M  V30 3 C 2.578062 0.197384 2.508933 0
M  V30 4 C 1.443792 0.124219 1.727823 0
M  V30 5 C 1.507842 -0.013788 0.276118 0
M  V30 6 C 2.405480 0.799069 -0.422279 0
M  V30 7 N 2.245015 0.460876 -1.712953 0
M  V30 8 C 1.300155 -0.505817 -1.791254 0
M  V30 9 C 0.805479 -1.156154 -2.910994 0
M  V30 10 N 1.280226 -0.872801 -4.214720 0
M  V30 11 C 0.908472 -1.407650 -5.502410 0
M  V30 12 C -0.478625 -1.061451 -5.938005 0
M  V30 13 C -0.690162 0.435682 -6.045398 0
M  V30 14 F -0.448783 0.938584 -4.765472 0
M  V30 15 F -2.003238 0.751134 -6.324972 0
M  V30 16 F 0.112429 1.008801 -6.983171 0
M  V30 17 C -0.162960 -2.095733 -2.628520 0
M  V30 18 C -0.629151 -2.396009 -1.365423 0
M  V30 19 C -1.680778 -3.416905 -1.109822 0
M  V30 20 C -3.040169 -2.944160 -1.372022 0
M  V30 21 C -3.314756 -1.657534 -1.809497 0
M  V30 22 C -4.574561 -1.184029 -2.058286 0
M  V30 23 C -5.664829 -2.012689 -1.872553 0
M  V30 24 C -5.448616 -3.319422 -1.432978 0
M  V30 25 F -6.508088 -4.155400 -1.242775 0
M  V30 26 C -4.172464 -3.741443 -1.199691 0
M  V30 27 F -4.018365 -5.016396 -0.775548 0
M  V30 28 C -1.377044 -4.804428 -1.747767 0
M  V30 29 C -1.327220 -4.525399 -0.251469 0
M  V30 30 N -0.085710 -1.707943 -0.332929 0
M  V30 31 N 0.834150 -0.811035 -0.569695 0
M  V30 32 C 0.198176 0.190197 2.353470 0
M  V30 33 C 0.079789 0.325618 3.720461 0
M  V30 34 C 1.199240 0.399264 4.503944 0
M  V30 35 C 1.283284 0.544710 5.961407 0
M  V30 36 O 1.403641 -0.397321 6.810272 0
M  V30 37 N 1.220116 1.895379 6.434434 0
M  V30 38 C 1.286352 2.272791 7.852688 0
M  V30 39 C 0.545755 3.526395 8.236067 0
M  V30 40 C 2.022335 3.597377 8.116354 0
M  V30 41 H 4.323499 1.333895 4.419612 0
M  V30 42 H 3.595155 0.131068 5.638596 0
M  V30 43 H 4.394015 -0.450003 4.178199 0
M  V30 44 H 3.493120 0.140335 1.963928 0
M  V30 45 H 3.115099 1.554543 -0.149161 0
M  V30 46 H 2.046231 -0.135146 -4.266667 0
M  V30 47 H 1.628074 -1.168247 -6.289780 0
M  V30 48 H 0.928209 -2.536928 -5.430801 0
M  V30 49 H -0.563246 -1.438805 -6.999972 0
M  V30 50 H -1.263808 -1.563788 -5.380903 0
M  V30 51 H -0.612736 -2.664177 -3.408062 0
M  V30 52 H -2.463065 -0.980201 -1.964157 0
M  V30 53 H -4.795055 -0.183155 -2.399240 0
M  V30 54 H -6.685838 -1.704321 -2.049577 0
M  V30 55 H -0.416034 -4.918808 -2.280618 0
M  V30 56 H -2.212873 -5.365829 -2.163198 0
M  V30 57 H -2.013799 -5.165661 0.328093 0
M  V30 58 H -0.294451 -4.546674 0.180515 0
M  V30 59 H -0.720142 0.137429 1.785760 0
M  V30 60 H -0.850626 0.382537 4.266658 0
M  V30 61 H 1.119738 2.709838 5.762160 0
M  V30 62 H 1.389707 1.478836 8.608690 0
M  V30 63 H -0.091379 3.990600 7.451668 0
M  V30 64 H 0.147115 3.640347 9.265018 0
M  V30 65 H 2.621601 3.645260 9.034813 0
M  V30 66 H 2.455712 4.108025 7.235264 0
M  V30 END ATOM
M  V30 BEGIN BOND
M  V30 1 1 1 2
M  V30 2 2 2 3
M  V30 3 1 3 4
M  V30 4 1 4 5
M  V30 5 2 5 6
M  V30 6 1 6 7
M  V30 7 2 7 8
M  V30 8 1 8 9
M  V30 9 1 9 10
M  V30 10 1 10 11
M  V30 11 1 11 12
M  V30 12 1 12 13
M  V30 13 1 13 14
M  V30 14 1 13 15
M  V30 15 1 13 16
M  V30 16 2 9 17
M  V30 17 1 17 18
M  V30 18 1 18 19
M  V30 19 1 19 20
M  V30 20 2 20 21
M  V30 21 1 21 22
M  V30 22 2 22 23
M  V30 23 1 23 24
M  V30 24 1 24 25
M  V30 25 2 24 26
M  V30 26 1 26 27
M  V30 27 1 19 28
M  V30 28 1 28 29
M  V30 29 2 18 30
M  V30 30 1 30 31
M  V30 31 2 4 32
M  V30 32 1 32 33
M  V30 33 2 33 34
M  V30 34 1 34 35
M  V30 35 2 35 36
M  V30 36 1 35 37
M  V30 37 1 37 38
M  V30 38 1 38 39
M  V30 39 1 39 40
M  V30 40 1 34 2
M  V30 41 1 40 38
M  V30 42 1 31 5
M  V30 43 1 31 8
M  V30 44 1 29 19
M  V30 45 1 26 20
M  V30 46 1 1 41
M  V30 47 1 1 42
M  V30 48 1 1 43
M  V30 49 1 3 44
M  V30 50 1 6 45
M  V30 51 1 10 46
M  V30 52 1 11 47
M  V30 53 1 11 48
M  V30 54 1 12 49
M  V30 55 1 12 50
M  V30 56 1 17 51
M  V30 57 1 21 52
M  V30 58 1 22 53
M  V30 59 1 23 54
M  V30 60 1 28 55
M  V30 61 1 28 56
M  V30 62 1 29 57
M  V30 63 1 29 58
M  V30 64 1 32 59
M  V30 65 1 33 60
M  V30 66 1 37 61
M  V30 67 1 38 62
M  V30 68 1 39 63
M  V30 69 1 39 64
M  V30 70 1 40 65
M  V30 71 1 40 66
M  V30 END BOND
M  V30 END CTAB
M  END
>  <Dataset>  (833) 
ChEMBL_Kinases

>  <Ligand_Instance>  (833) 
nan

>  <PDB_ID>  (833) 
nan

>  <Standardized_SMILES>  (833) 
Cc1cc(-c2cnc3c(NCCC(F)(F)F)cc(C4(c5cccc(F)c5F)CC4)nn23)ccc1C(=O)NC1CC1

>  <Name>  (833) 
nan

>  <Pocket>  (833) 
nan

>  <ATP_Site>  (833) 
nan

>  <Peripheral>  (833) 
nan

>  <Num_H_Atoms_ProtBoundConf>  (833) 
nan

>  <Num_Resolved_Atoms>  (833) 
nan

>  <Num_Not_Resolved_Atoms>  (833) 
nan

$$$$
CHEMBL3354997
     RDKit          3D

  0  0  0  0  0  0  0  0  0  0999 V3000
M  V30 BEGIN CTAB
M  V30 COUNTS 51 55 0 0 0
M  V30 BEGIN ATOM
M  V30 1 C 3.866390 -0.118789 -3.600625 0
M  V30 2 O 3.326870 0.342703 -2.405458 0
M  V30 3 C 3.686885 -0.022810 -1.126206 0
M  V30 4 C 4.696155 -0.947554 -0.941348 0
M  V30 5 C 5.100448 -1.351428 0.310750 0
M  V30 6 Cl 6.382190 -2.523777 0.581559 0
M  V30 7 C 4.464740 -0.805654 1.431641 0
M  V30 8 Cl 4.926385 -1.272775 3.071115 0
M  V30 9 C 3.443715 0.128199 1.285956 0
M  V30 10 C 3.086408 0.491624 0.002571 0
M  V30 11 N 2.073847 1.437602 -0.192930 0
M  V30 12 C 1.292155 2.140465 0.762608 0
M  V30 13 N 1.893624 3.247436 1.286241 0
M  V30 14 C 1.275856 4.022624 2.201562 0
M  V30 15 N 0.037400 3.662519 2.581541 0
M  V30 16 C -0.603316 2.581814 2.098343 0
M  V30 17 N -1.817089 2.045787 2.323658 0
M  V30 18 C -1.918576 0.956367 1.544400 0
M  V30 19 C -0.785593 0.733504 0.782700 0
M  V30 20 C 0.022047 1.786011 1.163762 0
M  V30 21 C -0.580519 -0.385310 -0.175178 0
M  V30 22 C -1.770707 -1.298180 -0.136669 0
M  V30 23 C -1.720607 -2.220870 1.037417 0
M  V30 24 O -0.790715 -2.339561 1.905954 0
M  V30 25 N -2.803367 -3.103563 1.281985 0
M  V30 26 C -2.968995 -4.059070 2.331530 0
M  V30 27 C -3.648102 -5.369225 1.963401 0
M  V30 28 C -4.320071 -4.379600 2.865591 0
M  V30 29 C -3.052212 -0.506316 -0.004525 0
M  V30 30 C -3.099752 0.024718 1.438564 0
M  V30 31 H 4.222561 -1.169757 -3.450604 0
M  V30 32 H 3.048305 -0.239006 -4.375383 0
M  V30 33 H 4.630732 0.527070 -4.067990 0
M  V30 34 H 5.254366 -1.429988 -1.728835 0
M  V30 35 H 2.954444 0.548106 2.156764 0
M  V30 36 H 1.740339 1.771212 -1.122432 0
M  V30 37 H 1.787162 4.895499 2.595184 0
M  V30 38 H -2.527252 2.418185 2.979046 0
M  V30 39 H 0.304659 -1.015351 0.135961 0
M  V30 40 H -0.348499 -0.056158 -1.194249 0
M  V30 41 H -1.783866 -1.928642 -1.057239 0
M  V30 42 H -3.615438 -3.062411 0.601987 0
M  V30 43 H -2.110578 -4.148555 3.035656 0
M  V30 44 H -4.117131 -5.445753 0.944343 0
M  V30 45 H -3.308814 -6.317601 2.432076 0
M  V30 46 H -5.149887 -3.739999 2.453651 0
M  V30 47 H -4.418466 -4.661297 3.914785 0
M  V30 48 H -3.929336 -1.130491 -0.241216 0
M  V30 49 H -2.971165 0.383977 -0.660098 0
M  V30 50 H -4.064085 0.566385 1.535915 0
M  V30 51 H -3.045847 -0.789025 2.167427 0
M  V30 END ATOM
M  V30 BEGIN BOND
M  V30 1 1 1 2
M  V30 2 1 2 3
M  V30 3 2 3 4
M  V30 4 1 4 5
M  V30 5 1 5 6
M  V30 6 2 5 7
M  V30 7 1 7 8
M  V30 8 1 7 9
M  V30 9 2 9 10
M  V30 10 1 10 11
M  V30 11 1 11 12
M  V30 12 2 12 13
M  V30 13 1 13 14
M  V30 14 2 14 15
M  V30 15 1 15 16
M  V30 16 1 16 17
M  V30 17 1 17 18
M  V30 18 2 18 19
M  V30 19 1 19 20
M  V30 20 1 19 21
M  V30 21 1 21 22
M  V30 22 1 22 23
M  V30 23 2 23 24
M  V30 24 1 23 25
M  V30 25 1 25 26
M  V30 26 1 26 27
M  V30 27 1 27 28
M  V30 28 1 22 29
M  V30 29 1 29 30
M  V30 30 1 10 3
M  V30 31 1 20 12
M  V30 32 1 28 26
M  V30 33 2 20 16
M  V30 34 1 30 18
M  V30 35 1 1 31
M  V30 36 1 1 32
M  V30 37 1 1 33
M  V30 38 1 4 34
M  V30 39 1 9 35
M  V30 40 1 11 36
M  V30 41 1 14 37
M  V30 42 1 17 38
M  V30 43 1 21 39
M  V30 44 1 21 40
M  V30 45 1 22 41
M  V30 46 1 25 42
M  V30 47 1 26 43
M  V30 48 1 27 44
M  V30 49 1 27 45
M  V30 50 1 28 46
M  V30 51 1 28 47
M  V30 52 1 29 48
M  V30 53 1 29 49
M  V30 54 1 30 50
M  V30 55 1 30 51
M  V30 END BOND
M  V30 END CTAB
M  END
>  <Dataset>  (834) 
ChEMBL_Kinases

>  <Ligand_Instance>  (834) 
nan

>  <PDB_ID>  (834) 
nan

>  <Standardized_SMILES>  (834) 
COc1cc(Cl)c(Cl)cc1Nc1ncnc2[nH]c3c(c12)CC(C(=O)NC1CC1)CC3

>  <Name>  (834) 
nan

>  <Pocket>  (834) 
nan

>  <ATP_Site>  (834) 
nan

>  <Peripheral>  (834) 
nan

>  <Num_H_Atoms_ProtBoundConf>  (834) 
nan

>  <Num_Resolved_Atoms>  (834) 
nan

>  <Num_Not_Resolved_Atoms>  (834) 
nan

$$$$
CHEMBL3354190
     RDKit          3D

  0  0  0  0  0  0  0  0  0  0999 V3000
M  V30 BEGIN CTAB
M  V30 COUNTS 52 55 0 0 0
M  V30 BEGIN ATOM
M  V30 1 C 1.286614 -6.374000 0.936940 0
M  V30 2 O 2.268871 -5.429065 0.647413 0
M  V30 3 C 1.736513 -4.147673 0.760547 0
M  V30 4 C 2.420230 -3.401090 1.878461 0
M  V30 5 C 3.250673 -2.245509 1.361560 0
M  V30 6 N 2.462392 -1.367162 0.510130 0
M  V30 7 C 2.749536 0.036538 0.483951 0
M  V30 8 N 3.840778 0.594890 0.986315 0
M  V30 9 C 3.977508 1.941736 0.904054 0
M  V30 10 C 3.028375 2.765199 0.318609 0
M  V30 11 C 1.908068 2.149742 -0.191296 0
M  V30 12 N 0.831180 2.890165 -0.813719 0
M  V30 13 C -0.283605 2.134571 -1.272968 0
M  V30 14 C -1.101336 1.876361 -0.163836 0
M  V30 15 C -2.289556 1.141002 -0.281636 0
M  V30 16 C -2.646938 0.664227 -1.548636 0
M  V30 17 C -1.817901 0.940289 -2.607269 0
M  V30 18 N -0.672492 1.652150 -2.477114 0
M  V30 19 N -3.803687 -0.007754 -1.430787 0
M  V30 20 C -4.174583 0.039565 -0.117398 0
M  V30 21 N -3.259151 0.730723 0.560435 0
M  V30 22 C -3.288913 1.002608 1.988816 0
M  V30 23 C -4.611410 1.661460 2.346591 0
M  V30 24 C -3.232382 -0.330872 2.735904 0
M  V30 25 N 1.821412 0.823406 -0.086269 0
M  V30 26 C 1.408503 -1.943396 -0.300269 0
M  V30 27 C 1.790543 -3.392660 -0.543777 0
M  V30 28 H 1.665997 -7.418306 0.861703 0
M  V30 29 H 0.432065 -6.291859 0.232254 0
M  V30 30 H 0.880540 -6.270759 1.978645 0
M  V30 31 H 0.655305 -4.279463 1.056269 0
M  V30 32 H 1.729058 -3.009760 2.645711 0
M  V30 33 H 3.115919 -4.092965 2.395252 0
M  V30 34 H 3.616828 -1.699571 2.259154 0
M  V30 35 H 4.140277 -2.562129 0.783785 0
M  V30 36 H 4.845505 2.468554 1.295793 0
M  V30 37 H 3.112834 3.847425 0.237952 0
M  V30 38 H 0.867978 3.930506 -0.924767 0
M  V30 39 H -0.956027 2.180412 0.873156 0
M  V30 40 H -2.013622 0.616024 -3.604432 0
M  V30 41 H -5.049251 -0.393955 0.341481 0
M  V30 42 H -2.429297 1.621611 2.318268 0
M  V30 43 H -4.644012 2.639644 1.803067 0
M  V30 44 H -4.660211 1.921818 3.420881 0
M  V30 45 H -5.438694 1.060934 1.964043 0
M  V30 46 H -2.185376 -0.704857 2.788959 0
M  V30 47 H -3.627839 -0.114944 3.748943 0
M  V30 48 H -3.889624 -1.072432 2.240677 0
M  V30 49 H 0.470398 -1.913281 0.249445 0
M  V30 50 H 1.337089 -1.441232 -1.294789 0
M  V30 51 H 1.021483 -3.813638 -1.244016 0
M  V30 52 H 2.767778 -3.509774 -1.028497 0
M  V30 END ATOM
M  V30 BEGIN BOND
M  V30 1 1 1 2
M  V30 2 1 2 3
M  V30 3 1 3 4
M  V30 4 1 4 5
M  V30 5 1 5 6
M  V30 6 1 6 7
M  V30 7 2 7 8
M  V30 8 1 8 9
M  V30 9 2 9 10
M  V30 10 1 10 11
M  V30 11 1 11 12
M  V30 12 1 12 13
M  V30 13 2 13 14
M  V30 14 1 14 15
M  V30 15 2 15 16
M  V30 16 1 16 17
M  V30 17 2 17 18
M  V30 18 1 16 19
M  V30 19 2 19 20
M  V30 20 1 20 21
M  V30 21 1 21 22
M  V30 22 1 22 23
M  V30 23 1 22 24
M  V30 24 2 11 25
M  V30 25 1 6 26
M  V30 26 1 26 27
M  V30 27 1 27 3
M  V30 28 1 25 7
M  V30 29 1 18 13
M  V30 30 1 21 15
M  V30 31 1 1 28
M  V30 32 1 1 29
M  V30 33 1 1 30
M  V30 34 1 3 31
M  V30 35 1 4 32
M  V30 36 1 4 33
M  V30 37 1 5 34
M  V30 38 1 5 35
M  V30 39 1 9 36
M  V30 40 1 10 37
M  V30 41 1 12 38
M  V30 42 1 14 39
M  V30 43 1 17 40
M  V30 44 1 20 41
M  V30 45 1 22 42
M  V30 46 1 23 43
M  V30 47 1 23 44
M  V30 48 1 23 45
M  V30 49 1 24 46
M  V30 50 1 24 47
M  V30 51 1 24 48
M  V30 52 1 26 49
M  V30 53 1 26 50
M  V30 54 1 27 51
M  V30 55 1 27 52
M  V30 END BOND
M  V30 END CTAB
M  END
>  <Dataset>  (835) 
ChEMBL_Kinases

>  <Ligand_Instance>  (835) 
nan

>  <PDB_ID>  (835) 
nan

>  <Standardized_SMILES>  (835) 
COC1CCN(c2nccc(Nc3cc4c(cn3)ncn4C(C)C)n2)CC1

>  <Name>  (835) 
nan

>  <Pocket>  (835) 
nan

>  <ATP_Site>  (835) 
nan

>  <Peripheral>  (835) 
nan

>  <Num_H_Atoms_ProtBoundConf>  (835) 
nan

>  <Num_Resolved_Atoms>  (835) 
nan

>  <Num_Not_Resolved_Atoms>  (835) 
nan

$$$$
CHEMBL3356122
     RDKit          3D

  0  0  0  0  0  0  0  0  0  0999 V3000
M  V30 BEGIN CTAB
M  V30 COUNTS 65 69 0 0 0
M  V30 BEGIN ATOM
M  V30 1 O 2.267420 3.545764 4.511353 0
M  V30 2 C 1.421056 2.868672 3.871138 0
M  V30 3 N 1.610364 1.464584 3.699928 0
M  V30 4 C 2.748863 0.759016 4.233428 0
M  V30 5 C 2.812383 0.184739 5.498634 0
M  V30 6 C 3.970047 -0.463964 5.883241 0
M  V30 7 C 5.065851 -0.544676 5.012831 0
M  V30 8 O 6.197030 -1.209154 5.458271 0
M  V30 9 C 5.020270 0.023085 3.746547 0
M  V30 10 Cl 6.393253 -0.080163 2.660631 0
M  V30 11 C 3.848015 0.672844 3.375373 0
M  V30 12 C 0.163860 3.277173 3.206341 0 CFG=2
M  V30 13 C -1.062194 2.581947 3.740121 0
M  V30 14 C -1.861735 2.234475 2.499251 0
M  V30 15 N -0.917160 2.135392 1.425251 0
M  V30 16 C -1.440480 2.503308 0.125302 0
M  V30 17 C -2.415788 1.493268 -0.260469 0
M  V30 18 O -2.761273 1.937459 -1.378510 0
M  V30 19 N -3.388619 0.674248 -0.874449 0
M  V30 20 C -4.096960 0.718523 -2.130677 0
M  V30 21 C -3.604242 -0.457816 -2.986629 0
M  V30 22 N -3.256504 -1.581840 -2.134783 0
M  V30 23 C -2.195172 -2.481404 -2.417803 0
M  V30 24 C -1.821942 -3.515272 -1.579089 0
M  V30 25 C -0.792614 -4.387904 -1.853907 0
M  V30 26 C -0.091715 -4.227567 -3.027697 0
M  V30 27 C 1.001471 -5.126307 -3.361394 0
M  V30 28 C 1.781825 -5.684944 -2.408936 0
M  V30 29 C 2.856648 -6.571078 -2.845976 0
M  V30 30 S 2.681106 -6.556821 -4.733983 0
M  V30 31 C 1.296654 -5.456323 -4.785147 0
M  V30 32 C -0.397871 -3.217820 -3.927174 0
M  V30 33 C -1.446715 -2.392510 -3.563196 0
M  V30 34 C -4.110545 -1.664735 -0.988359 0
M  V30 35 C -3.778722 -0.493930 -0.069797 0
M  V30 36 C 0.186400 2.997910 1.723606 0
M  V30 37 H 1.023887 0.762397 3.209013 0
M  V30 38 H 1.926175 0.285848 6.116525 0
M  V30 39 H 3.970007 -0.891620 6.867243 0
M  V30 40 H 6.735848 -1.873149 4.911336 0
M  V30 41 H 3.871642 1.098253 2.370352 0
M  V30 42 H -0.011970 4.364418 3.333863 0
M  V30 43 H -1.708094 3.223404 4.373794 0
M  V30 44 H -0.814498 1.675842 4.332842 0
M  V30 45 H -2.591290 3.028545 2.254514 0
M  V30 46 H -2.447717 1.297880 2.654461 0
M  V30 47 H -1.843409 3.535354 0.249740 0
M  V30 48 H -0.544664 2.573795 -0.537035 0
M  V30 49 H -5.184159 0.517592 -1.905506 0
M  V30 50 H -4.043600 1.658990 -2.679077 0
M  V30 51 H -2.695725 -0.073215 -3.490350 0
M  V30 52 H -4.345344 -0.703917 -3.748427 0
M  V30 53 H -2.339138 -3.681444 -0.647319 0
M  V30 54 H -0.519267 -5.187110 -1.183392 0
M  V30 55 H 1.676463 -5.531683 -1.354185 0
M  V30 56 H 3.560304 -7.082430 -2.085864 0
M  V30 57 H 0.722090 -5.050967 -5.586670 0
M  V30 58 H 0.153836 -3.092717 -4.848727 0
M  V30 59 H -1.654111 -1.614221 -4.298726 0
M  V30 60 H -5.168332 -1.587343 -1.349343 0
M  V30 61 H -3.992947 -2.577189 -0.398890 0
M  V30 62 H -4.719332 -0.182952 0.427420 0
M  V30 63 H -2.967531 -0.765263 0.616136 0
M  V30 64 H 0.265461 3.907066 1.125613 0
M  V30 65 H 1.122084 2.399846 1.532181 0
M  V30 END ATOM
M  V30 BEGIN BOND
M  V30 1 2 1 2
M  V30 2 1 2 3
M  V30 3 1 3 4
M  V30 4 2 4 5
M  V30 5 1 5 6
M  V30 6 2 6 7
M  V30 7 1 7 8
M  V30 8 1 7 9
M  V30 9 1 9 10
M  V30 10 2 9 11
M  V30 11 1 2 12
M  V30 12 1 12 13
M  V30 13 1 13 14
M  V30 14 1 14 15
M  V30 15 1 15 16
M  V30 16 1 16 17
M  V30 17 2 17 18
M  V30 18 1 17 19
M  V30 19 1 19 20
M  V30 20 1 20 21
M  V30 21 1 21 22
M  V30 22 1 22 23
M  V30 23 2 23 24
M  V30 24 1 24 25
M  V30 25 2 25 26
M  V30 26 1 26 27
M  V30 27 1 27 28
M  V30 28 2 28 29
M  V30 29 1 29 30
M  V30 30 1 30 31
M  V30 31 1 26 32
M  V30 32 2 32 33
M  V30 33 1 22 34
M  V30 34 1 34 35
M  V30 35 1 15 36
M  V30 36 1 11 4
M  V30 37 1 36 12
M  V30 38 1 35 19
M  V30 39 1 33 23
M  V30 40 2 31 27
M  V30 41 1 3 37
M  V30 42 1 5 38
M  V30 43 1 6 39
M  V30 44 1 8 40
M  V30 45 1 11 41
M  V30 46 1 12 42 CFG=3
M  V30 47 1 13 43
M  V30 48 1 13 44
M  V30 49 1 14 45
M  V30 50 1 14 46
M  V30 51 1 16 47
M  V30 52 1 16 48
M  V30 53 1 20 49
M  V30 54 1 20 50
M  V30 55 1 21 51
M  V30 56 1 21 52
M  V30 57 1 24 53
M  V30 58 1 25 54
M  V30 59 1 28 55
M  V30 60 1 29 56
M  V30 61 1 31 57
M  V30 62 1 32 58
M  V30 63 1 33 59
M  V30 64 1 34 60
M  V30 65 1 34 61
M  V30 66 1 35 62
M  V30 67 1 35 63
M  V30 68 1 36 64
M  V30 69 1 36 65
M  V30 END BOND
M  V30 END CTAB
M  END
>  <Dataset>  (836) 
ChEMBL_Kinases

>  <Ligand_Instance>  (836) 
nan

>  <PDB_ID>  (836) 
nan

>  <Standardized_SMILES>  (836) 
O=C(Nc1ccc(O)c(Cl)c1)[C@@H]1CCN(CC(=O)N2CCN(c3ccc(-c4ccsc4)cc3)CC2)C1

>  <Name>  (836) 
nan

>  <Pocket>  (836) 
nan

>  <ATP_Site>  (836) 
nan

>  <Peripheral>  (836) 
nan

>  <Num_H_Atoms_ProtBoundConf>  (836) 
nan

>  <Num_Resolved_Atoms>  (836) 
nan

>  <Num_Not_Resolved_Atoms>  (836) 
nan

$$$$
CHEMBL3356121
     RDKit          3D

  0  0  0  0  0  0  0  0  0  0999 V3000
M  V30 BEGIN CTAB
M  V30 COUNTS 68 72 0 0 0
M  V30 BEGIN ATOM
M  V30 1 O -0.223327 -0.736883 3.860762 0
M  V30 2 C 0.639503 0.154732 3.683730 0
M  V30 3 N 1.973932 -0.225956 3.513495 0
M  V30 4 C 2.564495 -1.508714 3.504839 0
M  V30 5 C 3.923838 -1.615796 3.318418 0
M  V30 6 C 4.583303 -2.811852 3.296464 0
M  V30 7 C 3.903044 -3.997385 3.463971 0
M  V30 8 O 4.549479 -5.228542 3.446221 0
M  V30 9 C 2.518194 -3.942169 3.657048 0
M  V30 10 Cl 1.635964 -5.420927 3.870834 0
M  V30 11 C 1.934839 -2.704142 3.665558 0
M  V30 12 C 0.135621 1.527995 3.676131 0 CFG=2
M  V30 13 C -1.384728 1.535405 3.908897 0
M  V30 14 C -1.791243 2.834208 3.249575 0
M  V30 15 N -0.948643 2.996244 2.129578 0
M  V30 16 C -1.557360 2.924618 0.839274 0
M  V30 17 C -0.548580 3.103817 -0.245941 0
M  V30 18 O 0.689482 3.289560 -0.086966 0
M  V30 19 N -1.041553 3.059605 -1.594384 0
M  V30 20 C -2.459966 2.854585 -1.930235 0
M  V30 21 C -2.424193 1.857496 -3.099481 0
M  V30 22 N -1.193725 1.082181 -3.035745 0
M  V30 23 C -1.079238 -0.270813 -2.620381 0
M  V30 24 C 0.087801 -0.999715 -2.605111 0
M  V30 25 C 0.113703 -2.310836 -2.185144 0
M  V30 26 C -1.008053 -2.970455 -1.758953 0
M  V30 27 C -0.954157 -4.351979 -1.321269 0
M  V30 28 C -0.045677 -5.188839 -1.893178 0
M  V30 29 C 0.047497 -6.511569 -1.514176 0
M  V30 30 C -0.806357 -6.982330 -0.531829 0
M  V30 31 C -1.740694 -6.132871 0.060240 0
M  V30 32 C -1.794393 -4.831518 -0.348856 0
M  V30 33 C -2.177811 -2.251119 -1.770612 0
M  V30 34 C -2.203604 -0.938031 -2.191280 0
M  V30 35 C -0.072903 1.895195 -3.461289 0
M  V30 36 C -0.185750 3.214998 -2.733113 0
M  V30 37 C 0.215048 2.219181 2.333871 0
M  V30 38 H 2.587865 0.610276 3.374315 0
M  V30 39 H 4.519265 -0.704370 3.179147 0
M  V30 40 H 5.646123 -2.819709 3.146311 0
M  V30 41 H 5.282464 -5.451408 2.804967 0
M  V30 42 H 0.872722 -2.730794 3.817338 0
M  V30 43 H 0.579369 2.111897 4.498468 0
M  V30 44 H -1.641287 1.509358 4.975050 0
M  V30 45 H -1.831868 0.693161 3.339299 0
M  V30 46 H -2.872862 2.798905 3.030059 0
M  V30 47 H -1.594447 3.668029 3.972547 0
M  V30 48 H -2.095354 1.946306 0.758925 0
M  V30 49 H -2.348480 3.688117 0.759033 0
M  V30 50 H -3.043990 2.476939 -1.098887 0
M  V30 51 H -2.847136 3.839958 -2.263332 0
M  V30 52 H -2.484921 2.484435 -4.028878 0
M  V30 53 H -3.339418 1.277155 -3.026755 0
M  V30 54 H 0.988776 -0.544649 -2.923722 0
M  V30 55 H 1.065441 -2.830913 -2.196650 0
M  V30 56 H 0.652094 -4.903111 -2.660936 0
M  V30 57 H 0.703638 -7.279734 -1.869142 0
M  V30 58 H -0.837767 -7.999755 -0.141889 0
M  V30 59 H -2.428443 -6.457189 0.832101 0
M  V30 60 H -2.507071 -4.147290 0.089998 0
M  V30 61 H -3.061309 -2.803585 -1.424560 0
M  V30 62 H -3.199683 -0.523580 -2.136082 0
M  V30 63 H 0.912241 1.424677 -3.350529 0
M  V30 64 H -0.164911 2.113046 -4.564069 0
M  V30 65 H 0.848683 3.438796 -2.336105 0
M  V30 66 H -0.519743 4.023547 -3.417405 0
M  V30 67 H 0.342102 1.424840 1.568992 0
M  V30 68 H 1.126895 2.868403 2.276195 0
M  V30 END ATOM
M  V30 BEGIN BOND
M  V30 1 2 1 2
M  V30 2 1 2 3
M  V30 3 1 3 4
M  V30 4 2 4 5
M  V30 5 1 5 6
M  V30 6 2 6 7
M  V30 7 1 7 8
M  V30 8 1 7 9
M  V30 9 1 9 10
M  V30 10 2 9 11
M  V30 11 1 2 12
M  V30 12 1 12 13
M  V30 13 1 13 14
M  V30 14 1 14 15
M  V30 15 1 15 16
M  V30 16 1 16 17
M  V30 17 2 17 18
M  V30 18 1 17 19
M  V30 19 1 19 20
M  V30 20 1 20 21
M  V30 21 1 21 22
M  V30 22 1 22 23
M  V30 23 2 23 24
M  V30 24 1 24 25
M  V30 25 2 25 26
M  V30 26 1 26 27
M  V30 27 2 27 28
M  V30 28 1 28 29
M  V30 29 2 29 30
M  V30 30 1 30 31
M  V30 31 2 31 32
M  V30 32 1 26 33
M  V30 33 2 33 34
M  V30 34 1 22 35
M  V30 35 1 35 36
M  V30 36 1 15 37
M  V30 37 1 11 4
M  V30 38 1 37 12
M  V30 39 1 36 19
M  V30 40 1 34 23
M  V30 41 1 32 27
M  V30 42 1 3 38
M  V30 43 1 5 39
M  V30 44 1 6 40
M  V30 45 1 8 41
M  V30 46 1 11 42
M  V30 47 1 12 43 CFG=1
M  V30 48 1 13 44
M  V30 49 1 13 45
M  V30 50 1 14 46
M  V30 51 1 14 47
M  V30 52 1 16 48
M  V30 53 1 16 49
M  V30 54 1 20 50
M  V30 55 1 20 51
M  V30 56 1 21 52
M  V30 57 1 21 53
M  V30 58 1 24 54
M  V30 59 1 25 55
M  V30 60 1 28 56
M  V30 61 1 29 57
M  V30 62 1 30 58
M  V30 63 1 31 59
M  V30 64 1 32 60
M  V30 65 1 33 61
M  V30 66 1 34 62
M  V30 67 1 35 63
M  V30 68 1 35 64
M  V30 69 1 36 65
M  V30 70 1 36 66
M  V30 71 1 37 67
M  V30 72 1 37 68
M  V30 END BOND
M  V30 END CTAB
M  END
>  <Dataset>  (837) 
ChEMBL_Kinases

>  <Ligand_Instance>  (837) 
nan

>  <PDB_ID>  (837) 
nan

>  <Standardized_SMILES>  (837) 
O=C(Nc1ccc(O)c(Cl)c1)[C@@H]1CCN(CC(=O)N2CCN(c3ccc(-c4ccccc4)cc3)CC2)C1

>  <Name>  (837) 
nan

>  <Pocket>  (837) 
nan

>  <ATP_Site>  (837) 
nan

>  <Peripheral>  (837) 
nan

>  <Num_H_Atoms_ProtBoundConf>  (837) 
nan

>  <Num_Resolved_Atoms>  (837) 
nan

>  <Num_Not_Resolved_Atoms>  (837) 
nan

$$$$
CHEMBL3356120
     RDKit          3D

  0  0  0  0  0  0  0  0  0  0999 V3000
M  V30 BEGIN CTAB
M  V30 COUNTS 58 61 0 0 0
M  V30 BEGIN ATOM
M  V30 1 O 4.032452 2.161486 2.060317 0
M  V30 2 C 2.817820 1.922649 1.814749 0
M  V30 3 N 2.361411 0.609156 2.149056 0
M  V30 4 C 3.256271 -0.341691 2.722444 0
M  V30 5 C 3.524667 -0.571604 4.054950 0
M  V30 6 C 4.438240 -1.553498 4.400406 0
M  V30 7 C 5.065809 -2.286806 3.401129 0
M  V30 8 O 5.985249 -3.272075 3.807277 0
M  V30 9 C 4.808130 -2.069543 2.045475 0
M  V30 10 Cl 5.646709 -3.042164 0.853152 0
M  V30 11 C 3.895075 -1.087114 1.723809 0
M  V30 12 C 1.786255 2.797876 1.230159 0 CFG=2
M  V30 13 C 0.602436 3.049082 2.123004 0
M  V30 14 C -0.422632 3.554862 1.107089 0
M  V30 15 N -0.148040 2.830083 -0.089666 0
M  V30 16 C -1.220438 2.090472 -0.652134 0
M  V30 17 C -1.645749 0.931451 0.166632 0
M  V30 18 O -1.367912 0.348097 1.245824 0
M  V30 19 N -2.712026 0.102002 -0.281253 0
M  V30 20 C -2.949347 -0.955962 0.675279 0
M  V30 21 C -3.820408 -2.026907 0.057852 0
M  V30 22 N -3.272186 -2.290541 -1.256845 0
M  V30 23 C -2.560288 -3.456405 -1.641879 0
M  V30 24 C -2.133453 -3.736304 -2.920240 0
M  V30 25 C -1.440137 -4.888200 -3.223952 0
M  V30 26 C -1.131348 -5.827746 -2.275624 0
M  V30 27 Br -0.175651 -7.401978 -2.727765 0
M  V30 28 C -1.541821 -5.581521 -0.987969 0
M  V30 29 C -2.241982 -4.408873 -0.704807 0
M  V30 30 C -3.519295 -1.202928 -2.196638 0
M  V30 31 C -3.560989 0.133416 -1.476499 0
M  V30 32 C 1.106735 2.175630 0.030995 0
M  V30 33 H 1.371038 0.280851 1.995476 0
M  V30 34 H 2.970642 0.065456 4.724677 0
M  V30 35 H 4.603315 -1.683793 5.447914 0
M  V30 36 H 6.595959 -3.724276 3.128753 0
M  V30 37 H 3.753594 -0.983039 0.657643 0
M  V30 38 H 2.206499 3.752042 0.924467 0
M  V30 39 H 0.818920 3.833839 2.882007 0
M  V30 40 H 0.182847 2.162564 2.603718 0
M  V30 41 H -0.151722 4.634008 0.909466 0
M  V30 42 H -1.453274 3.469607 1.469719 0
M  V30 43 H -2.064306 2.811140 -0.815559 0
M  V30 44 H -0.899388 1.776794 -1.676079 0
M  V30 45 H -3.406295 -0.631253 1.615765 0
M  V30 46 H -1.985925 -1.455614 0.925012 0
M  V30 47 H -3.893565 -2.929897 0.673978 0
M  V30 48 H -4.874427 -1.660823 -0.097412 0
M  V30 49 H -2.348119 -3.034743 -3.711226 0
M  V30 50 H -1.125512 -5.057565 -4.261601 0
M  V30 51 H -1.290412 -6.330627 -0.254078 0
M  V30 52 H -2.497316 -4.348841 0.343450 0
M  V30 53 H -4.486553 -1.305907 -2.725222 0
M  V30 54 H -2.724712 -1.194376 -2.973965 0
M  V30 55 H -4.583549 0.395023 -1.144275 0
M  V30 56 H -3.230883 0.895350 -2.194926 0
M  V30 57 H 1.701318 2.436057 -0.878206 0
M  V30 58 H 1.092875 1.085767 0.083439 0
M  V30 END ATOM
M  V30 BEGIN BOND
M  V30 1 2 1 2
M  V30 2 1 2 3
M  V30 3 1 3 4
M  V30 4 2 4 5
M  V30 5 1 5 6
M  V30 6 2 6 7
M  V30 7 1 7 8
M  V30 8 1 7 9
M  V30 9 1 9 10
M  V30 10 2 9 11
M  V30 11 1 2 12
M  V30 12 1 12 13
M  V30 13 1 13 14
M  V30 14 1 14 15
M  V30 15 1 15 16
M  V30 16 1 16 17
M  V30 17 2 17 18
M  V30 18 1 17 19
M  V30 19 1 19 20
M  V30 20 1 20 21
M  V30 21 1 21 22
M  V30 22 1 22 23
M  V30 23 2 23 24
M  V30 24 1 24 25
M  V30 25 2 25 26
M  V30 26 1 26 27
M  V30 27 1 26 28
M  V30 28 2 28 29
M  V30 29 1 22 30
M  V30 30 1 30 31
M  V30 31 1 15 32
M  V30 32 1 11 4
M  V30 33 1 32 12
M  V30 34 1 31 19
M  V30 35 1 29 23
M  V30 36 1 3 33
M  V30 37 1 5 34
M  V30 38 1 6 35
M  V30 39 1 8 36
M  V30 40 1 11 37
M  V30 41 1 12 38 CFG=3
M  V30 42 1 13 39
M  V30 43 1 13 40
M  V30 44 1 14 41
M  V30 45 1 14 42
M  V30 46 1 16 43
M  V30 47 1 16 44
M  V30 48 1 20 45
M  V30 49 1 20 46
M  V30 50 1 21 47
M  V30 51 1 21 48
M  V30 52 1 24 49
M  V30 53 1 25 50
M  V30 54 1 28 51
M  V30 55 1 29 52
M  V30 56 1 30 53
M  V30 57 1 30 54
M  V30 58 1 31 55
M  V30 59 1 31 56
M  V30 60 1 32 57
M  V30 61 1 32 58
M  V30 END BOND
M  V30 END CTAB
M  END
>  <Dataset>  (838) 
ChEMBL_Kinases

>  <Ligand_Instance>  (838) 
nan

>  <PDB_ID>  (838) 
nan

>  <Standardized_SMILES>  (838) 
O=C(Nc1ccc(O)c(Cl)c1)[C@@H]1CCN(CC(=O)N2CCN(c3ccc(Br)cc3)CC2)C1

>  <Name>  (838) 
nan

>  <Pocket>  (838) 
nan

>  <ATP_Site>  (838) 
nan

>  <Peripheral>  (838) 
nan

>  <Num_H_Atoms_ProtBoundConf>  (838) 
nan

>  <Num_Resolved_Atoms>  (838) 
nan

>  <Num_Not_Resolved_Atoms>  (838) 
nan

$$$$
CHEMBL3356119
     RDKit          3D

  0  0  0  0  0  0  0  0  0  0999 V3000
M  V30 BEGIN CTAB
M  V30 COUNTS 58 61 0 0 0
M  V30 BEGIN ATOM
M  V30 1 O 3.225820 -1.080723 2.336444 0
M  V30 2 C 2.695834 -0.068764 2.916152 0
M  V30 3 N 3.533730 0.884987 3.544120 0
M  V30 4 C 4.889339 0.468090 3.375132 0
M  V30 5 C 5.570137 0.893349 2.253468 0
M  V30 6 C 6.882163 0.532920 2.025804 0
M  V30 7 C 7.451649 -0.272665 2.991011 0
M  V30 8 O 8.785487 -0.718894 2.890301 0
M  V30 9 C 6.821669 -0.737120 4.145584 0
M  V30 10 Cl 7.610923 -1.756675 5.327361 0
M  V30 11 C 5.495653 -0.336988 4.316558 0
M  V30 12 C 1.223910 -0.180268 2.757705 0 CFG=2
M  V30 13 C 0.860237 -1.403643 1.970672 0
M  V30 14 C 0.858047 -0.893721 0.559649 0
M  V30 15 N 0.331956 0.402524 0.640920 0
M  V30 16 C -0.991207 0.650916 0.212458 0
M  V30 17 C -1.256705 0.558750 -1.219868 0
M  V30 18 O -0.031399 0.280527 -1.391065 0
M  V30 19 N -2.559962 0.782848 -1.720705 0
M  V30 20 C -3.803073 1.117221 -1.086583 0
M  V30 21 C -4.864451 0.089962 -1.484161 0
M  V30 22 N -4.280057 -0.997110 -2.225098 0
M  V30 23 C -4.182974 -2.365336 -1.863583 0
M  V30 24 C -3.582474 -3.328801 -2.640053 0
M  V30 25 C -3.509450 -4.648997 -2.254629 0
M  V30 26 C -4.035949 -5.081013 -1.064424 0
M  V30 27 C -4.645328 -4.118597 -0.269659 0
M  V30 28 Cl -5.306265 -4.697151 1.242263 0
M  V30 29 C -4.705450 -2.815273 -0.673150 0
M  V30 30 C -3.784302 -0.433509 -3.460072 0
M  V30 31 C -2.793820 0.673431 -3.149192 0
M  V30 32 C 0.709864 0.935571 1.914426 0
M  V30 33 H 2.932235 1.644829 3.968307 0
M  V30 34 H 5.139687 1.530728 1.475668 0
M  V30 35 H 7.534255 0.775586 1.221926 0
M  V30 36 H 9.002056 -1.707117 2.990944 0
M  V30 37 H 4.987338 -0.688444 5.209082 0
M  V30 38 H 0.730278 -0.141876 3.751255 0
M  V30 39 H -0.097777 -1.855754 2.258395 0
M  V30 40 H 1.653519 -2.174261 2.157934 0
M  V30 41 H 0.370330 -1.606763 -0.135773 0
M  V30 42 H 1.908913 -0.824348 0.198375 0
M  V30 43 H -1.677672 0.054972 0.842387 0
M  V30 44 H -1.231112 1.718925 0.502006 0
M  V30 45 H -4.091051 2.133783 -1.412028 0
M  V30 46 H -3.764326 1.119050 0.012419 0
M  V30 47 H -5.630077 0.639689 -2.074736 0
M  V30 48 H -5.399476 -0.311855 -0.606719 0
M  V30 49 H -3.146069 -3.083537 -3.581469 0
M  V30 50 H -3.028704 -5.374813 -2.895522 0
M  V30 51 H -3.954800 -6.127875 -0.805859 0
M  V30 52 H -5.199277 -2.197505 0.038274 0
M  V30 53 H -4.676633 0.003462 -3.997763 0
M  V30 54 H -3.359996 -1.171825 -4.152087 0
M  V30 55 H -3.181099 1.634957 -3.507075 0
M  V30 56 H -1.859087 0.473634 -3.710033 0
M  V30 57 H 1.395006 1.801784 1.839723 0
M  V30 58 H -0.225404 1.360874 2.381848 0
M  V30 END ATOM
M  V30 BEGIN BOND
M  V30 1 2 1 2
M  V30 2 1 2 3
M  V30 3 1 3 4
M  V30 4 2 4 5
M  V30 5 1 5 6
M  V30 6 2 6 7
M  V30 7 1 7 8
M  V30 8 1 7 9
M  V30 9 1 9 10
M  V30 10 2 9 11
M  V30 11 1 2 12
M  V30 12 1 12 13
M  V30 13 1 13 14
M  V30 14 1 14 15
M  V30 15 1 15 16
M  V30 16 1 16 17
M  V30 17 2 17 18
M  V30 18 1 17 19
M  V30 19 1 19 20
M  V30 20 1 20 21
M  V30 21 1 21 22
M  V30 22 1 22 23
M  V30 23 2 23 24
M  V30 24 1 24 25
M  V30 25 2 25 26
M  V30 26 1 26 27
M  V30 27 1 27 28
M  V30 28 2 27 29
M  V30 29 1 22 30
M  V30 30 1 30 31
M  V30 31 1 15 32
M  V30 32 1 11 4
M  V30 33 1 32 12
M  V30 34 1 31 19
M  V30 35 1 29 23
M  V30 36 1 3 33
M  V30 37 1 5 34
M  V30 38 1 6 35
M  V30 39 1 8 36
M  V30 40 1 11 37
M  V30 41 1 12 38 CFG=1
M  V30 42 1 13 39
M  V30 43 1 13 40
M  V30 44 1 14 41
M  V30 45 1 14 42
M  V30 46 1 16 43
M  V30 47 1 16 44
M  V30 48 1 20 45
M  V30 49 1 20 46
M  V30 50 1 21 47
M  V30 51 1 21 48
M  V30 52 1 24 49
M  V30 53 1 25 50
M  V30 54 1 26 51
M  V30 55 1 29 52
M  V30 56 1 30 53
M  V30 57 1 30 54
M  V30 58 1 31 55
M  V30 59 1 31 56
M  V30 60 1 32 57
M  V30 61 1 32 58
M  V30 END BOND
M  V30 END CTAB
M  END
>  <Dataset>  (839) 
ChEMBL_Kinases

>  <Ligand_Instance>  (839) 
nan

>  <PDB_ID>  (839) 
nan

>  <Standardized_SMILES>  (839) 
O=C(Nc1ccc(O)c(Cl)c1)[C@@H]1CCN(CC(=O)N2CCN(c3cccc(Cl)c3)CC2)C1

>  <Name>  (839) 
nan

>  <Pocket>  (839) 
nan

>  <ATP_Site>  (839) 
nan

>  <Peripheral>  (839) 
nan

>  <Num_H_Atoms_ProtBoundConf>  (839) 
nan

>  <Num_Resolved_Atoms>  (839) 
nan

>  <Num_Not_Resolved_Atoms>  (839) 
nan

$$$$
CHEMBL3356118
     RDKit          3D

  0  0  0  0  0  0  0  0  0  0999 V3000
M  V30 BEGIN CTAB
M  V30 COUNTS 63 66 0 0 0
M  V30 BEGIN ATOM
M  V30 1 C 1.576165 0.165968 6.521210 0
M  V30 2 C 1.779011 1.453076 5.808823 0
M  V30 3 O 1.648440 2.564920 6.421794 0
M  V30 4 C 2.131191 1.455970 4.395028 0
M  V30 5 C 2.283465 0.279613 3.693767 0
M  V30 6 C 2.616790 0.308486 2.358408 0
M  V30 7 C 2.816863 1.468459 1.644645 0
M  V30 8 N 3.168153 1.552444 0.271346 0
M  V30 9 C 3.243204 2.773887 -0.500933 0
M  V30 10 C 2.721411 2.590462 -1.928548 0
M  V30 11 N 1.813707 1.463714 -1.906813 0
M  V30 12 C 0.441835 1.781927 -2.091849 0
M  V30 13 O 0.469734 3.055133 -2.224806 0
M  V30 14 C -0.979541 1.409835 -2.208532 0
M  V30 15 N -1.227958 -0.003744 -2.086949 0
M  V30 16 C -0.964290 -0.415433 -0.730428 0
M  V30 17 C -2.298051 -0.170347 -0.061812 0
M  V30 18 C -3.242858 -0.770561 -1.102250 0 CFG=2
M  V30 19 C -3.346387 -2.232914 -0.989574 0
M  V30 20 O -3.022563 -3.015271 -1.938661 0
M  V30 21 N -3.802062 -2.928192 0.145107 0
M  V30 22 C -3.801199 -4.360681 -0.017153 0
M  V30 23 C -4.921347 -4.993728 -0.520612 0
M  V30 24 C -5.036760 -6.361056 -0.719685 0
M  V30 25 C -3.947898 -7.140454 -0.387923 0
M  V30 26 O -3.937037 -8.537046 -0.541717 0
M  V30 27 C -2.809819 -6.541684 0.118621 0
M  V30 28 Cl -1.383007 -7.489347 0.562127 0
M  V30 29 C -2.714446 -5.179011 0.309424 0
M  V30 30 C -2.577754 -0.383036 -2.382565 0
M  V30 31 C 2.510440 0.202341 -1.695639 0
M  V30 32 C 3.514964 0.424578 -0.566267 0
M  V30 33 C 2.658892 2.630994 2.367889 0
M  V30 34 C 2.324691 2.636743 3.709016 0
M  V30 35 H 2.373720 -0.529903 6.204900 0
M  V30 36 H 0.605501 -0.314091 6.232678 0
M  V30 37 H 1.668781 0.287675 7.623139 0
M  V30 38 H 2.142744 -0.679195 4.184281 0
M  V30 39 H 2.723119 -0.630984 1.854441 0
M  V30 40 H 2.754140 3.637123 -0.017982 0
M  V30 41 H 4.341405 3.029456 -0.533991 0
M  V30 42 H 2.291442 3.523257 -2.318616 0
M  V30 43 H 3.623152 2.288942 -2.540225 0
M  V30 44 H -1.346769 1.692994 -3.220334 0
M  V30 45 H -1.598101 1.993372 -1.472723 0
M  V30 46 H -0.179792 0.222684 -0.276133 0
M  V30 47 H -0.742693 -1.494867 -0.642614 0
M  V30 48 H -2.507144 0.875742 0.153493 0
M  V30 49 H -2.320106 -0.817262 0.849871 0
M  V30 50 H -4.225323 -0.251150 -0.951956 0
M  V30 51 H -4.098174 -2.364246 0.996664 0
M  V30 52 H -5.782052 -4.412483 -0.786802 0
M  V30 53 H -5.923754 -6.818313 -1.113250 0
M  V30 54 H -3.400439 -9.119186 0.105844 0
M  V30 55 H -1.850816 -4.655833 0.701546 0
M  V30 56 H -2.644252 -1.231586 -3.096611 0
M  V30 57 H -3.171381 0.463944 -2.830578 0
M  V30 58 H 1.806371 -0.616280 -1.459508 0
M  V30 59 H 3.068030 -0.022774 -2.635851 0
M  V30 60 H 3.547384 -0.503554 0.024182 0
M  V30 61 H 4.515436 0.646481 -1.033194 0
M  V30 62 H 2.774700 3.634491 1.988894 0
M  V30 63 H 2.193423 3.536931 4.306241 0
M  V30 END ATOM
M  V30 BEGIN BOND
M  V30 1 1 1 2
M  V30 2 2 2 3
M  V30 3 1 2 4
M  V30 4 2 4 5
M  V30 5 1 5 6
M  V30 6 2 6 7
M  V30 7 1 7 8
M  V30 8 1 8 9
M  V30 9 1 9 10
M  V30 10 1 10 11
M  V30 11 1 11 12
M  V30 12 2 12 13
M  V30 13 1 12 14
M  V30 14 1 14 15
M  V30 15 1 15 16
M  V30 16 1 16 17
M  V30 17 1 17 18
M  V30 18 1 18 19
M  V30 19 2 19 20
M  V30 20 1 19 21
M  V30 21 1 21 22
M  V30 22 2 22 23
M  V30 23 1 23 24
M  V30 24 2 24 25
M  V30 25 1 25 26
M  V30 26 1 25 27
M  V30 27 1 27 28
M  V30 28 2 27 29
M  V30 29 1 18 30
M  V30 30 1 11 31
M  V30 31 1 31 32
M  V30 32 1 7 33
M  V30 33 2 33 34
M  V30 34 1 34 4
M  V30 35 1 32 8
M  V30 36 1 30 15
M  V30 37 1 29 22
M  V30 38 1 1 35
M  V30 39 1 1 36
M  V30 40 1 1 37
M  V30 41 1 5 38
M  V30 42 1 6 39
M  V30 43 1 9 40
M  V30 44 1 9 41
M  V30 45 1 10 42
M  V30 46 1 10 43
M  V30 47 1 14 44
M  V30 48 1 14 45
M  V30 49 1 16 46
M  V30 50 1 16 47
M  V30 51 1 17 48
M  V30 52 1 17 49
M  V30 53 1 18 50 CFG=3
M  V30 54 1 21 51
M  V30 55 1 23 52
M  V30 56 1 24 53
M  V30 57 1 26 54
M  V30 58 1 29 55
M  V30 59 1 30 56
M  V30 60 1 30 57
M  V30 61 1 31 58
M  V30 62 1 31 59
M  V30 63 1 32 60
M  V30 64 1 32 61
M  V30 65 1 33 62
M  V30 66 1 34 63
M  V30 END BOND
M  V30 END CTAB
M  END
>  <Dataset>  (840) 
ChEMBL_Kinases

>  <Ligand_Instance>  (840) 
nan

>  <PDB_ID>  (840) 
nan

>  <Standardized_SMILES>  (840) 
CC(=O)c1ccc(N2CCN(C(=O)CN3CC[C@H](C(=O)Nc4ccc(O)c(Cl)c4)C3)CC2)cc1

>  <Name>  (840) 
nan

>  <Pocket>  (840) 
nan

>  <ATP_Site>  (840) 
nan

>  <Peripheral>  (840) 
nan

>  <Num_H_Atoms_ProtBoundConf>  (840) 
nan

>  <Num_Resolved_Atoms>  (840) 
nan

>  <Num_Not_Resolved_Atoms>  (840) 
nan

$$$$
CHEMBL3356117
     RDKit          3D

  0  0  0  0  0  0  0  0  0  0999 V3000
M  V30 BEGIN CTAB
M  V30 COUNTS 63 66 0 0 0
M  V30 BEGIN ATOM
M  V30 1 C 7.660904 2.215423 5.479772 0
M  V30 2 C 6.327665 1.825761 6.057611 0
M  V30 3 O 6.093790 1.963710 7.290378 0
M  V30 4 C 5.301141 1.283980 5.175859 0
M  V30 5 C 4.079409 0.924895 5.685085 0
M  V30 6 C 3.116361 0.413656 4.840036 0
M  V30 7 C 3.294430 0.229938 3.475776 0
M  V30 8 N 2.282949 -0.300763 2.626149 0
M  V30 9 C 2.682321 -0.382770 1.242289 0
M  V30 10 C 1.627778 -0.819856 0.286807 0
M  V30 11 N 0.370516 -0.948569 0.979462 0
M  V30 12 C -0.811770 -0.588172 0.232333 0
M  V30 13 O -0.391271 -0.222693 -0.916205 0
M  V30 14 C -2.198875 -0.656169 0.759335 0
M  V30 15 N -3.088495 -0.227951 -0.260587 0
M  V30 16 C -3.041355 1.148746 -0.625847 0
M  V30 17 C -4.149142 1.243636 -1.654287 0
M  V30 18 C -5.100971 0.096949 -1.315594 0 CFG=1
M  V30 19 C -5.134411 -0.931105 -2.388324 0
M  V30 20 O -6.244748 -1.162235 -2.930869 0
M  V30 21 N -4.027753 -1.652242 -2.832465 0
M  V30 22 C -3.915511 -2.642730 -3.826164 0
M  V30 23 C -4.914909 -3.140018 -4.618802 0
M  V30 24 C -4.770419 -4.107847 -5.581310 0
M  V30 25 C -3.527737 -4.646149 -5.793828 0
M  V30 26 O -3.369417 -5.624405 -6.763027 0
M  V30 27 C -2.485501 -4.186017 -5.027732 0
M  V30 28 Cl -0.887308 -4.840404 -5.262140 0
M  V30 29 C -2.688042 -3.213608 -4.076601 0
M  V30 30 C -4.472464 -0.503268 -0.077134 0
M  V30 31 C 0.112800 -1.397776 2.333326 0
M  V30 32 C 1.043557 -0.666746 3.270776 0
M  V30 33 C 4.558374 0.622526 3.063560 0
M  V30 34 C 5.555150 1.132430 3.833431 0
M  V30 35 H 7.490190 2.990931 4.710702 0
M  V30 36 H 8.115278 1.329324 4.957013 0
M  V30 37 H 8.343392 2.554562 6.264527 0
M  V30 38 H 3.908201 1.055812 6.744686 0
M  V30 39 H 2.170104 0.146473 5.296592 0
M  V30 40 H 3.055682 0.635238 0.929826 0
M  V30 41 H 3.525365 -1.109562 1.203670 0
M  V30 42 H 1.896599 -1.771215 -0.239766 0
M  V30 43 H 1.495342 -0.059245 -0.527384 0
M  V30 44 H -2.304408 -0.047050 1.694144 0
M  V30 45 H -2.504635 -1.682716 1.057890 0
M  V30 46 H -2.060574 1.442037 -1.054129 0
M  V30 47 H -3.306496 1.841016 0.203716 0
M  V30 48 H -4.656950 2.228710 -1.670264 0
M  V30 49 H -3.760370 1.039443 -2.692684 0
M  V30 50 H -6.117575 0.493998 -1.111161 0
M  V30 51 H -3.153660 -1.380120 -2.314625 0
M  V30 52 H -5.916660 -2.761408 -4.505026 0
M  V30 53 H -5.586138 -4.468737 -6.180895 0
M  V30 54 H -2.497144 -6.106627 -6.913351 0
M  V30 55 H -1.816777 -2.890925 -3.500098 0
M  V30 56 H -4.876371 -0.055291 0.853193 0
M  V30 57 H -4.606638 -1.606217 -0.049741 0
M  V30 58 H 0.397549 -2.472227 2.377336 0
M  V30 59 H -0.932019 -1.331198 2.619356 0
M  V30 60 H 0.520346 0.215474 3.652833 0
M  V30 61 H 1.331946 -1.321466 4.144170 0
M  V30 62 H 4.789367 0.511196 1.992064 0
M  V30 63 H 6.514541 1.407064 3.396630 0
M  V30 END ATOM
M  V30 BEGIN BOND
M  V30 1 1 1 2
M  V30 2 2 2 3
M  V30 3 1 2 4
M  V30 4 2 4 5
M  V30 5 1 5 6
M  V30 6 2 6 7
M  V30 7 1 7 8
M  V30 8 1 8 9
M  V30 9 1 9 10
M  V30 10 1 10 11
M  V30 11 1 11 12
M  V30 12 2 12 13
M  V30 13 1 12 14
M  V30 14 1 14 15
M  V30 15 1 15 16
M  V30 16 1 16 17
M  V30 17 1 17 18
M  V30 18 1 18 19
M  V30 19 2 19 20
M  V30 20 1 19 21
M  V30 21 1 21 22
M  V30 22 2 22 23
M  V30 23 1 23 24
M  V30 24 2 24 25
M  V30 25 1 25 26
M  V30 26 1 25 27
M  V30 27 1 27 28
M  V30 28 2 27 29
M  V30 29 1 18 30
M  V30 30 1 11 31
M  V30 31 1 31 32
M  V30 32 1 7 33
M  V30 33 2 33 34
M  V30 34 1 34 4
M  V30 35 1 32 8
M  V30 36 1 30 15
M  V30 37 1 29 22
M  V30 38 1 1 35
M  V30 39 1 1 36
M  V30 40 1 1 37
M  V30 41 1 5 38
M  V30 42 1 6 39
M  V30 43 1 9 40
M  V30 44 1 9 41
M  V30 45 1 10 42
M  V30 46 1 10 43
M  V30 47 1 14 44
M  V30 48 1 14 45
M  V30 49 1 16 46
M  V30 50 1 16 47
M  V30 51 1 17 48
M  V30 52 1 17 49
M  V30 53 1 18 50 CFG=1
M  V30 54 1 21 51
M  V30 55 1 23 52
M  V30 56 1 24 53
M  V30 57 1 26 54
M  V30 58 1 29 55
M  V30 59 1 30 56
M  V30 60 1 30 57
M  V30 61 1 31 58
M  V30 62 1 31 59
M  V30 63 1 32 60
M  V30 64 1 32 61
M  V30 65 1 33 62
M  V30 66 1 34 63
M  V30 END BOND
M  V30 END CTAB
M  END
>  <Dataset>  (841) 
ChEMBL_Kinases

>  <Ligand_Instance>  (841) 
nan

>  <PDB_ID>  (841) 
nan

>  <Standardized_SMILES>  (841) 
CC(=O)c1ccc(N2CCN(C(=O)CN3CC[C@@H](C(=O)Nc4ccc(O)c(Cl)c4)C3)CC2)cc1

>  <Name>  (841) 
nan

>  <Pocket>  (841) 
nan

>  <ATP_Site>  (841) 
nan

>  <Peripheral>  (841) 
nan

>  <Num_H_Atoms_ProtBoundConf>  (841) 
nan

>  <Num_Resolved_Atoms>  (841) 
nan

>  <Num_Not_Resolved_Atoms>  (841) 
nan

$$$$
CHEMBL3356116
     RDKit          3D

  0  0  0  0  0  0  0  0  0  0999 V3000
M  V30 BEGIN CTAB
M  V30 COUNTS 58 61 0 0 0
M  V30 BEGIN ATOM
M  V30 1 O 3.081840 2.269347 2.234405 0
M  V30 2 C 2.295961 1.334490 1.948708 0
M  V30 3 N 2.820735 0.081621 1.574577 0
M  V30 4 C 4.161440 -0.322345 1.460555 0
M  V30 5 C 5.269040 0.420935 1.689496 0
M  V30 6 C 6.548909 -0.056513 1.553525 0
M  V30 7 C 6.787586 -1.342875 1.169313 0
M  V30 8 O 8.078244 -1.828896 1.030869 0
M  V30 9 C 5.680105 -2.122829 0.929353 0
M  V30 10 C 4.401997 -1.625730 1.071213 0
M  V30 11 C 0.872477 1.687277 2.047023 0
M  V30 12 C 0.714693 3.126987 2.481181 0
M  V30 13 C -0.256856 3.754866 1.520228 0
M  V30 14 N -0.834986 2.674505 0.730202 0
M  V30 15 C -2.038570 2.163875 1.325275 0
M  V30 16 C -2.710611 1.090359 0.612479 0
M  V30 17 O -3.747633 0.768075 1.291332 0
M  V30 18 N -2.830018 0.189719 -0.460730 0
M  V30 19 C -4.031329 -0.569651 -0.182322 0
M  V30 20 C -4.280921 -1.574010 -1.288229 0
M  V30 21 N -3.067072 -2.365037 -1.383827 0
M  V30 22 C -2.919416 -3.742509 -1.064779 0
M  V30 23 C -1.745511 -4.441132 -1.234066 0
M  V30 24 C -1.650710 -5.774263 -0.908582 0
M  V30 25 C -2.707320 -6.488937 -0.399392 0
M  V30 26 C -3.892488 -5.806733 -0.222377 0
M  V30 27 Cl -5.240854 -6.714952 0.426330 0
M  V30 28 C -3.969875 -4.470537 -0.553890 0
M  V30 29 C -1.922379 -1.605110 -1.861583 0
M  V30 30 C -2.100297 -0.124622 -1.664340 0
M  V30 31 C 0.237848 1.716453 0.679726 0
M  V30 32 H 2.036614 -0.583368 1.369891 0
M  V30 33 H 5.182789 1.428042 1.990779 0
M  V30 34 H 7.430789 0.570626 1.746512 0
M  V30 35 H 8.719302 -1.372733 0.384521 0
M  V30 36 H 5.776427 -3.153224 0.620996 0
M  V30 37 H 3.551882 -2.296860 0.865326 0
M  V30 38 H 0.313632 1.041600 2.756392 0
M  V30 39 H 1.709792 3.632422 2.436663 0
M  V30 40 H 0.328732 3.243236 3.508304 0
M  V30 41 H 0.311378 4.408038 0.827150 0
M  V30 42 H -1.024079 4.360155 2.043563 0
M  V30 43 H -1.762516 1.855671 2.355668 0
M  V30 44 H -2.736700 3.025959 1.434979 0
M  V30 45 H -4.920779 0.098656 -0.071370 0
M  V30 46 H -3.832351 -1.167980 0.751616 0
M  V30 47 H -5.171240 -2.158117 -1.041148 0
M  V30 48 H -4.414836 -0.998863 -2.242825 0
M  V30 49 H -0.879600 -3.964948 -1.623615 0
M  V30 50 H -0.705092 -6.291222 -1.057052 0
M  V30 51 H -2.557793 -7.531850 -0.167497 0
M  V30 52 H -4.944721 -4.053721 -0.369604 0
M  V30 53 H -1.786241 -1.871445 -2.928588 0
M  V30 54 H -1.026043 -1.970958 -1.317653 0
M  V30 55 H -2.703279 0.233007 -2.527923 0
M  V30 56 H -1.110749 0.352805 -1.744459 0
M  V30 57 H -0.037169 0.708255 0.363475 0
M  V30 58 H 0.992428 2.117141 -0.028504 0
M  V30 END ATOM
M  V30 BEGIN BOND
M  V30 1 2 1 2
M  V30 2 1 2 3
M  V30 3 1 3 4
M  V30 4 2 4 5
M  V30 5 1 5 6
M  V30 6 2 6 7
M  V30 7 1 7 8
M  V30 8 1 7 9
M  V30 9 2 9 10
M  V30 10 1 2 11
M  V30 11 1 11 12
M  V30 12 1 12 13
M  V30 13 1 13 14
M  V30 14 1 14 15
M  V30 15 1 15 16
M  V30 16 2 16 17
M  V30 17 1 16 18
M  V30 18 1 18 19
M  V30 19 1 19 20
M  V30 20 1 20 21
M  V30 21 1 21 22
M  V30 22 2 22 23
M  V30 23 1 23 24
M  V30 24 2 24 25
M  V30 25 1 25 26
M  V30 26 1 26 27
M  V30 27 2 26 28
M  V30 28 1 21 29
M  V30 29 1 29 30
M  V30 30 1 14 31
M  V30 31 1 10 4
M  V30 32 1 31 11
M  V30 33 1 30 18
M  V30 34 1 28 22
M  V30 35 1 3 32
M  V30 36 1 5 33
M  V30 37 1 6 34
M  V30 38 1 8 35
M  V30 39 1 9 36
M  V30 40 1 10 37
M  V30 41 1 11 38
M  V30 42 1 12 39
M  V30 43 1 12 40
M  V30 44 1 13 41
M  V30 45 1 13 42
M  V30 46 1 15 43
M  V30 47 1 15 44
M  V30 48 1 19 45
M  V30 49 1 19 46
M  V30 50 1 20 47
M  V30 51 1 20 48
M  V30 52 1 23 49
M  V30 53 1 24 50
M  V30 54 1 25 51
M  V30 55 1 28 52
M  V30 56 1 29 53
M  V30 57 1 29 54
M  V30 58 1 30 55
M  V30 59 1 30 56
M  V30 60 1 31 57
M  V30 61 1 31 58
M  V30 END BOND
M  V30 END CTAB
M  END
>  <Dataset>  (842) 
ChEMBL_Kinases

>  <Ligand_Instance>  (842) 
nan

>  <PDB_ID>  (842) 
nan

>  <Standardized_SMILES>  (842) 
O=C(Nc1ccc(O)cc1)C1CCN(CC(=O)N2CCN(c3cccc(Cl)c3)CC2)C1

>  <Name>  (842) 
nan

>  <Pocket>  (842) 
nan

>  <ATP_Site>  (842) 
nan

>  <Peripheral>  (842) 
nan

>  <Num_H_Atoms_ProtBoundConf>  (842) 
nan

>  <Num_Resolved_Atoms>  (842) 
nan

>  <Num_Not_Resolved_Atoms>  (842) 
nan

$$$$
CHEMBL3356115
     RDKit          3D

  0  0  0  0  0  0  0  0  0  0999 V3000
M  V30 BEGIN CTAB
M  V30 COUNTS 63 66 0 0 0
M  V30 BEGIN ATOM
M  V30 1 C 4.159122 4.608048 7.520067 0
M  V30 2 C 4.007572 5.101436 6.127361 0
M  V30 3 O 4.183379 6.356612 5.982035 0
M  V30 4 C 3.680151 4.205586 5.012276 0
M  V30 5 C 3.494696 2.845291 5.149314 0
M  V30 6 C 3.186885 2.080483 4.038127 0
M  V30 7 C 3.057365 2.638130 2.783316 0
M  V30 8 N 2.727339 1.796413 1.659800 0
M  V30 9 C 2.803774 2.487599 0.363241 0
M  V30 10 C 2.528661 1.409364 -0.684433 0
M  V30 11 N 1.334235 0.676824 -0.350064 0
M  V30 12 C 0.151040 0.691237 -1.123151 0
M  V30 13 O -0.691157 0.916934 -2.009516 0
M  V30 14 C -1.042418 -0.077562 -0.671230 0
M  V30 15 N -2.161829 0.001088 -1.569284 0
M  V30 16 C -3.300537 -0.592520 -0.852729 0
M  V30 17 C -2.908725 -2.050928 -0.775733 0
M  V30 18 C -2.114553 -2.305693 -2.049171 0
M  V30 19 C -2.864747 -3.229366 -2.950167 0
M  V30 20 O -3.351483 -3.186006 -4.107374 0
M  V30 21 N -3.013237 -4.452735 -2.195904 0
M  V30 22 C -3.643287 -5.686526 -2.521638 0
M  V30 23 C -4.984588 -5.794955 -2.169096 0
M  V30 24 C -5.704237 -6.943528 -2.429634 0
M  V30 25 C -5.116403 -8.024853 -3.049691 0
M  V30 26 O -5.736506 -9.249788 -3.371016 0
M  V30 27 C -3.767130 -7.959274 -3.422547 0
M  V30 28 Cl -2.905819 -9.262241 -4.218530 0
M  V30 29 C -3.107749 -6.793196 -3.136732 0
M  V30 30 C -2.080658 -0.938729 -2.680570 0
M  V30 31 C 1.364346 -0.112328 0.833731 0
M  V30 32 C 2.356310 0.410402 1.801177 0
M  V30 33 C 3.246417 3.996620 2.667952 0
M  V30 34 C 3.559338 4.815473 3.760119 0
M  V30 35 H 4.641726 3.612354 7.480239 0
M  V30 36 H 3.166532 4.484327 8.017685 0
M  V30 37 H 4.827029 5.247336 8.121080 0
M  V30 38 H 3.608606 2.470357 6.149968 0
M  V30 39 H 3.075979 1.048406 4.286373 0
M  V30 40 H 2.055524 3.295153 0.322129 0
M  V30 41 H 3.811138 2.926326 0.277133 0
M  V30 42 H 2.507631 1.850759 -1.697095 0
M  V30 43 H 3.427416 0.737926 -0.641325 0
M  V30 44 H -1.353907 0.325558 0.311485 0
M  V30 45 H -0.710622 -1.121432 -0.489036 0
M  V30 46 H -3.454314 -0.151920 0.141569 0
M  V30 47 H -4.210369 -0.530364 -1.481595 0
M  V30 48 H -3.814026 -2.709509 -0.735680 0
M  V30 49 H -2.315233 -2.192571 0.142401 0
M  V30 50 H -1.126505 -2.655711 -1.765731 0
M  V30 51 H -2.697856 -4.740551 -1.232074 0
M  V30 52 H -5.501812 -4.967529 -1.673548 0
M  V30 53 H -6.743460 -7.073040 -2.175666 0
M  V30 54 H -5.954120 -9.949395 -2.652835 0
M  V30 55 H -2.046278 -6.663356 -3.396883 0
M  V30 56 H -3.075630 -0.820168 -3.205572 0
M  V30 57 H -1.258364 -0.788802 -3.368049 0
M  V30 58 H 0.375709 -0.206865 1.333338 0
M  V30 59 H 1.663338 -1.177920 0.609902 0
M  V30 60 H 1.948238 0.300116 2.849779 0
M  V30 61 H 3.304488 -0.176530 1.809026 0
M  V30 62 H 3.149271 4.441099 1.699484 0
M  V30 63 H 3.698841 5.876069 3.623484 0
M  V30 END ATOM
M  V30 BEGIN BOND
M  V30 1 1 1 2
M  V30 2 2 2 3
M  V30 3 1 2 4
M  V30 4 2 4 5
M  V30 5 1 5 6
M  V30 6 2 6 7
M  V30 7 1 7 8
M  V30 8 1 8 9
M  V30 9 1 9 10
M  V30 10 1 10 11
M  V30 11 1 11 12
M  V30 12 2 12 13
M  V30 13 1 12 14
M  V30 14 1 14 15
M  V30 15 1 15 16
M  V30 16 1 16 17
M  V30 17 1 17 18
M  V30 18 1 18 19
M  V30 19 2 19 20
M  V30 20 1 19 21
M  V30 21 1 21 22
M  V30 22 2 22 23
M  V30 23 1 23 24
M  V30 24 2 24 25
M  V30 25 1 25 26
M  V30 26 1 25 27
M  V30 27 1 27 28
M  V30 28 2 27 29
M  V30 29 1 18 30
M  V30 30 1 11 31
M  V30 31 1 31 32
M  V30 32 1 7 33
M  V30 33 2 33 34
M  V30 34 1 34 4
M  V30 35 1 32 8
M  V30 36 1 30 15
M  V30 37 1 29 22
M  V30 38 1 1 35
M  V30 39 1 1 36
M  V30 40 1 1 37
M  V30 41 1 5 38
M  V30 42 1 6 39
M  V30 43 1 9 40
M  V30 44 1 9 41
M  V30 45 1 10 42
M  V30 46 1 10 43
M  V30 47 1 14 44
M  V30 48 1 14 45
M  V30 49 1 16 46
M  V30 50 1 16 47
M  V30 51 1 17 48
M  V30 52 1 17 49
M  V30 53 1 18 50
M  V30 54 1 21 51
M  V30 55 1 23 52
M  V30 56 1 24 53
M  V30 57 1 26 54
M  V30 58 1 29 55
M  V30 59 1 30 56
M  V30 60 1 30 57
M  V30 61 1 31 58
M  V30 62 1 31 59
M  V30 63 1 32 60
M  V30 64 1 32 61
M  V30 65 1 33 62
M  V30 66 1 34 63
M  V30 END BOND
M  V30 END CTAB
M  END
>  <Dataset>  (843) 
ChEMBL_Kinases

>  <Ligand_Instance>  (843) 
nan

>  <PDB_ID>  (843) 
nan

>  <Standardized_SMILES>  (843) 
CC(=O)c1ccc(N2CCN(C(=O)CN3CCC(C(=O)Nc4ccc(O)c(Cl)c4)C3)CC2)cc1

>  <Name>  (843) 
nan

>  <Pocket>  (843) 
nan

>  <ATP_Site>  (843) 
nan

>  <Peripheral>  (843) 
nan

>  <Num_H_Atoms_ProtBoundConf>  (843) 
nan

>  <Num_Resolved_Atoms>  (843) 
nan

>  <Num_Not_Resolved_Atoms>  (843) 
nan

$$$$
CHEMBL3356114
     RDKit          3D

  0  0  0  0  0  0  0  0  0  0999 V3000
M  V30 BEGIN CTAB
M  V30 COUNTS 63 66 0 0 0
M  V30 BEGIN ATOM
M  V30 1 C 1.192258 -0.338781 7.598724 0
M  V30 2 C 0.966696 0.860371 6.752691 0
M  V30 3 O 0.275268 1.732447 7.359505 0
M  V30 4 C 1.472178 1.024524 5.394784 0
M  V30 5 C 2.224515 0.092365 4.712389 0
M  V30 6 C 2.670150 0.313556 3.427962 0
M  V30 7 C 2.390249 1.479565 2.750358 0
M  V30 8 N 2.832205 1.732929 1.426305 0
M  V30 9 C 2.703766 2.919251 0.641982 0
M  V30 10 C 1.866602 2.718708 -0.598878 0
M  V30 11 N 1.656924 1.295338 -0.854165 0
M  V30 12 C 0.454407 0.535389 -1.105134 0
M  V30 13 O 0.629909 -0.698914 -1.281023 0
M  V30 14 C -0.678787 1.469095 -1.081380 0
M  V30 15 N -1.962763 0.900934 -1.311497 0
M  V30 16 C -2.429194 0.040451 -0.269363 0
M  V30 17 C -3.724767 -0.493721 -0.839137 0
M  V30 18 C -3.464696 -0.494499 -2.342958 0
M  V30 19 C -3.582862 -1.879474 -2.810387 0
M  V30 20 O -4.433819 -2.250446 -3.689916 0
M  V30 21 N -2.712086 -2.833228 -2.255393 0
M  V30 22 C -2.477395 -4.226612 -2.398994 0
M  V30 23 C -3.210432 -5.067558 -1.553179 0
M  V30 24 C -3.138241 -6.455705 -1.523518 0
M  V30 25 C -2.254912 -6.998648 -2.423000 0
M  V30 26 O -2.134141 -8.396182 -2.443968 0
M  V30 27 C -1.493782 -6.229888 -3.292996 0
M  V30 28 C -1.609761 -4.858808 -3.274851 0
M  V30 29 C -2.106307 0.117102 -2.498589 0
M  V30 30 C 2.979266 0.696711 -0.817372 0
M  V30 31 C 3.518192 0.825060 0.565039 0
M  V30 32 C 1.638675 2.418768 3.423195 0
M  V30 33 C 1.183858 2.197389 4.728425 0
M  V30 34 H 1.580995 -1.194713 7.017480 0
M  V30 35 H 1.935570 -0.132325 8.409191 0
M  V30 36 H 0.225152 -0.704818 8.041140 0
M  V30 37 H 2.461138 -0.832807 5.217745 0
M  V30 38 H 3.251506 -0.479469 2.984364 0
M  V30 39 H 3.711761 3.343514 0.389482 0
M  V30 40 H 2.208756 3.708979 1.238925 0
M  V30 41 H 2.446581 3.109947 -1.458126 0
M  V30 42 H 0.913251 3.275354 -0.564273 0
M  V30 43 H -0.742875 2.046708 -0.131089 0
M  V30 44 H -0.509214 2.250453 -1.875368 0
M  V30 45 H -2.622063 0.579064 0.683151 0
M  V30 46 H -1.757099 -0.804596 -0.080498 0
M  V30 47 H -4.541542 0.199273 -0.577387 0
M  V30 48 H -3.960215 -1.506273 -0.457386 0
M  V30 49 H -4.252398 0.097742 -2.813624 0
M  V30 50 H -1.970482 -2.692093 -1.536911 0
M  V30 51 H -3.916738 -4.622371 -0.833766 0
M  V30 52 H -3.739101 -7.014411 -0.841899 0
M  V30 53 H -2.900712 -9.020614 -2.207057 0
M  V30 54 H -0.800123 -6.683615 -3.997405 0
M  V30 55 H -1.056781 -4.191166 -3.914987 0
M  V30 56 H -2.165558 0.808288 -3.364675 0
M  V30 57 H -1.303381 -0.616992 -2.577913 0
M  V30 58 H 2.851994 -0.385299 -1.096143 0
M  V30 59 H 3.674313 1.196071 -1.538213 0
M  V30 60 H 3.526528 -0.203033 1.016480 0
M  V30 61 H 4.622116 1.074946 0.493588 0
M  V30 62 H 1.346826 3.362898 3.025736 0
M  V30 63 H 0.585158 2.951299 5.254068 0
M  V30 END ATOM
M  V30 BEGIN BOND
M  V30 1 1 1 2
M  V30 2 2 2 3
M  V30 3 1 2 4
M  V30 4 2 4 5
M  V30 5 1 5 6
M  V30 6 2 6 7
M  V30 7 1 7 8
M  V30 8 1 8 9
M  V30 9 1 9 10
M  V30 10 1 10 11
M  V30 11 1 11 12
M  V30 12 2 12 13
M  V30 13 1 12 14
M  V30 14 1 14 15
M  V30 15 1 15 16
M  V30 16 1 16 17
M  V30 17 1 17 18
M  V30 18 1 18 19
M  V30 19 2 19 20
M  V30 20 1 19 21
M  V30 21 1 21 22
M  V30 22 2 22 23
M  V30 23 1 23 24
M  V30 24 2 24 25
M  V30 25 1 25 26
M  V30 26 1 25 27
M  V30 27 2 27 28
M  V30 28 1 18 29
M  V30 29 1 11 30
M  V30 30 1 30 31
M  V30 31 1 7 32
M  V30 32 2 32 33
M  V30 33 1 33 4
M  V30 34 1 31 8
M  V30 35 1 29 15
M  V30 36 1 28 22
M  V30 37 1 1 34
M  V30 38 1 1 35
M  V30 39 1 1 36
M  V30 40 1 5 37
M  V30 41 1 6 38
M  V30 42 1 9 39
M  V30 43 1 9 40
M  V30 44 1 10 41
M  V30 45 1 10 42
M  V30 46 1 14 43
M  V30 47 1 14 44
M  V30 48 1 16 45
M  V30 49 1 16 46
M  V30 50 1 17 47
M  V30 51 1 17 48
M  V30 52 1 18 49
M  V30 53 1 21 50
M  V30 54 1 23 51
M  V30 55 1 24 52
M  V30 56 1 26 53
M  V30 57 1 27 54
M  V30 58 1 28 55
M  V30 59 1 29 56
M  V30 60 1 29 57
M  V30 61 1 30 58
M  V30 62 1 30 59
M  V30 63 1 31 60
M  V30 64 1 31 61
M  V30 65 1 32 62
M  V30 66 1 33 63
M  V30 END BOND
M  V30 END CTAB
M  END
>  <Dataset>  (844) 
ChEMBL_Kinases

>  <Ligand_Instance>  (844) 
nan

>  <PDB_ID>  (844) 
nan

>  <Standardized_SMILES>  (844) 
CC(=O)c1ccc(N2CCN(C(=O)CN3CCC(C(=O)Nc4ccc(O)cc4)C3)CC2)cc1

>  <Name>  (844) 
nan

>  <Pocket>  (844) 
nan

>  <ATP_Site>  (844) 
nan

>  <Peripheral>  (844) 
nan

>  <Num_H_Atoms_ProtBoundConf>  (844) 
nan

>  <Num_Resolved_Atoms>  (844) 
nan

>  <Num_Not_Resolved_Atoms>  (844) 
nan

$$$$
CHEMBL3356086
     RDKit          3D

  0  0  0  0  0  0  0  0  0  0999 V3000
M  V30 BEGIN CTAB
M  V30 COUNTS 36 39 0 0 0
M  V30 BEGIN ATOM
M  V30 1 O 3.472459 -4.307890 3.113433 0
M  V30 2 C 2.249532 -4.148263 2.776988 0
M  V30 3 C 1.962321 -2.890487 2.046986 0
M  V30 4 N 0.574303 -2.830818 1.755497 0
M  V30 5 C -0.351977 -3.851126 2.109393 0
M  V30 6 N -0.003858 -4.926999 2.743060 0
M  V30 7 N 1.319326 -5.166807 3.129206 0
M  V30 8 C -1.810474 -3.848301 1.821044 0
M  V30 9 O -2.178190 -2.665805 1.153554 0
M  V30 10 C -1.304048 -1.655604 0.795046 0
M  V30 11 C -1.802767 -0.574107 0.141960 0
M  V30 12 C -0.934502 0.434932 -0.216937 0
M  V30 13 C 0.412165 0.449313 0.028815 0
M  V30 14 N 1.317104 1.479344 -0.323848 0
M  V30 15 C 1.141271 2.740589 -0.969608 0
M  V30 16 C 0.493938 2.742500 -2.306814 0
M  V30 17 C -0.502820 3.750932 -1.825711 0
M  V30 18 C 0.093061 3.675919 -0.450575 0
M  V30 19 C 0.855103 -0.675486 0.693574 0
M  V30 20 C 0.042439 -1.716223 1.079129 0
M  V30 21 H 2.403910 -2.004184 2.518052 0
M  V30 22 H 2.489069 -3.006769 1.054065 0
M  V30 23 H 1.635531 -6.020078 3.639667 0
M  V30 24 H -2.114844 -4.723169 1.212803 0
M  V30 25 H -2.412027 -3.861712 2.770832 0
M  V30 26 H -2.861467 -0.525559 -0.081972 0
M  V30 27 H -1.392613 1.252709 -0.733123 0
M  V30 28 H 2.330292 1.266533 -0.052843 0
M  V30 29 H 2.120369 3.301756 -1.007053 0
M  V30 30 H -0.016219 1.792405 -2.588603 0
M  V30 31 H 1.125448 3.116753 -3.149690 0
M  V30 32 H -0.326671 4.743570 -2.342928 0
M  V30 33 H -1.568307 3.436383 -1.895373 0
M  V30 34 H 0.487569 4.652512 -0.064743 0
M  V30 35 H -0.651036 3.225849 0.269189 0
M  V30 36 H 1.920276 -0.789480 0.952511 0
M  V30 END ATOM
M  V30 BEGIN BOND
M  V30 1 2 1 2
M  V30 2 1 2 3
M  V30 3 1 3 4
M  V30 4 1 4 5
M  V30 5 2 5 6
M  V30 6 1 6 7
M  V30 7 1 5 8
M  V30 8 1 8 9
M  V30 9 1 9 10
M  V30 10 2 10 11
M  V30 11 1 11 12
M  V30 12 2 12 13
M  V30 13 1 13 14
M  V30 14 1 14 15
M  V30 15 1 15 16
M  V30 16 1 16 17
M  V30 17 1 17 18
M  V30 18 1 13 19
M  V30 19 2 19 20
M  V30 20 1 7 2
M  V30 21 1 20 10
M  V30 22 1 20 4
M  V30 23 1 18 15
M  V30 24 1 3 21
M  V30 25 1 3 22
M  V30 26 1 7 23
M  V30 27 1 8 24
M  V30 28 1 8 25
M  V30 29 1 11 26
M  V30 30 1 12 27
M  V30 31 1 14 28
M  V30 32 1 15 29
M  V30 33 1 16 30
M  V30 34 1 16 31
M  V30 35 1 17 32
M  V30 36 1 17 33
M  V30 37 1 18 34
M  V30 38 1 18 35
M  V30 39 1 19 36
M  V30 END BOND
M  V30 END CTAB
M  END
>  <Dataset>  (845) 
ChEMBL_Kinases

>  <Ligand_Instance>  (845) 
nan

>  <PDB_ID>  (845) 
nan

>  <Standardized_SMILES>  (845) 
O=C1CN2C(=NN1)COc1ccc(NC3CCC3)cc12

>  <Name>  (845) 
nan

>  <Pocket>  (845) 
nan

>  <ATP_Site>  (845) 
nan

>  <Peripheral>  (845) 
nan

>  <Num_H_Atoms_ProtBoundConf>  (845) 
nan

>  <Num_Resolved_Atoms>  (845) 
nan

>  <Num_Not_Resolved_Atoms>  (845) 
nan

$$$$
CHEMBL3356084
     RDKit          3D

  0  0  0  0  0  0  0  0  0  0999 V3000
M  V30 BEGIN CTAB
M  V30 COUNTS 35 37 0 0 0
M  V30 BEGIN ATOM
M  V30 1 C -0.718596 -3.531939 2.378118 0
M  V30 2 N -0.791656 -4.021086 1.013265 0
M  V30 3 C -0.921594 -5.441825 1.072357 0
M  V30 4 C 0.361957 -3.590335 0.250982 0
M  V30 5 C 0.405240 -2.108757 0.230712 0
M  V30 6 C 1.081090 -1.389565 1.208526 0
M  V30 7 C 1.164976 -0.012688 1.255550 0
M  V30 8 C 0.537403 0.717463 0.266868 0
M  V30 9 C -0.158133 0.044223 -0.743287 0
M  V30 10 C -0.218484 -1.345387 -0.754080 0
M  V30 11 O -0.789943 0.769336 -1.738055 0
M  V30 12 C -0.551516 2.152532 -1.962559 0
M  V30 13 C -0.054111 2.841429 -0.747999 0
M  V30 14 N -0.253099 4.131729 -0.674412 0
M  V30 15 N 0.159701 4.892430 0.401069 0
M  V30 16 C 0.820396 4.251948 1.458549 0
M  V30 17 O 1.005585 4.839562 2.553828 0
M  V30 18 C 1.328889 2.860761 1.336999 0
M  V30 19 N 0.613272 2.136081 0.299352 0
M  V30 20 H -0.780744 -2.429531 2.445104 0
M  V30 21 H -1.600345 -3.913991 2.932037 0
M  V30 22 H 0.181455 -3.969323 2.836308 0
M  V30 23 H -0.998536 -5.892238 0.061374 0
M  V30 24 H -1.858269 -5.689932 1.594302 0
M  V30 25 H -0.105528 -5.890803 1.672861 0
M  V30 26 H 0.238239 -3.955862 -0.787715 0
M  V30 27 H 1.283976 -3.938770 0.732565 0
M  V30 28 H 1.563502 -1.963054 1.969216 0
M  V30 29 H 1.715301 0.458731 2.058328 0
M  V30 30 H -0.758483 -1.851308 -1.539320 0
M  V30 31 H -1.541785 2.593870 -2.202686 0
M  V30 32 H 0.102884 2.301050 -2.836222 0
M  V30 33 H -0.022200 5.923183 0.415248 0
M  V30 34 H 1.036723 2.365827 2.309034 0
M  V30 35 H 2.416596 2.784786 1.263071 0
M  V30 END ATOM
M  V30 BEGIN BOND
M  V30 1 1 1 2
M  V30 2 1 2 3
M  V30 3 1 2 4
M  V30 4 1 4 5
M  V30 5 2 5 6
M  V30 6 1 6 7
M  V30 7 2 7 8
M  V30 8 1 8 9
M  V30 9 2 9 10
M  V30 10 1 9 11
M  V30 11 1 11 12
M  V30 12 1 12 13
M  V30 13 2 13 14
M  V30 14 1 14 15
M  V30 15 1 15 16
M  V30 16 2 16 17
M  V30 17 1 16 18
M  V30 18 1 18 19
M  V30 19 1 10 5
M  V30 20 1 19 13
M  V30 21 1 19 8
M  V30 22 1 1 20
M  V30 23 1 1 21
M  V30 24 1 1 22
M  V30 25 1 3 23
M  V30 26 1 3 24
M  V30 27 1 3 25
M  V30 28 1 4 26
M  V30 29 1 4 27
M  V30 30 1 6 28
M  V30 31 1 7 29
M  V30 32 1 10 30
M  V30 33 1 12 31
M  V30 34 1 12 32
M  V30 35 1 15 33
M  V30 36 1 18 34
M  V30 37 1 18 35
M  V30 END BOND
M  V30 END CTAB
M  END
>  <Dataset>  (846) 
ChEMBL_Kinases

>  <Ligand_Instance>  (846) 
nan

>  <PDB_ID>  (846) 
nan

>  <Standardized_SMILES>  (846) 
CN(C)Cc1ccc2c(c1)OCC1=NNC(=O)CN12

>  <Name>  (846) 
nan

>  <Pocket>  (846) 
nan

>  <ATP_Site>  (846) 
nan

>  <Peripheral>  (846) 
nan

>  <Num_H_Atoms_ProtBoundConf>  (846) 
nan

>  <Num_Resolved_Atoms>  (846) 
nan

>  <Num_Not_Resolved_Atoms>  (846) 
nan

$$$$
CHEMBL3356061
     RDKit          3D

  0  0  0  0  0  0  0  0  0  0999 V3000
M  V30 BEGIN CTAB
M  V30 COUNTS 41 44 0 0 0
M  V30 BEGIN ATOM
M  V30 1 C 1.254300 -7.679067 2.062730 0
M  V30 2 C 1.620447 -6.313375 2.552747 0
M  V30 3 N 2.145726 -5.904833 3.726945 0
M  V30 4 N 2.304278 -4.590819 3.719603 0
M  V30 5 C 1.892934 -4.072076 2.545284 0
M  V30 6 N 1.860757 -2.807564 2.081547 0
M  V30 7 C 1.389908 -2.556193 0.841375 0
M  V30 8 C 1.337184 -1.202073 0.299627 0
M  V30 9 C 0.877604 -0.834546 -0.947999 0
M  V30 10 C 0.877605 0.485384 -1.349083 0
M  V30 11 C 1.339457 1.498760 -0.515455 0
M  V30 12 N 1.273682 2.804102 -1.074750 0
M  V30 13 S 0.651670 4.053039 -0.046920 0
M  V30 14 O 0.722594 5.374470 -0.763795 0
M  V30 15 O 1.477347 4.203037 1.203963 0
M  V30 16 C -0.994768 3.696303 0.407641 0
M  V30 17 C -1.480784 3.517547 1.685644 0
M  V30 18 C -2.814508 3.238268 1.902567 0
M  V30 19 F -3.225841 3.073789 3.189474 0
M  V30 20 C -3.649262 3.142285 0.810922 0
M  V30 21 C -3.222183 3.310631 -0.487569 0
M  V30 22 C -1.866739 3.592672 -0.680215 0
M  V30 23 F -1.477590 3.753802 -1.983814 0
M  V30 24 C 1.799438 1.138728 0.730887 0
M  V30 25 C 1.788289 -0.166614 1.099983 0
M  V30 26 C 0.960965 -3.647799 0.112823 0
M  V30 27 N 0.992320 -4.913266 0.574812 0
M  V30 28 C 1.460807 -5.158534 1.807294 0
M  V30 29 H 0.148023 -7.852896 2.200924 0
M  V30 30 H 1.804706 -8.429634 2.647081 0
M  V30 31 H 1.440149 -7.704833 0.988259 0
M  V30 32 H 2.689418 -4.001918 4.492622 0
M  V30 33 H 0.523344 -1.634035 -1.580684 0
M  V30 34 H 0.492431 0.684216 -2.361537 0
M  V30 35 H 1.592012 2.979136 -2.064326 0
M  V30 36 H -0.741674 3.614395 2.467442 0
M  V30 37 H -4.688976 2.921496 1.027979 0
M  V30 38 H -3.894980 3.231469 -1.339333 0
M  V30 39 H 2.148280 1.961988 1.342959 0
M  V30 40 H 2.172085 -0.356105 2.106197 0
M  V30 41 H 0.572378 -3.545388 -0.878772 0
M  V30 END ATOM
M  V30 BEGIN BOND
M  V30 1 1 1 2
M  V30 2 2 2 3
M  V30 3 1 3 4
M  V30 4 1 4 5
M  V30 5 2 5 6
M  V30 6 1 6 7
M  V30 7 1 7 8
M  V30 8 2 8 9
M  V30 9 1 9 10
M  V30 10 2 10 11
M  V30 11 1 11 12
M  V30 12 1 12 13
M  V30 13 2 13 14
M  V30 14 2 13 15
M  V30 15 1 13 16
M  V30 16 2 16 17
M  V30 17 1 17 18
M  V30 18 1 18 19
M  V30 19 2 18 20
M  V30 20 1 20 21
M  V30 21 2 21 22
M  V30 22 1 22 23
M  V30 23 1 11 24
M  V30 24 2 24 25
M  V30 25 2 7 26
M  V30 26 1 26 27
M  V30 27 2 27 28
M  V30 28 1 28 2
M  V30 29 1 28 5
M  V30 30 1 25 8
M  V30 31 1 22 16
M  V30 32 1 1 29
M  V30 33 1 1 30
M  V30 34 1 1 31
M  V30 35 1 4 32
M  V30 36 1 9 33
M  V30 37 1 10 34
M  V30 38 1 12 35
M  V30 39 1 17 36
M  V30 40 1 20 37
M  V30 41 1 21 38
M  V30 42 1 24 39
M  V30 43 1 25 40
M  V30 44 1 26 41
M  V30 END BOND
M  V30 END CTAB
M  END
>  <Dataset>  (847) 
ChEMBL_Kinases

>  <Ligand_Instance>  (847) 
nan

>  <PDB_ID>  (847) 
nan

>  <Standardized_SMILES>  (847) 
Cc1n[nH]c2nc(-c3ccc(NS(=O)(=O)c4cc(F)ccc4F)cc3)cnc12

>  <Name>  (847) 
nan

>  <Pocket>  (847) 
nan

>  <ATP_Site>  (847) 
nan

>  <Peripheral>  (847) 
nan

>  <Num_H_Atoms_ProtBoundConf>  (847) 
nan

>  <Num_Resolved_Atoms>  (847) 
nan

>  <Num_Not_Resolved_Atoms>  (847) 
nan

$$$$
CHEMBL3356060
     RDKit          3D

  0  0  0  0  0  0  0  0  0  0999 V3000
M  V30 BEGIN CTAB
M  V30 COUNTS 42 45 0 0 0
M  V30 BEGIN ATOM
M  V30 1 C 1.677357 -8.299371 1.659291 0
M  V30 2 C 0.959265 -7.279783 0.853885 0
M  V30 3 N -0.043133 -7.480957 0.013361 0
M  V30 4 N -0.439903 -6.326495 -0.534914 0
M  V30 5 C 0.362997 -5.369008 -0.000784 0
M  V30 6 N 0.361202 -4.046024 -0.233459 0
M  V30 7 C 1.215129 -3.194666 0.363787 0
M  V30 8 C 1.215219 -1.756531 0.112607 0
M  V30 9 C 2.069495 -0.848461 0.700256 0
M  V30 10 C 1.934337 0.480321 0.350209 0
M  V30 11 C 0.983809 0.955644 -0.563032 0
M  V30 12 N 1.087438 2.349747 -0.737789 0
M  V30 13 S 1.166622 3.847421 0.048955 0
M  V30 14 O 2.371480 3.917401 0.965159 0
M  V30 15 O 1.388534 4.930831 -0.976395 0
M  V30 16 C -0.212010 4.277827 1.000885 0
M  V30 17 C -0.999532 5.380656 0.625001 0
M  V30 18 C -2.133386 5.841404 1.256739 0
M  V30 19 Cl -2.994875 7.226712 0.659379 0
M  V30 20 C -2.542091 5.155101 2.371511 0
M  V30 21 C -1.822839 4.062335 2.804570 0
M  V30 22 C -0.694438 3.651263 2.127177 0
M  V30 23 C 0.024149 2.541459 2.621472 0
M  V30 24 N 0.603318 1.657965 3.036682 0
M  V30 25 C 0.139021 0.028142 -1.139437 0
M  V30 26 C 0.278504 -1.294331 -0.786515 0
M  V30 27 C 2.101016 -3.785217 1.240835 0
M  V30 28 N 2.121873 -5.121499 1.492485 0
M  V30 29 C 1.254478 -5.927787 0.875599 0
M  V30 30 H 2.497476 -7.857263 2.239685 0
M  V30 31 H 0.958730 -8.745524 2.370860 0
M  V30 32 H 2.028975 -9.115489 0.968965 0
M  V30 33 H -1.211649 -6.145114 -1.240772 0
M  V30 34 H 2.793778 -1.214472 1.396801 0
M  V30 35 H 2.657722 1.109926 0.872174 0
M  V30 36 H 1.127858 2.360795 -1.803233 0
M  V30 37 H -0.693403 5.935482 -0.252457 0
M  V30 38 H -3.420644 5.446766 2.928437 0
M  V30 39 H -2.151716 3.526188 3.684865 0
M  V30 40 H -0.555888 0.479671 -1.825733 0
M  V30 41 H -0.433154 -1.946164 -1.294368 0
M  V30 42 H 2.833770 -3.201448 1.778972 0
M  V30 END ATOM
M  V30 BEGIN BOND
M  V30 1 1 1 2
M  V30 2 2 2 3
M  V30 3 1 3 4
M  V30 4 1 4 5
M  V30 5 2 5 6
M  V30 6 1 6 7
M  V30 7 1 7 8
M  V30 8 2 8 9
M  V30 9 1 9 10
M  V30 10 2 10 11
M  V30 11 1 11 12
M  V30 12 1 12 13
M  V30 13 2 13 14
M  V30 14 2 13 15
M  V30 15 1 13 16
M  V30 16 2 16 17
M  V30 17 1 17 18
M  V30 18 1 18 19
M  V30 19 2 18 20
M  V30 20 1 20 21
M  V30 21 2 21 22
M  V30 22 1 22 23
M  V30 23 3 23 24
M  V30 24 1 11 25
M  V30 25 2 25 26
M  V30 26 2 7 27
M  V30 27 1 27 28
M  V30 28 2 28 29
M  V30 29 1 29 2
M  V30 30 1 29 5
M  V30 31 1 26 8
M  V30 32 1 22 16
M  V30 33 1 1 30
M  V30 34 1 1 31
M  V30 35 1 1 32
M  V30 36 1 4 33
M  V30 37 1 9 34
M  V30 38 1 10 35
M  V30 39 1 12 36
M  V30 40 1 17 37
M  V30 41 1 20 38
M  V30 42 1 21 39
M  V30 43 1 25 40
M  V30 44 1 26 41
M  V30 45 1 27 42
M  V30 END BOND
M  V30 END CTAB
M  END
>  <Dataset>  (848) 
ChEMBL_Kinases

>  <Ligand_Instance>  (848) 
nan

>  <PDB_ID>  (848) 
nan

>  <Standardized_SMILES>  (848) 
Cc1n[nH]c2nc(-c3ccc(NS(=O)(=O)c4cc(Cl)ccc4C#N)cc3)cnc12

>  <Name>  (848) 
nan

>  <Pocket>  (848) 
nan

>  <ATP_Site>  (848) 
nan

>  <Peripheral>  (848) 
nan

>  <Num_H_Atoms_ProtBoundConf>  (848) 
nan

>  <Num_Resolved_Atoms>  (848) 
nan

>  <Num_Not_Resolved_Atoms>  (848) 
nan

$$$$
CHEMBL3356059
     RDKit          3D

  0  0  0  0  0  0  0  0  0  0999 V3000
M  V30 BEGIN CTAB
M  V30 COUNTS 41 44 0 0 0
M  V30 BEGIN ATOM
M  V30 1 C 1.276953 -7.608475 2.938242 0
M  V30 2 C 1.573726 -6.172219 3.212375 0
M  V30 3 N 2.022651 -5.610981 4.354388 0
M  V30 4 N 2.165480 -4.304028 4.208366 0
M  V30 5 C 1.819146 -3.917207 2.957263 0
M  V30 6 N 1.788276 -2.728661 2.324759 0
M  V30 7 C 1.386759 -2.652392 1.042296 0
M  V30 8 C 1.340774 -1.382253 0.325906 0
M  V30 9 C 0.947347 -1.191676 -0.982999 0
M  V30 10 C 0.949852 0.072478 -1.546023 0
M  V30 11 C 1.348638 1.195604 -0.813656 0
M  V30 12 N 1.339754 2.479931 -1.421241 0
M  V30 13 S 0.694383 3.841450 -0.585088 0
M  V30 14 O 0.904082 5.079296 -1.418769 0
M  V30 15 O 1.441084 4.092529 0.715513 0
M  V30 16 C -0.982257 3.683084 -0.197961 0
M  V30 17 C -1.788614 2.613367 -0.491644 0
M  V30 18 C -3.125357 2.530669 -0.161943 0
M  V30 19 Cl -4.066147 1.113554 -0.586240 0
M  V30 20 C -3.664008 3.606986 0.506854 0
M  V30 21 C -2.910698 4.701301 0.827085 0
M  V30 22 C -1.575190 4.746492 0.479611 0
M  V30 23 Cl -0.700881 6.186343 0.933267 0
M  V30 24 C 1.740347 1.022425 0.482052 0
M  V30 25 C 1.725144 -0.239302 1.004522 0
M  V30 26 C 1.021085 -3.839873 0.441741 0
M  V30 27 N 1.047987 -5.032796 1.063887 0
M  V30 28 C 1.449284 -5.104832 2.343752 0
M  V30 29 H 0.160848 -7.779733 2.943215 0
M  V30 30 H 1.755363 -8.243136 3.694267 0
M  V30 31 H 1.591742 -7.807882 1.898956 0
M  V30 32 H 2.493969 -3.597954 4.910684 0
M  V30 33 H 0.644605 -2.077462 -1.523999 0
M  V30 34 H 0.630022 0.173598 -2.585786 0
M  V30 35 H 1.743984 2.547377 -2.395129 0
M  V30 36 H -1.327376 1.788549 -1.017576 0
M  V30 37 H -4.706093 3.554152 0.769492 0
M  V30 38 H -3.393597 5.514701 1.353479 0
M  V30 39 H 2.054480 1.864073 1.078415 0
M  V30 40 H 2.046418 -0.334804 2.046256 0
M  V30 41 H 0.688869 -3.878343 -0.573506 0
M  V30 END ATOM
M  V30 BEGIN BOND
M  V30 1 1 1 2
M  V30 2 2 2 3
M  V30 3 1 3 4
M  V30 4 1 4 5
M  V30 5 2 5 6
M  V30 6 1 6 7
M  V30 7 1 7 8
M  V30 8 2 8 9
M  V30 9 1 9 10
M  V30 10 2 10 11
M  V30 11 1 11 12
M  V30 12 1 12 13
M  V30 13 2 13 14
M  V30 14 2 13 15
M  V30 15 1 13 16
M  V30 16 2 16 17
M  V30 17 1 17 18
M  V30 18 1 18 19
M  V30 19 2 18 20
M  V30 20 1 20 21
M  V30 21 2 21 22
M  V30 22 1 22 23
M  V30 23 1 11 24
M  V30 24 2 24 25
M  V30 25 2 7 26
M  V30 26 1 26 27
M  V30 27 2 27 28
M  V30 28 1 28 2
M  V30 29 1 28 5
M  V30 30 1 25 8
M  V30 31 1 22 16
M  V30 32 1 1 29
M  V30 33 1 1 30
M  V30 34 1 1 31
M  V30 35 1 4 32
M  V30 36 1 9 33
M  V30 37 1 10 34
M  V30 38 1 12 35
M  V30 39 1 17 36
M  V30 40 1 20 37
M  V30 41 1 21 38
M  V30 42 1 24 39
M  V30 43 1 25 40
M  V30 44 1 26 41
M  V30 END BOND
M  V30 END CTAB
M  END
>  <Dataset>  (849) 
ChEMBL_Kinases

>  <Ligand_Instance>  (849) 
nan

>  <PDB_ID>  (849) 
nan

>  <Standardized_SMILES>  (849) 
Cc1n[nH]c2nc(-c3ccc(NS(=O)(=O)c4cc(Cl)ccc4Cl)cc3)cnc12

>  <Name>  (849) 
nan

>  <Pocket>  (849) 
nan

>  <ATP_Site>  (849) 
nan

>  <Peripheral>  (849) 
nan

>  <Num_H_Atoms_ProtBoundConf>  (849) 
nan

>  <Num_Resolved_Atoms>  (849) 
nan

>  <Num_Not_Resolved_Atoms>  (849) 
nan

$$$$
CHEMBL3356058
     RDKit          3D

  0  0  0  0  0  0  0  0  0  0999 V3000
M  V30 BEGIN CTAB
M  V30 COUNTS 41 44 0 0 0
M  V30 BEGIN ATOM
M  V30 1 C 0.920436 -7.627119 2.903695 0
M  V30 2 C 1.333838 -6.220930 3.165136 0
M  V30 3 N 1.892157 -5.707002 4.276542 0
M  V30 4 N 2.119362 -4.410560 4.133549 0
M  V30 5 C 1.720554 -3.996779 2.912149 0
M  V30 6 N 1.743835 -2.791636 2.310416 0
M  V30 7 C 1.269850 -2.660814 1.056381 0
M  V30 8 C 1.271541 -1.379241 0.358808 0
M  V30 9 C 0.814676 -1.128290 -0.918272 0
M  V30 10 C 0.877399 0.140439 -1.456680 0
M  V30 11 C 1.397680 1.204900 -0.741837 0
M  V30 12 N 1.422773 2.467083 -1.370582 0
M  V30 13 S 0.927866 3.899558 -0.553367 0
M  V30 14 O 1.156337 5.077085 -1.435790 0
M  V30 15 O 1.754397 4.061620 0.690594 0
M  V30 16 C -0.764612 3.799164 -0.074761 0
M  V30 17 C -1.163361 3.880423 1.240869 0
M  V30 18 C -2.509380 3.795634 1.565028 0
M  V30 19 C -3.474033 3.627731 0.569023 0
M  V30 20 C -3.012164 3.551999 -0.744040 0
M  V30 21 Cl -4.202347 3.340831 -2.018994 0
M  V30 22 C -1.692346 3.631449 -1.104166 0
M  V30 23 Cl -1.206194 3.526395 -2.776811 0
M  V30 24 C 1.862969 0.993765 0.534454 0
M  V30 25 C 1.784036 -0.279171 1.034728 0
M  V30 26 C 0.780235 -3.806880 0.462453 0
M  V30 27 N 0.754941 -5.014170 1.060340 0
M  V30 28 C 1.229320 -5.139110 2.312128 0
M  V30 29 H -0.187063 -7.733808 3.088721 0
M  V30 30 H 1.395731 -8.301622 3.618723 0
M  V30 31 H 1.066889 -7.863070 1.839835 0
M  V30 32 H 2.540993 -3.802219 4.852283 0
M  V30 33 H 0.414875 -1.979949 -1.449140 0
M  V30 34 H 0.487929 0.211879 -2.467313 0
M  V30 35 H 1.760988 2.491766 -2.370633 0
M  V30 36 H -0.412567 4.009639 1.999342 0
M  V30 37 H -2.827434 3.858475 2.591743 0
M  V30 38 H -4.515667 3.563816 0.839316 0
M  V30 39 H 2.273757 1.812915 1.110513 0
M  V30 40 H 2.164940 -0.398972 2.050512 0
M  V30 41 H 0.379701 -3.801273 -0.539812 0
M  V30 END ATOM
M  V30 BEGIN BOND
M  V30 1 1 1 2
M  V30 2 2 2 3
M  V30 3 1 3 4
M  V30 4 1 4 5
M  V30 5 2 5 6
M  V30 6 1 6 7
M  V30 7 1 7 8
M  V30 8 2 8 9
M  V30 9 1 9 10
M  V30 10 2 10 11
M  V30 11 1 11 12
M  V30 12 1 12 13
M  V30 13 2 13 14
M  V30 14 2 13 15
M  V30 15 1 13 16
M  V30 16 2 16 17
M  V30 17 1 17 18
M  V30 18 2 18 19
M  V30 19 1 19 20
M  V30 20 1 20 21
M  V30 21 2 20 22
M  V30 22 1 22 23
M  V30 23 1 11 24
M  V30 24 2 24 25
M  V30 25 2 7 26
M  V30 26 1 26 27
M  V30 27 2 27 28
M  V30 28 1 28 2
M  V30 29 1 28 5
M  V30 30 1 25 8
M  V30 31 1 22 16
M  V30 32 1 1 29
M  V30 33 1 1 30
M  V30 34 1 1 31
M  V30 35 1 4 32
M  V30 36 1 9 33
M  V30 37 1 10 34
M  V30 38 1 12 35
M  V30 39 1 17 36
M  V30 40 1 18 37
M  V30 41 1 19 38
M  V30 42 1 24 39
M  V30 43 1 25 40
M  V30 44 1 26 41
M  V30 END BOND
M  V30 END CTAB
M  END
>  <Dataset>  (850) 
ChEMBL_Kinases

>  <Ligand_Instance>  (850) 
nan

>  <PDB_ID>  (850) 
nan

>  <Standardized_SMILES>  (850) 
Cc1n[nH]c2nc(-c3ccc(NS(=O)(=O)c4cccc(Cl)c4Cl)cc3)cnc12

>  <Name>  (850) 
nan

>  <Pocket>  (850) 
nan

>  <ATP_Site>  (850) 
nan

>  <Peripheral>  (850) 
nan

>  <Num_H_Atoms_ProtBoundConf>  (850) 
nan

>  <Num_Resolved_Atoms>  (850) 
nan

>  <Num_Not_Resolved_Atoms>  (850) 
nan

$$$$
CHEMBL3355518
     RDKit          3D

  0  0  0  0  0  0  0  0  0  0999 V3000
M  V30 BEGIN CTAB
M  V30 COUNTS 58 63 0 0 0
M  V30 BEGIN ATOM
M  V30 1 C 6.019545 -0.732253 -0.046722 0
M  V30 2 N 5.496546 0.430464 -0.677709 0
M  V30 3 C 5.268391 0.346613 -2.089872 0
M  V30 4 C 4.393369 1.538399 -2.457359 0
M  V30 5 N 3.992922 2.252662 -1.254662 0
M  V30 6 C 2.713181 2.434938 -0.680965 0
M  V30 7 C 2.169705 3.568388 -0.088955 0
M  V30 8 C 0.905067 3.530237 0.461587 0
M  V30 9 C 0.107952 2.386390 0.463315 0
M  V30 10 N -1.196021 2.420177 1.068306 0
M  V30 11 C -1.825068 1.145840 1.138072 0
M  V30 12 N -1.152288 0.432545 2.061516 0
M  V30 13 C -1.453307 -0.838222 2.420995 0
M  V30 14 C -2.518901 -1.439662 1.802241 0
M  V30 15 C -2.880377 -2.736570 2.130717 0
M  V30 16 O -2.210052 -3.373712 3.013696 0
M  V30 17 N -3.956936 -3.249181 1.466183 0
M  V30 18 C -4.257575 -4.588598 1.861207 0
M  V30 19 C -3.754583 -5.745132 1.252590 0
M  V30 20 C -4.111432 -6.997117 1.719157 0
M  V30 21 C -4.962105 -7.093914 2.783069 0
M  V30 22 C -5.463674 -5.954458 3.390388 0
M  V30 23 C -5.130112 -4.688012 2.952159 0
M  V30 24 Cl -5.781365 -3.272237 3.732976 0
M  V30 25 C -4.612584 -2.515579 0.548971 0
M  V30 26 N -5.684733 -2.860431 -0.186701 0
M  V30 27 C -6.023054 -1.824537 -0.977960 0
M  V30 28 C -5.111178 -0.805331 -0.706835 0
M  V30 29 N -4.269867 -1.259051 0.224207 0
M  V30 30 C -3.217901 -0.714208 0.851207 0
M  V30 31 N -2.891078 0.560500 0.509521 0
M  V30 32 C 0.668729 1.278894 -0.129831 0
M  V30 33 C 1.926901 1.305194 -0.681492 0
M  V30 34 C 5.215952 2.779611 -0.624577 0
M  V30 35 C 6.214009 1.656806 -0.414563 0
M  V30 36 H 5.679548 -0.713022 1.012442 0
M  V30 37 H 7.113522 -0.859186 -0.112431 0
M  V30 38 H 5.536275 -1.622575 -0.521297 0
M  V30 39 H 6.221595 0.447951 -2.680468 0
M  V30 40 H 4.830356 -0.618963 -2.334365 0
M  V30 41 H 4.940280 2.279233 -3.085205 0
M  V30 42 H 3.551410 1.141267 -3.043100 0
M  V30 43 H 2.818911 4.422983 -0.114000 0
M  V30 44 H 0.511828 4.415257 0.904775 0
M  V30 45 H -1.538441 3.378689 1.385774 0
M  V30 46 H -0.918116 -1.435983 3.167100 0
M  V30 47 H -3.096348 -5.460919 0.423025 0
M  V30 48 H -3.669046 -7.812980 1.183081 0
M  V30 49 H -5.234668 -8.086031 3.139284 0
M  V30 50 H -6.124252 -6.129092 4.213359 0
M  V30 51 H -6.851022 -1.825655 -1.680175 0
M  V30 52 H -5.141071 0.146486 -1.196676 0
M  V30 53 H 0.039961 0.385764 -0.124535 0
M  V30 54 H 2.238939 0.369558 -1.105144 0
M  V30 55 H 4.915788 3.083521 0.404920 0
M  V30 56 H 5.589409 3.623432 -1.195242 0
M  V30 57 H 6.691447 1.664284 0.578023 0
M  V30 58 H 7.010224 1.788673 -1.165758 0
M  V30 END ATOM
M  V30 BEGIN BOND
M  V30 1 1 1 2
M  V30 2 1 2 3
M  V30 3 1 3 4
M  V30 4 1 4 5
M  V30 5 1 5 6
M  V30 6 2 6 7
M  V30 7 1 7 8
M  V30 8 2 8 9
M  V30 9 1 9 10
M  V30 10 1 10 11
M  V30 11 2 11 12
M  V30 12 1 12 13
M  V30 13 2 13 14
M  V30 14 1 14 15
M  V30 15 2 15 16
M  V30 16 1 15 17
M  V30 17 1 17 18
M  V30 18 2 18 19
M  V30 19 1 19 20
M  V30 20 2 20 21
M  V30 21 1 21 22
M  V30 22 2 22 23
M  V30 23 1 23 24
M  V30 24 1 17 25
M  V30 25 2 25 26
M  V30 26 1 26 27
M  V30 27 2 27 28
M  V30 28 1 28 29
M  V30 29 1 29 30
M  V30 30 2 30 31
M  V30 31 1 9 32
M  V30 32 2 32 33
M  V30 33 1 5 34
M  V30 34 1 34 35
M  V30 35 1 35 2
M  V30 36 1 33 6
M  V30 37 1 31 11
M  V30 38 1 30 14
M  V30 39 1 23 18
M  V30 40 1 29 25
M  V30 41 1 1 36
M  V30 42 1 1 37
M  V30 43 1 1 38
M  V30 44 1 3 39
M  V30 45 1 3 40
M  V30 46 1 4 41
M  V30 47 1 4 42
M  V30 48 1 7 43
M  V30 49 1 8 44
M  V30 50 1 10 45
M  V30 51 1 13 46
M  V30 52 1 19 47
M  V30 53 1 20 48
M  V30 54 1 21 49
M  V30 55 1 22 50
M  V30 56 1 27 51
M  V30 57 1 28 52
M  V30 58 1 32 53
M  V30 59 1 33 54
M  V30 60 1 34 55
M  V30 61 1 34 56
M  V30 62 1 35 57
M  V30 63 1 35 58
M  V30 END BOND
M  V30 END CTAB
M  END
>  <Dataset>  (851) 
ChEMBL_Kinases

>  <Ligand_Instance>  (851) 
nan

>  <PDB_ID>  (851) 
nan

>  <Standardized_SMILES>  (851) 
CN1CCN(c2ccc(Nc3ncc4c(=O)n(-c5ccccc5Cl)c5nccn5c4n3)cc2)CC1

>  <Name>  (851) 
nan

>  <Pocket>  (851) 
nan

>  <ATP_Site>  (851) 
nan

>  <Peripheral>  (851) 
nan

>  <Num_H_Atoms_ProtBoundConf>  (851) 
nan

>  <Num_Resolved_Atoms>  (851) 
nan

>  <Num_Not_Resolved_Atoms>  (851) 
nan

$$$$
CHEMBL3356041
     RDKit          3D

  0  0  0  0  0  0  0  0  0  0999 V3000
M  V30 BEGIN CTAB
M  V30 COUNTS 40 43 0 0 0
M  V30 BEGIN ATOM
M  V30 1 N 1.681661 -7.821166 0.648075 0
M  V30 2 C 2.249036 -6.511849 0.623477 0
M  V30 3 N 3.525317 -6.145761 0.877856 0
M  V30 4 N 3.650509 -4.819501 0.747853 0
M  V30 5 C 2.422766 -4.356835 0.405298 0
M  V30 6 N 2.081254 -3.075299 0.171576 0
M  V30 7 C 0.811829 -2.741229 -0.165283 0
M  V30 8 C 0.435830 -1.355453 -0.419577 0
M  V30 9 C -0.816862 -0.912855 -0.765615 0
M  V30 10 C -1.102895 0.417950 -0.992225 0
M  V30 11 C -0.103078 1.378780 -0.873757 0
M  V30 12 N -0.562332 2.696493 -1.139094 0
M  V30 13 S -0.094632 3.962625 -0.081933 0
M  V30 14 O 1.403632 3.998084 -0.015995 0
M  V30 15 O -0.639522 5.288045 -0.516947 0
M  V30 16 C -0.699961 3.650044 1.551253 0
M  V30 17 C 0.134589 3.517435 2.642487 0
M  V30 18 C -0.365441 3.273101 3.909371 0
M  V30 19 C -1.747923 3.159473 4.078843 0
M  V30 20 C -2.599423 3.290191 2.992648 0
M  V30 21 C -2.081880 3.535626 1.725617 0
M  V30 22 Cl -3.169025 3.697521 0.368501 0
M  V30 23 C 1.162134 0.952737 -0.526780 0
M  V30 24 C 1.406194 -0.384557 -0.309205 0
M  V30 25 C -0.093086 -3.779430 -0.252144 0
M  V30 26 N 0.223951 -5.079624 -0.021900 0
M  V30 27 C 1.509305 -5.387872 0.315581 0
M  V30 28 H 1.435211 -8.033509 1.652540 0
M  V30 29 H 1.601607 -8.335347 -0.267180 0
M  V30 30 H 4.532237 -4.270736 0.888067 0
M  V30 31 H -1.598986 -1.652795 -0.859681 0
M  V30 32 H -2.139799 0.650251 -1.262572 0
M  V30 33 H -1.173639 2.904858 -1.958637 0
M  V30 34 H 1.186326 3.605982 2.501136 0
M  V30 35 H 0.320352 3.172656 4.755591 0
M  V30 36 H -2.101928 2.966727 5.093123 0
M  V30 37 H -3.672434 3.190553 3.192026 0
M  V30 38 H 1.883609 1.754265 -0.454388 0
M  V30 39 H 2.434510 -0.648160 -0.037118 0
M  V30 40 H -1.125532 -3.599865 -0.515061 0
M  V30 END ATOM
M  V30 BEGIN BOND
M  V30 1 1 1 2
M  V30 2 2 2 3
M  V30 3 1 3 4
M  V30 4 1 4 5
M  V30 5 2 5 6
M  V30 6 1 6 7
M  V30 7 1 7 8
M  V30 8 2 8 9
M  V30 9 1 9 10
M  V30 10 2 10 11
M  V30 11 1 11 12
M  V30 12 1 12 13
M  V30 13 2 13 14
M  V30 14 2 13 15
M  V30 15 1 13 16
M  V30 16 2 16 17
M  V30 17 1 17 18
M  V30 18 2 18 19
M  V30 19 1 19 20
M  V30 20 2 20 21
M  V30 21 1 21 22
M  V30 22 1 11 23
M  V30 23 2 23 24
M  V30 24 2 7 25
M  V30 25 1 25 26
M  V30 26 2 26 27
M  V30 27 1 27 2
M  V30 28 1 27 5
M  V30 29 1 24 8
M  V30 30 1 21 16
M  V30 31 1 1 28
M  V30 32 1 1 29
M  V30 33 1 4 30
M  V30 34 1 9 31
M  V30 35 1 10 32
M  V30 36 1 12 33
M  V30 37 1 17 34
M  V30 38 1 18 35
M  V30 39 1 19 36
M  V30 40 1 20 37
M  V30 41 1 23 38
M  V30 42 1 24 39
M  V30 43 1 25 40
M  V30 END BOND
M  V30 END CTAB
M  END
>  <Dataset>  (852) 
ChEMBL_Kinases

>  <Ligand_Instance>  (852) 
nan

>  <PDB_ID>  (852) 
nan

>  <Standardized_SMILES>  (852) 
Nc1n[nH]c2nc(-c3ccc(NS(=O)(=O)c4ccccc4Cl)cc3)cnc12

>  <Name>  (852) 
nan

>  <Pocket>  (852) 
nan

>  <ATP_Site>  (852) 
nan

>  <Peripheral>  (852) 
nan

>  <Num_H_Atoms_ProtBoundConf>  (852) 
nan

>  <Num_Resolved_Atoms>  (852) 
nan

>  <Num_Not_Resolved_Atoms>  (852) 
nan

$$$$
CHEMBL3356042
     RDKit          3D

  0  0  0  0  0  0  0  0  0  0999 V3000
M  V30 BEGIN CTAB
M  V30 COUNTS 40 43 0 0 0
M  V30 BEGIN ATOM
M  V30 1 N 2.301025 -7.668130 0.910640 0
M  V30 2 C 2.589796 -6.459907 1.599719 0
M  V30 3 N 3.206921 -6.191938 2.769919 0
M  V30 4 N 3.223376 -4.879402 2.971684 0
M  V30 5 C 2.614797 -4.265877 1.932382 0
M  V30 6 N 2.378043 -2.968020 1.666450 0
M  V30 7 C 1.738192 -2.562434 0.542448 0
M  V30 8 C 1.495042 -1.147785 0.279930 0
M  V30 9 C 0.864927 -0.643329 -0.813214 0
M  V30 10 C 0.673682 0.711984 -0.988080 0
M  V30 11 C 1.109584 1.634379 -0.065915 0
M  V30 12 N 0.935115 3.036286 -0.204316 0
M  V30 13 S -0.584881 3.672063 -0.710530 0
M  V30 14 O -0.537140 5.172647 -0.826515 0
M  V30 15 O -0.874318 3.112841 -2.078892 0
M  V30 16 C -1.851263 3.280645 0.405189 0
M  V30 17 C -1.805891 2.570548 1.577761 0
M  V30 18 C -2.943347 2.370592 2.326770 0
M  V30 19 C -4.171772 2.868588 1.940174 0
M  V30 20 C -4.234751 3.585240 0.763064 0
M  V30 21 F -5.455451 4.057817 0.416226 0
M  V30 22 C -3.091796 3.788407 0.006663 0
M  V30 23 Cl -3.365454 4.727513 -1.466238 0
M  V30 24 C 1.758028 1.115302 1.059028 0
M  V30 25 C 1.933694 -0.224554 1.207255 0
M  V30 26 C 1.332111 -3.547705 -0.333261 0
M  V30 27 N 1.561131 -4.849888 -0.082120 0
M  V30 28 C 2.206333 -5.246416 1.052905 0
M  V30 29 H 1.410611 -8.209907 0.818756 0
M  V30 30 H 2.919131 -8.277372 0.345271 0
M  V30 31 H 3.638849 -4.373775 3.802001 0
M  V30 32 H 0.505419 -1.331034 -1.564220 0
M  V30 33 H 0.173400 1.036567 -1.866165 0
M  V30 34 H 1.790232 3.622278 0.023450 0
M  V30 35 H -0.812413 2.217020 1.808544 0
M  V30 36 H -2.791336 1.797051 3.231827 0
M  V30 37 H -5.008294 2.660640 2.592985 0
M  V30 38 H 2.107620 1.838334 1.796414 0
M  V30 39 H 2.443383 -0.561930 2.100710 0
M  V30 40 H 0.821145 -3.315785 -1.242871 0
M  V30 END ATOM
M  V30 BEGIN BOND
M  V30 1 1 1 2
M  V30 2 2 2 3
M  V30 3 1 3 4
M  V30 4 1 4 5
M  V30 5 2 5 6
M  V30 6 1 6 7
M  V30 7 1 7 8
M  V30 8 2 8 9
M  V30 9 1 9 10
M  V30 10 2 10 11
M  V30 11 1 11 12
M  V30 12 1 12 13
M  V30 13 2 13 14
M  V30 14 2 13 15
M  V30 15 1 13 16
M  V30 16 2 16 17
M  V30 17 1 17 18
M  V30 18 2 18 19
M  V30 19 1 19 20
M  V30 20 1 20 21
M  V30 21 2 20 22
M  V30 22 1 22 23
M  V30 23 1 11 24
M  V30 24 2 24 25
M  V30 25 2 7 26
M  V30 26 1 26 27
M  V30 27 2 27 28
M  V30 28 1 28 2
M  V30 29 1 28 5
M  V30 30 1 25 8
M  V30 31 1 22 16
M  V30 32 1 1 29
M  V30 33 1 1 30
M  V30 34 1 4 31
M  V30 35 1 9 32
M  V30 36 1 10 33
M  V30 37 1 12 34
M  V30 38 1 17 35
M  V30 39 1 18 36
M  V30 40 1 19 37
M  V30 41 1 24 38
M  V30 42 1 25 39
M  V30 43 1 26 40
M  V30 END BOND
M  V30 END CTAB
M  END
>  <Dataset>  (853) 
ChEMBL_Kinases

>  <Ligand_Instance>  (853) 
nan

>  <PDB_ID>  (853) 
nan

>  <Standardized_SMILES>  (853) 
Nc1n[nH]c2nc(-c3ccc(NS(=O)(=O)c4cccc(F)c4Cl)cc3)cnc12

>  <Name>  (853) 
nan

>  <Pocket>  (853) 
nan

>  <ATP_Site>  (853) 
nan

>  <Peripheral>  (853) 
nan

>  <Num_H_Atoms_ProtBoundConf>  (853) 
nan

>  <Num_Resolved_Atoms>  (853) 
nan

>  <Num_Not_Resolved_Atoms>  (853) 
nan

$$$$
CHEMBL3356043
     RDKit          3D

  0  0  0  0  0  0  0  0  0  0999 V3000
M  V30 BEGIN CTAB
M  V30 COUNTS 40 43 0 0 0
M  V30 BEGIN ATOM
M  V30 1 N 1.909935 -7.762239 -0.080585 0
M  V30 2 C 2.362350 -6.587735 0.592727 0
M  V30 3 N 3.216839 -6.475482 1.627197 0
M  V30 4 N 3.361658 -5.217252 1.942111 0
M  V30 5 C 2.587823 -4.474116 1.100448 0
M  V30 6 N 2.372316 -3.164423 0.990269 0
M  V30 7 C 1.559020 -2.602184 0.081034 0
M  V30 8 C 1.342743 -1.161993 -0.015348 0
M  V30 9 C 0.528759 -0.550616 -0.919908 0
M  V30 10 C 0.409413 0.829318 -0.907134 0
M  V30 11 C 1.082707 1.659368 -0.008375 0
M  V30 12 N 0.872531 3.059437 -0.102265 0
M  V30 13 S -0.680440 3.786052 -0.301450 0
M  V30 14 O -0.569792 5.281576 -0.333811 0
M  V30 15 O -1.343252 3.299265 -1.569852 0
M  V30 16 C -1.660452 3.377285 1.084555 0
M  V30 17 C -1.371492 2.631272 2.195344 0
M  V30 18 C -2.331064 2.452058 3.166590 0
M  V30 19 C -3.587410 3.000943 3.063874 0
M  V30 20 Cl -4.636976 2.639102 4.417006 0
M  V30 21 C -3.902068 3.752777 1.960536 0
M  V30 22 C -2.933030 3.939424 0.969745 0
M  V30 23 Cl -3.524424 4.933956 -0.369786 0
M  V30 24 C 1.903713 0.983441 0.897314 0
M  V30 25 C 2.023233 -0.370710 0.887633 0
M  V30 26 C 0.932176 -3.486651 -0.768204 0
M  V30 27 N 1.121597 -4.814923 -0.691309 0
M  V30 28 C 1.948974 -5.339497 0.239012 0
M  V30 29 H 0.901524 -8.086489 -0.087776 0
M  V30 30 H 2.711573 -8.231110 -0.548043 0
M  V30 31 H 3.951648 -4.803254 2.694268 0
M  V30 32 H -0.002567 -1.147556 -1.622607 0
M  V30 33 H -0.246008 1.239158 -1.645004 0
M  V30 34 H 1.743234 3.642793 -0.041529 0
M  V30 35 H -0.360582 2.254247 2.165973 0
M  V30 36 H -1.983457 1.841986 3.998723 0
M  V30 37 H -4.891269 4.151512 1.938359 0
M  V30 38 H 2.423741 1.632129 1.592329 0
M  V30 39 H 2.695224 -0.794781 1.643489 0
M  V30 40 H 0.265033 -3.164533 -1.529719 0
M  V30 END ATOM
M  V30 BEGIN BOND
M  V30 1 1 1 2
M  V30 2 2 2 3
M  V30 3 1 3 4
M  V30 4 1 4 5
M  V30 5 2 5 6
M  V30 6 1 6 7
M  V30 7 1 7 8
M  V30 8 2 8 9
M  V30 9 1 9 10
M  V30 10 2 10 11
M  V30 11 1 11 12
M  V30 12 1 12 13
M  V30 13 2 13 14
M  V30 14 2 13 15
M  V30 15 1 13 16
M  V30 16 2 16 17
M  V30 17 1 17 18
M  V30 18 2 18 19
M  V30 19 1 19 20
M  V30 20 1 19 21
M  V30 21 2 21 22
M  V30 22 1 22 23
M  V30 23 1 11 24
M  V30 24 2 24 25
M  V30 25 2 7 26
M  V30 26 1 26 27
M  V30 27 2 27 28
M  V30 28 1 28 2
M  V30 29 1 28 5
M  V30 30 1 25 8
M  V30 31 1 22 16
M  V30 32 1 1 29
M  V30 33 1 1 30
M  V30 34 1 4 31
M  V30 35 1 9 32
M  V30 36 1 10 33
M  V30 37 1 12 34
M  V30 38 1 17 35
M  V30 39 1 18 36
M  V30 40 1 21 37
M  V30 41 1 24 38
M  V30 42 1 25 39
M  V30 43 1 26 40
M  V30 END BOND
M  V30 END CTAB
M  END
>  <Dataset>  (854) 
ChEMBL_Kinases

>  <Ligand_Instance>  (854) 
nan

>  <PDB_ID>  (854) 
nan

>  <Standardized_SMILES>  (854) 
Nc1n[nH]c2nc(-c3ccc(NS(=O)(=O)c4ccc(Cl)cc4Cl)cc3)cnc12

>  <Name>  (854) 
nan

>  <Pocket>  (854) 
nan

>  <ATP_Site>  (854) 
nan

>  <Peripheral>  (854) 
nan

>  <Num_H_Atoms_ProtBoundConf>  (854) 
nan

>  <Num_Resolved_Atoms>  (854) 
nan

>  <Num_Not_Resolved_Atoms>  (854) 
nan

$$$$
CHEMBL3356044
     RDKit          3D

  0  0  0  0  0  0  0  0  0  0999 V3000
M  V30 BEGIN CTAB
M  V30 COUNTS 44 47 0 0 0
M  V30 BEGIN ATOM
M  V30 1 C -3.312379 1.608469 -2.581620 0
M  V30 2 O -2.059475 1.729800 -1.938421 0
M  V30 3 C -0.880535 1.584083 -2.658400 0
M  V30 4 C -0.827064 1.316044 -4.024107 0
M  V30 5 C 0.416507 1.192006 -4.632240 0
M  V30 6 C 1.564773 1.338146 -3.864559 0
M  V30 7 Cl 3.041250 1.149128 -4.799517 0
M  V30 8 C 1.491293 1.606657 -2.496798 0
M  V30 9 S 3.083381 1.740022 -1.788412 0
M  V30 10 O 3.874273 0.468016 -2.055673 0
M  V30 11 O 3.806032 2.817965 -2.540011 0
M  V30 12 N 2.999256 2.066613 -0.109449 0
M  V30 13 C 2.376881 1.138040 0.766240 0
M  V30 14 C 1.487915 1.563194 1.760633 0
M  V30 15 C 0.882969 0.664772 2.613473 0
M  V30 16 C 1.124028 -0.690467 2.527711 0
M  V30 17 C 0.537863 -1.721061 3.377864 0
M  V30 18 C -0.350174 -1.419381 4.389684 0
M  V30 19 N -0.912915 -2.340176 5.195786 0
M  V30 20 C -0.595796 -3.649930 5.012741 0
M  V30 21 C -0.956510 -4.850205 5.619928 0
M  V30 22 N -1.872877 -4.868107 6.712849 0
M  V30 23 N -0.295069 -5.830738 4.978391 0
M  V30 24 N 0.453000 -5.304555 4.010319 0
M  V30 25 C 0.291118 -3.964341 4.004149 0
M  V30 26 N 0.837916 -3.022688 3.213926 0
M  V30 27 C 2.003822 -1.080300 1.538987 0
M  V30 28 C 2.629599 -0.214268 0.666183 0
M  V30 29 C 0.252178 1.727795 -1.903443 0
M  V30 30 H -4.053450 1.356312 -1.789290 0
M  V30 31 H -3.610931 2.545529 -3.067860 0
M  V30 32 H -3.330748 0.787347 -3.329643 0
M  V30 33 H -1.760030 1.214716 -4.559041 0
M  V30 34 H 0.396830 0.985130 -5.687609 0
M  V30 35 H 3.402986 2.955612 0.311914 0
M  V30 36 H 1.254206 2.626101 1.880981 0
M  V30 37 H 0.197575 0.991266 3.380338 0
M  V30 38 H -0.645859 -0.410278 4.591820 0
M  V30 39 H -1.568897 -4.576784 7.680677 0
M  V30 40 H -2.881897 -5.171650 6.593153 0
M  V30 41 H 1.059609 -5.887577 3.375060 0
M  V30 42 H 2.224236 -2.149289 1.435342 0
M  V30 43 H 3.300929 -0.623685 -0.071522 0
M  V30 44 H 0.322066 1.931898 -0.862947 0
M  V30 END ATOM
M  V30 BEGIN BOND
M  V30 1 1 1 2
M  V30 2 1 2 3
M  V30 3 2 3 4
M  V30 4 1 4 5
M  V30 5 2 5 6
M  V30 6 1 6 7
M  V30 7 1 6 8
M  V30 8 1 8 9
M  V30 9 2 9 10
M  V30 10 2 9 11
M  V30 11 1 9 12
M  V30 12 1 12 13
M  V30 13 2 13 14
M  V30 14 1 14 15
M  V30 15 2 15 16
M  V30 16 1 16 17
M  V30 17 2 17 18
M  V30 18 1 18 19
M  V30 19 2 19 20
M  V30 20 1 20 21
M  V30 21 1 21 22
M  V30 22 2 21 23
M  V30 23 1 23 24
M  V30 24 1 24 25
M  V30 25 2 25 26
M  V30 26 1 16 27
M  V30 27 2 27 28
M  V30 28 2 8 29
M  V30 29 1 29 3
M  V30 30 1 28 13
M  V30 31 1 26 17
M  V30 32 1 25 20
M  V30 33 1 1 30
M  V30 34 1 1 31
M  V30 35 1 1 32
M  V30 36 1 4 33
M  V30 37 1 5 34
M  V30 38 1 12 35
M  V30 39 1 14 36
M  V30 40 1 15 37
M  V30 41 1 18 38
M  V30 42 1 22 39
M  V30 43 1 22 40
M  V30 44 1 24 41
M  V30 45 1 27 42
M  V30 46 1 28 43
M  V30 47 1 29 44
M  V30 END BOND
M  V30 END CTAB
M  END
>  <Dataset>  (855) 
ChEMBL_Kinases

>  <Ligand_Instance>  (855) 
nan

>  <PDB_ID>  (855) 
nan

>  <Standardized_SMILES>  (855) 
COc1ccc(Cl)c(S(=O)(=O)Nc2ccc(-c3cnc4c(N)n[nH]c4n3)cc2)c1

>  <Name>  (855) 
nan

>  <Pocket>  (855) 
nan

>  <ATP_Site>  (855) 
nan

>  <Peripheral>  (855) 
nan

>  <Num_H_Atoms_ProtBoundConf>  (855) 
nan

>  <Num_Resolved_Atoms>  (855) 
nan

>  <Num_Not_Resolved_Atoms>  (855) 
nan

$$$$
CHEMBL3356045
     RDKit          3D

  0  0  0  0  0  0  0  0  0  0999 V3000
M  V30 BEGIN CTAB
M  V30 COUNTS 43 46 0 0 0
M  V30 BEGIN ATOM
M  V30 1 N -0.476307 -3.021645 8.093962 0
M  V30 2 C 0.035930 -3.353131 6.807379 0
M  V30 3 N 0.307876 -4.587204 6.316694 0
M  V30 4 N 0.773722 -4.472327 5.070979 0
M  V30 5 C 0.794206 -3.152643 4.777232 0
M  V30 6 N 1.192578 -2.578456 3.625448 0
M  V30 7 C 1.158334 -1.226582 3.469744 0
M  V30 8 C 1.588381 -0.598667 2.225052 0
M  V30 9 C 1.590969 0.756626 1.971771 0
M  V30 10 C 2.016098 1.268573 0.761276 0
M  V30 11 C 2.457368 0.434440 -0.246839 0
M  V30 12 N 2.915183 0.855061 -1.526597 0
M  V30 13 S 1.953414 2.051775 -2.309820 0
M  V30 14 O 2.559454 2.339214 -3.653323 0
M  V30 15 O 1.908958 3.328805 -1.545491 0
M  V30 16 C 0.323831 1.448416 -2.606500 0
M  V30 17 C -0.836276 1.996115 -2.117390 0
M  V30 18 C -2.048387 1.406849 -2.438689 0
M  V30 19 C -2.042818 0.300513 -3.231945 0
M  V30 20 C -3.343014 -0.357419 -3.595079 0
M  V30 21 F -4.385298 0.540832 -3.449144 0
M  V30 22 F -3.564602 -1.466923 -2.793272 0
M  V30 23 F -3.284742 -0.754807 -4.919342 0
M  V30 24 C -0.890571 -0.277847 -3.742375 0
M  V30 25 C 0.327616 0.319406 -3.415859 0
M  V30 26 Cl 1.747051 -0.445910 -4.082515 0
M  V30 27 C 2.467049 -0.928794 -0.024358 0
M  V30 28 C 2.033751 -1.412892 1.202542 0
M  V30 29 C 0.697867 -0.501266 4.548572 0
M  V30 30 N 0.293461 -1.067130 5.714713 0
M  V30 31 C 0.336242 -2.409309 5.846213 0
M  V30 32 H -1.476413 -2.688221 8.034949 0
M  V30 33 H -0.149233 -3.013510 9.073316 0
M  V30 34 H 1.052797 -5.291116 4.486059 0
M  V30 35 H 1.248759 1.410861 2.752240 0
M  V30 36 H 2.018510 2.325187 0.562748 0
M  V30 37 H 3.795480 0.433338 -1.933867 0
M  V30 38 H -0.715242 2.871719 -1.500015 0
M  V30 39 H -2.947814 1.852103 -2.044702 0
M  V30 40 H -0.946632 -1.162481 -4.371641 0
M  V30 41 H 2.801068 -1.638907 -0.773141 0
M  V30 42 H 2.046462 -2.489780 1.364986 0
M  V30 43 H 0.639899 0.577753 4.504819 0
M  V30 END ATOM
M  V30 BEGIN BOND
M  V30 1 1 1 2
M  V30 2 2 2 3
M  V30 3 1 3 4
M  V30 4 1 4 5
M  V30 5 2 5 6
M  V30 6 1 6 7
M  V30 7 1 7 8
M  V30 8 2 8 9
M  V30 9 1 9 10
M  V30 10 2 10 11
M  V30 11 1 11 12
M  V30 12 1 12 13
M  V30 13 2 13 14
M  V30 14 2 13 15
M  V30 15 1 13 16
M  V30 16 2 16 17
M  V30 17 1 17 18
M  V30 18 2 18 19
M  V30 19 1 19 20
M  V30 20 1 20 21
M  V30 21 1 20 22
M  V30 22 1 20 23
M  V30 23 1 19 24
M  V30 24 2 24 25
M  V30 25 1 25 26
M  V30 26 1 11 27
M  V30 27 2 27 28
M  V30 28 2 7 29
M  V30 29 1 29 30
M  V30 30 2 30 31
M  V30 31 1 31 2
M  V30 32 1 31 5
M  V30 33 1 28 8
M  V30 34 1 25 16
M  V30 35 1 1 32
M  V30 36 1 1 33
M  V30 37 1 4 34
M  V30 38 1 9 35
M  V30 39 1 10 36
M  V30 40 1 12 37
M  V30 41 1 17 38
M  V30 42 1 18 39
M  V30 43 1 24 40
M  V30 44 1 27 41
M  V30 45 1 28 42
M  V30 46 1 29 43
M  V30 END BOND
M  V30 END CTAB
M  END
>  <Dataset>  (856) 
ChEMBL_Kinases

>  <Ligand_Instance>  (856) 
nan

>  <PDB_ID>  (856) 
nan

>  <Standardized_SMILES>  (856) 
Nc1n[nH]c2nc(-c3ccc(NS(=O)(=O)c4ccc(C(F)(F)F)cc4Cl)cc3)cnc12

>  <Name>  (856) 
nan

>  <Pocket>  (856) 
nan

>  <ATP_Site>  (856) 
nan

>  <Peripheral>  (856) 
nan

>  <Num_H_Atoms_ProtBoundConf>  (856) 
nan

>  <Num_Resolved_Atoms>  (856) 
nan

>  <Num_Not_Resolved_Atoms>  (856) 
nan

$$$$
CHEMBL3356046
     RDKit          3D

  0  0  0  0  0  0  0  0  0  0999 V3000
M  V30 BEGIN CTAB
M  V30 COUNTS 40 43 0 0 0
M  V30 BEGIN ATOM
M  V30 1 N 1.857464 -7.774520 0.614437 0
M  V30 2 C 2.417697 -6.466404 0.688204 0
M  V30 3 N 3.663625 -6.082555 1.079636 0
M  V30 4 N 3.766644 -4.767107 0.996419 0
M  V30 5 C 2.588147 -4.265308 0.548300 0
M  V30 6 N 2.231758 -2.987618 0.311405 0
M  V30 7 C 0.992593 -2.677477 -0.140197 0
M  V30 8 C 0.599431 -1.298202 -0.398827 0
M  V30 9 C -0.617124 -0.877301 -0.852663 0
M  V30 10 C -0.922999 0.448433 -1.076651 0
M  V30 11 C 0.027648 1.430617 -0.840109 0
M  V30 12 N -0.426482 2.747070 -1.113892 0
M  V30 13 S -0.081445 3.995324 0.030183 0
M  V30 14 O 1.388446 4.052949 0.281565 0
M  V30 15 O -0.618178 5.314305 -0.425238 0
M  V30 16 C -0.842095 3.602554 1.562593 0
M  V30 17 C -0.191268 3.419727 2.767054 0
M  V30 18 C -0.942052 3.113395 3.885389 0
M  V30 19 C -2.323293 2.986823 3.824085 0
M  V30 20 C -2.965635 3.174587 2.599832 0
M  V30 21 C -2.217737 3.483801 1.466117 0
M  V30 22 F -2.966144 3.637236 0.356476 0
M  V30 23 C 1.264636 1.034786 -0.381543 0
M  V30 24 C 1.532489 -0.301292 -0.169621 0
M  V30 25 C 0.123091 -3.729923 -0.342723 0
M  V30 26 N 0.469269 -5.022675 -0.107965 0
M  V30 27 C 1.716153 -5.316710 0.344826 0
M  V30 28 H 1.003027 -7.878658 1.207590 0
M  V30 29 H 2.146995 -8.626630 0.082277 0
M  V30 30 H 4.643784 -4.226017 1.247599 0
M  V30 31 H -1.367009 -1.633265 -1.040958 0
M  V30 32 H -1.928282 0.665911 -1.439930 0
M  V30 33 H -0.957987 2.934414 -1.997764 0
M  V30 34 H 0.873885 3.531961 2.743394 0
M  V30 35 H -0.401295 2.975564 4.817857 0
M  V30 36 H -2.898113 2.746800 4.706963 0
M  V30 37 H -4.045789 3.066813 2.594520 0
M  V30 38 H 1.963364 1.843317 -0.215557 0
M  V30 39 H 2.522827 -0.544057 0.190848 0
M  V30 40 H -0.876568 -3.579114 -0.698102 0
M  V30 END ATOM
M  V30 BEGIN BOND
M  V30 1 1 1 2
M  V30 2 2 2 3
M  V30 3 1 3 4
M  V30 4 1 4 5
M  V30 5 2 5 6
M  V30 6 1 6 7
M  V30 7 1 7 8
M  V30 8 2 8 9
M  V30 9 1 9 10
M  V30 10 2 10 11
M  V30 11 1 11 12
M  V30 12 1 12 13
M  V30 13 2 13 14
M  V30 14 2 13 15
M  V30 15 1 13 16
M  V30 16 2 16 17
M  V30 17 1 17 18
M  V30 18 2 18 19
M  V30 19 1 19 20
M  V30 20 2 20 21
M  V30 21 1 21 22
M  V30 22 1 11 23
M  V30 23 2 23 24
M  V30 24 2 7 25
M  V30 25 1 25 26
M  V30 26 2 26 27
M  V30 27 1 27 2
M  V30 28 1 27 5
M  V30 29 1 24 8
M  V30 30 1 21 16
M  V30 31 1 1 28
M  V30 32 1 1 29
M  V30 33 1 4 30
M  V30 34 1 9 31
M  V30 35 1 10 32
M  V30 36 1 12 33
M  V30 37 1 17 34
M  V30 38 1 18 35
M  V30 39 1 19 36
M  V30 40 1 20 37
M  V30 41 1 23 38
M  V30 42 1 24 39
M  V30 43 1 25 40
M  V30 END BOND
M  V30 END CTAB
M  END
>  <Dataset>  (857) 
ChEMBL_Kinases

>  <Ligand_Instance>  (857) 
nan

>  <PDB_ID>  (857) 
nan

>  <Standardized_SMILES>  (857) 
Nc1n[nH]c2nc(-c3ccc(NS(=O)(=O)c4ccccc4F)cc3)cnc12

>  <Name>  (857) 
nan

>  <Pocket>  (857) 
nan

>  <ATP_Site>  (857) 
nan

>  <Peripheral>  (857) 
nan

>  <Num_H_Atoms_ProtBoundConf>  (857) 
nan

>  <Num_Resolved_Atoms>  (857) 
nan

>  <Num_Not_Resolved_Atoms>  (857) 
nan

$$$$
CHEMBL3356047
     RDKit          3D

  0  0  0  0  0  0  0  0  0  0999 V3000
M  V30 BEGIN CTAB
M  V30 COUNTS 40 43 0 0 0
M  V30 BEGIN ATOM
M  V30 1 N 3.015786 -7.490040 0.792889 0
M  V30 2 C 2.898493 -6.304350 1.574431 0
M  V30 3 N 3.056323 -6.059946 2.885534 0
M  V30 4 N 2.837505 -4.780690 3.145755 0
M  V30 5 C 2.523016 -4.112783 2.016393 0
M  V30 6 N 2.218263 -2.828883 1.739650 0
M  V30 7 C 1.938676 -2.431887 0.482978 0
M  V30 8 C 1.607851 -1.040970 0.178907 0
M  V30 9 C 1.308339 -0.539571 -1.069449 0
M  V30 10 C 1.007976 0.794765 -1.253657 0
M  V30 11 C 0.996062 1.690891 -0.178258 0
M  V30 12 N 0.696104 3.063630 -0.312914 0
M  V30 13 S -0.358742 3.915116 0.755794 0
M  V30 14 O 0.130834 3.838783 2.176640 0
M  V30 15 O -0.374718 5.363797 0.390071 0
M  V30 16 C -1.960912 3.237699 0.698889 0
M  V30 17 C -2.428060 2.181871 -0.050246 0
M  V30 18 C -3.746850 1.792664 0.046497 0
M  V30 19 F -4.109425 0.742891 -0.731473 0
M  V30 20 C -4.645971 2.431054 0.883718 0
M  V30 21 C -4.175916 3.482486 1.628152 0
M  V30 22 C -2.850492 3.889319 1.544296 0
M  V30 23 F -2.574652 4.942879 2.353710 0
M  V30 24 C 1.292753 1.210482 1.079204 0
M  V30 25 C 1.588076 -0.133147 1.219639 0
M  V30 26 C 1.982335 -3.406657 -0.492946 0
M  V30 27 N 2.284039 -4.696840 -0.243541 0
M  V30 28 C 2.563781 -5.080358 1.031425 0
M  V30 29 H 2.311160 -8.279498 0.713361 0
M  V30 30 H 2.325695 -8.247016 0.724775 0
M  V30 31 H 2.891647 -4.312081 4.089651 0
M  V30 32 H 1.317422 -1.224473 -1.891532 0
M  V30 33 H 0.776946 1.165503 -2.237106 0
M  V30 34 H 1.195569 3.483138 -1.138073 0
M  V30 35 H -1.670250 1.739582 -0.674266 0
M  V30 36 H -5.646513 2.046984 0.881338 0
M  V30 37 H -4.920750 3.949709 2.269115 0
M  V30 38 H 1.308016 1.830266 1.971278 0
M  V30 39 H 1.822810 -0.499706 2.231848 0
M  V30 40 H 1.771254 -3.173058 -1.526650 0
M  V30 END ATOM
M  V30 BEGIN BOND
M  V30 1 1 1 2
M  V30 2 2 2 3
M  V30 3 1 3 4
M  V30 4 1 4 5
M  V30 5 2 5 6
M  V30 6 1 6 7
M  V30 7 1 7 8
M  V30 8 2 8 9
M  V30 9 1 9 10
M  V30 10 2 10 11
M  V30 11 1 11 12
M  V30 12 1 12 13
M  V30 13 2 13 14
M  V30 14 2 13 15
M  V30 15 1 13 16
M  V30 16 2 16 17
M  V30 17 1 17 18
M  V30 18 1 18 19
M  V30 19 2 18 20
M  V30 20 1 20 21
M  V30 21 2 21 22
M  V30 22 1 22 23
M  V30 23 1 11 24
M  V30 24 2 24 25
M  V30 25 2 7 26
M  V30 26 1 26 27
M  V30 27 2 27 28
M  V30 28 1 28 2
M  V30 29 1 28 5
M  V30 30 1 25 8
M  V30 31 1 22 16
M  V30 32 1 1 29
M  V30 33 1 1 30
M  V30 34 1 4 31
M  V30 35 1 9 32
M  V30 36 1 10 33
M  V30 37 1 12 34
M  V30 38 1 17 35
M  V30 39 1 20 36
M  V30 40 1 21 37
M  V30 41 1 24 38
M  V30 42 1 25 39
M  V30 43 1 26 40
M  V30 END BOND
M  V30 END CTAB
M  END
>  <Dataset>  (858) 
ChEMBL_Kinases

>  <Ligand_Instance>  (858) 
nan

>  <PDB_ID>  (858) 
nan

>  <Standardized_SMILES>  (858) 
Nc1n[nH]c2nc(-c3ccc(NS(=O)(=O)c4cc(F)ccc4F)cc3)cnc12

>  <Name>  (858) 
nan

>  <Pocket>  (858) 
nan

>  <ATP_Site>  (858) 
nan

>  <Peripheral>  (858) 
nan

>  <Num_H_Atoms_ProtBoundConf>  (858) 
nan

>  <Num_Resolved_Atoms>  (858) 
nan

>  <Num_Not_Resolved_Atoms>  (858) 
nan

$$$$
CHEMBL3356057
     RDKit          3D

  0  0  0  0  0  0  0  0  0  0999 V3000
M  V30 BEGIN CTAB
M  V30 COUNTS 38 41 0 0 0
M  V30 BEGIN ATOM
M  V30 1 O -1.856760 -2.887558 4.961923 0
M  V30 2 S -1.574139 -2.499849 3.512802 0
M  V30 3 O -2.935690 -2.333428 2.874413 0
M  V30 4 N -0.801066 -0.995856 3.445580 0
M  V30 5 C -0.421145 -0.264373 2.318324 0
M  V30 6 C -0.383852 -0.752580 1.015984 0
M  V30 7 C -0.010263 -0.057421 -0.128203 0
M  V30 8 C 0.361331 1.275895 0.093906 0
M  V30 9 C 0.788058 2.066205 -1.046624 0
M  V30 10 C 0.868022 1.633738 -2.345256 0
M  V30 11 N 1.270180 2.401342 -3.385420 0
M  V30 12 C 1.622615 3.679170 -3.166046 0
M  V30 13 C 2.061809 4.745166 -3.899372 0
M  V30 14 N 2.252863 5.818650 -3.083581 0
M  V30 15 N 1.944972 5.473107 -1.822801 0
M  V30 16 C 1.558397 4.159463 -1.877482 0
M  V30 17 N 1.154162 3.361042 -0.880584 0
M  V30 18 C 0.358802 1.856666 1.343332 0
M  V30 19 C -0.033154 1.047136 2.380361 0
M  V30 20 F -0.026905 1.642550 3.621710 0
M  V30 21 C -0.702899 -3.832235 2.806509 0
M  V30 22 C 0.532271 -3.946393 2.220005 0
M  V30 23 C 0.965422 -5.169670 1.754256 0
M  V30 24 C 0.199374 -6.339550 1.845909 0
M  V30 25 C -1.029753 -6.206225 2.432506 0
M  V30 26 Cl -1.939327 -7.722971 2.519444 0
M  V30 27 C -1.508737 -4.982116 2.919425 0
M  V30 28 Cl -3.117909 -5.124563 3.611894 0
M  V30 29 H -0.563871 -0.531528 4.375923 0
M  V30 30 H -0.678668 -1.776121 0.838776 0
M  V30 31 H -0.021389 -0.546294 -1.088565 0
M  V30 32 H 0.600045 0.619868 -2.581471 0
M  V30 33 H 2.228945 4.731459 -4.961167 0
M  V30 34 H 1.988971 6.079302 -0.971319 0
M  V30 35 H 0.648828 2.887663 1.478720 0
M  V30 36 H 1.009014 -2.996400 2.209838 0
M  V30 37 H 1.962344 -5.143413 1.304271 0
M  V30 38 H 0.703822 -7.191012 1.434264 0
M  V30 END ATOM
M  V30 BEGIN BOND
M  V30 1 2 1 2
M  V30 2 2 2 3
M  V30 3 1 2 4
M  V30 4 1 4 5
M  V30 5 2 5 6
M  V30 6 1 6 7
M  V30 7 2 7 8
M  V30 8 1 8 9
M  V30 9 2 9 10
M  V30 10 1 10 11
M  V30 11 2 11 12
M  V30 12 1 12 13
M  V30 13 2 13 14
M  V30 14 1 14 15
M  V30 15 1 15 16
M  V30 16 2 16 17
M  V30 17 1 8 18
M  V30 18 2 18 19
M  V30 19 1 19 20
M  V30 20 1 2 21
M  V30 21 2 21 22
M  V30 22 1 22 23
M  V30 23 2 23 24
M  V30 24 1 24 25
M  V30 25 1 25 26
M  V30 26 2 25 27
M  V30 27 1 27 28
M  V30 28 1 19 5
M  V30 29 1 27 21
M  V30 30 1 17 9
M  V30 31 1 16 12
M  V30 32 1 4 29
M  V30 33 1 6 30
M  V30 34 1 7 31
M  V30 35 1 10 32
M  V30 36 1 13 33
M  V30 37 1 15 34
M  V30 38 1 18 35
M  V30 39 1 22 36
M  V30 40 1 23 37
M  V30 41 1 24 38
M  V30 END BOND
M  V30 END CTAB
M  END
>  <Dataset>  (859) 
ChEMBL_Kinases

>  <Ligand_Instance>  (859) 
nan

>  <PDB_ID>  (859) 
nan

>  <Standardized_SMILES>  (859) 
O=S(=O)(Nc1ccc(-c2cnc3cn[nH]c3n2)cc1F)c1cccc(Cl)c1Cl

>  <Name>  (859) 
nan

>  <Pocket>  (859) 
nan

>  <ATP_Site>  (859) 
nan

>  <Peripheral>  (859) 
nan

>  <Num_H_Atoms_ProtBoundConf>  (859) 
nan

>  <Num_Resolved_Atoms>  (859) 
nan

>  <Num_Not_Resolved_Atoms>  (859) 
nan

$$$$
CHEMBL3356049
     RDKit          3D

  0  0  0  0  0  0  0  0  0  0999 V3000
M  V30 BEGIN CTAB
M  V30 COUNTS 43 46 0 0 0
M  V30 BEGIN ATOM
M  V30 1 C 2.367174 -0.944046 6.121128 0
M  V30 2 C 3.054785 -1.355613 4.872774 0
M  V30 3 C 3.366269 -2.699969 4.691705 0
M  V30 4 C 4.005578 -3.112506 3.540970 0
M  V30 5 C 4.356734 -2.211756 2.534626 0
M  V30 6 F 4.977421 -2.723106 1.454190 0
M  V30 7 C 4.049486 -0.868232 2.707440 0
M  V30 8 S 4.489433 0.237739 1.454142 0
M  V30 9 O 4.143862 1.644327 1.900556 0
M  V30 10 O 5.977638 0.188872 1.250743 0
M  V30 11 N 3.754393 -0.122003 -0.067290 0
M  V30 12 C 2.359175 -0.134725 -0.313885 0
M  V30 13 C 1.485728 -0.747484 0.571478 0
M  V30 14 C 0.123657 -0.762510 0.335220 0
M  V30 15 C -0.420489 -0.172613 -0.783613 0
M  V30 16 C -1.839798 -0.134564 -1.122082 0
M  V30 17 C -2.807338 -0.708132 -0.322072 0
M  V30 18 N -4.127076 -0.683484 -0.618293 0
M  V30 19 C -4.543261 -0.065375 -1.761034 0
M  V30 20 C -5.807891 0.103668 -2.294908 0
M  V30 21 N -7.044108 -0.352231 -1.748868 0
M  V30 22 N -5.578040 0.792659 -3.435253 0
M  V30 23 N -4.286251 1.031214 -3.596919 0
M  V30 24 C -3.583154 0.512728 -2.570273 0
M  V30 25 N -2.273673 0.469989 -2.244922 0
M  V30 26 C 0.477388 0.427703 -1.642881 0
M  V30 27 C 1.843172 0.465845 -1.445650 0
M  V30 28 C 3.409987 -0.462305 3.860750 0
M  V30 29 H 2.406443 0.135085 6.262810 0
M  V30 30 H 2.854248 -1.427217 6.993367 0
M  V30 31 H 1.319875 -1.332068 6.092298 0
M  V30 32 H 3.085329 -3.397702 5.489223 0
M  V30 33 H 4.196656 -4.189243 3.513586 0
M  V30 34 H 4.308271 -0.363048 -0.939388 0
M  V30 35 H 1.829199 -1.231376 1.469461 0
M  V30 36 H -0.556103 -1.240570 1.026284 0
M  V30 37 H -2.542383 -1.212604 0.596208 0
M  V30 38 H -7.575238 -0.006412 -0.906502 0
M  V30 39 H -7.207142 0.267288 -0.914329 0
M  V30 40 H -3.831265 1.547381 -4.396832 0
M  V30 41 H 0.109414 0.916197 -2.553484 0
M  V30 42 H 2.481956 0.965413 -2.181571 0
M  V30 43 H 3.164904 0.575408 4.009880 0
M  V30 END ATOM
M  V30 BEGIN BOND
M  V30 1 1 1 2
M  V30 2 2 2 3
M  V30 3 1 3 4
M  V30 4 2 4 5
M  V30 5 1 5 6
M  V30 6 1 5 7
M  V30 7 1 7 8
M  V30 8 2 8 9
M  V30 9 2 8 10
M  V30 10 1 8 11
M  V30 11 1 11 12
M  V30 12 2 12 13
M  V30 13 1 13 14
M  V30 14 2 14 15
M  V30 15 1 15 16
M  V30 16 2 16 17
M  V30 17 1 17 18
M  V30 18 2 18 19
M  V30 19 1 19 20
M  V30 20 1 20 21
M  V30 21 2 20 22
M  V30 22 1 22 23
M  V30 23 1 23 24
M  V30 24 2 24 25
M  V30 25 1 15 26
M  V30 26 2 26 27
M  V30 27 2 7 28
M  V30 28 1 28 2
M  V30 29 1 27 12
M  V30 30 1 25 16
M  V30 31 1 24 19
M  V30 32 1 1 29
M  V30 33 1 1 30
M  V30 34 1 1 31
M  V30 35 1 3 32
M  V30 36 1 4 33
M  V30 37 1 11 34
M  V30 38 1 13 35
M  V30 39 1 14 36
M  V30 40 1 17 37
M  V30 41 1 21 38
M  V30 42 1 21 39
M  V30 43 1 23 40
M  V30 44 1 26 41
M  V30 45 1 27 42
M  V30 46 1 28 43
M  V30 END BOND
M  V30 END CTAB
M  END
>  <Dataset>  (860) 
ChEMBL_Kinases

>  <Ligand_Instance>  (860) 
nan

>  <PDB_ID>  (860) 
nan

>  <Standardized_SMILES>  (860) 
Cc1ccc(F)c(S(=O)(=O)Nc2ccc(-c3cnc4c(N)n[nH]c4n3)cc2)c1

>  <Name>  (860) 
nan

>  <Pocket>  (860) 
nan

>  <ATP_Site>  (860) 
nan

>  <Peripheral>  (860) 
nan

>  <Num_H_Atoms_ProtBoundConf>  (860) 
nan

>  <Num_Resolved_Atoms>  (860) 
nan

>  <Num_Not_Resolved_Atoms>  (860) 
nan

$$$$
CHEMBL3356050
     RDKit          3D

  0  0  0  0  0  0  0  0  0  0999 V3000
M  V30 BEGIN CTAB
M  V30 COUNTS 44 47 0 0 0
M  V30 BEGIN ATOM
M  V30 1 C -3.174020 1.638353 -2.622082 0
M  V30 2 O -1.931314 1.708156 -1.991249 0
M  V30 3 C -0.778734 1.514019 -2.757891 0
M  V30 4 C -0.731951 1.252608 -4.112694 0
M  V30 5 C 0.498517 1.087691 -4.710153 0
M  V30 6 C 1.666060 1.186343 -3.944975 0
M  V30 7 F 2.792993 1.000627 -4.673133 0
M  V30 8 C 1.605934 1.448061 -2.591423 0
M  V30 9 S 3.180462 1.524295 -1.856723 0
M  V30 10 O 3.899089 0.215418 -2.108282 0
M  V30 11 O 3.959421 2.598817 -2.600990 0
M  V30 12 N 3.151163 1.845702 -0.182461 0
M  V30 13 C 2.510564 0.936528 0.686088 0
M  V30 14 C 1.681876 1.477221 1.656942 0
M  V30 15 C 1.008412 0.680392 2.556226 0
M  V30 16 C 1.129160 -0.693268 2.530263 0
M  V30 17 C 0.471937 -1.639374 3.423062 0
M  V30 18 C -0.375908 -1.226618 4.429336 0
M  V30 19 N -1.000902 -2.067098 5.273264 0
M  V30 20 C -0.814643 -3.385082 5.161749 0
M  V30 21 C -1.220629 -4.560422 5.766174 0
M  V30 22 N -2.123994 -4.566823 6.878177 0
M  V30 23 N -0.634881 -5.618979 5.140003 0
M  V30 24 N 0.137283 -5.168110 4.149735 0
M  V30 25 C 0.031280 -3.811686 4.159069 0
M  V30 26 N 0.651271 -2.962284 3.320486 0
M  V30 27 C 1.964045 -1.206135 1.549305 0
M  V30 28 C 2.651384 -0.434562 0.635222 0
M  V30 29 C 0.371553 1.612405 -1.997789 0
M  V30 30 H -3.485406 0.584889 -2.785745 0
M  V30 31 H -3.911819 2.161384 -1.949318 0
M  V30 32 H -3.115428 2.195880 -3.577695 0
M  V30 33 H -1.673058 1.194703 -4.616572 0
M  V30 34 H 0.505967 0.880602 -5.789615 0
M  V30 35 H 3.588345 2.692646 0.244491 0
M  V30 36 H 1.514542 2.539730 1.767929 0
M  V30 37 H 0.363317 1.088463 3.313124 0
M  V30 38 H -0.585545 -0.180426 4.593877 0
M  V30 39 H -1.800973 -4.849651 7.847214 0
M  V30 40 H -3.117758 -4.292125 6.750953 0
M  V30 41 H 0.700223 -5.758290 3.509819 0
M  V30 42 H 2.111911 -2.270370 1.462392 0
M  V30 43 H 3.297393 -0.857651 -0.121446 0
M  V30 44 H 0.430746 1.813198 -0.937072 0
M  V30 END ATOM
M  V30 BEGIN BOND
M  V30 1 1 1 2
M  V30 2 1 2 3
M  V30 3 2 3 4
M  V30 4 1 4 5
M  V30 5 2 5 6
M  V30 6 1 6 7
M  V30 7 1 6 8
M  V30 8 1 8 9
M  V30 9 2 9 10
M  V30 10 2 9 11
M  V30 11 1 9 12
M  V30 12 1 12 13
M  V30 13 2 13 14
M  V30 14 1 14 15
M  V30 15 2 15 16
M  V30 16 1 16 17
M  V30 17 2 17 18
M  V30 18 1 18 19
M  V30 19 2 19 20
M  V30 20 1 20 21
M  V30 21 1 21 22
M  V30 22 2 21 23
M  V30 23 1 23 24
M  V30 24 1 24 25
M  V30 25 2 25 26
M  V30 26 1 16 27
M  V30 27 2 27 28
M  V30 28 2 8 29
M  V30 29 1 29 3
M  V30 30 1 28 13
M  V30 31 1 26 17
M  V30 32 1 25 20
M  V30 33 1 1 30
M  V30 34 1 1 31
M  V30 35 1 1 32
M  V30 36 1 4 33
M  V30 37 1 5 34
M  V30 38 1 12 35
M  V30 39 1 14 36
M  V30 40 1 15 37
M  V30 41 1 18 38
M  V30 42 1 22 39
M  V30 43 1 22 40
M  V30 44 1 24 41
M  V30 45 1 27 42
M  V30 46 1 28 43
M  V30 47 1 29 44
M  V30 END BOND
M  V30 END CTAB
M  END
>  <Dataset>  (861) 
ChEMBL_Kinases

>  <Ligand_Instance>  (861) 
nan

>  <PDB_ID>  (861) 
nan

>  <Standardized_SMILES>  (861) 
COc1ccc(F)c(S(=O)(=O)Nc2ccc(-c3cnc4c(N)n[nH]c4n3)cc2)c1

>  <Name>  (861) 
nan

>  <Pocket>  (861) 
nan

>  <ATP_Site>  (861) 
nan

>  <Peripheral>  (861) 
nan

>  <Num_H_Atoms_ProtBoundConf>  (861) 
nan

>  <Num_Resolved_Atoms>  (861) 
nan

>  <Num_Not_Resolved_Atoms>  (861) 
nan

$$$$
CHEMBL3356051
     RDKit          3D

  0  0  0  0  0  0  0  0  0  0999 V3000
M  V30 BEGIN CTAB
M  V30 COUNTS 41 44 0 0 0
M  V30 BEGIN ATOM
M  V30 1 N -0.649875 1.577560 -1.766233 0
M  V30 2 C 0.397383 1.685108 -2.247153 0
M  V30 3 C 1.702592 1.829034 -2.821685 0
M  V30 4 C 1.901243 1.346069 -4.095251 0
M  V30 5 C 3.144739 1.512750 -4.669326 0
M  V30 6 C 4.165373 2.145529 -3.990358 0
M  V30 7 Cl 5.734317 2.365782 -4.693647 0
M  V30 8 C 3.872843 2.593878 -2.722926 0
M  V30 9 C 2.645378 2.471011 -2.057922 0
M  V30 10 S 2.489218 3.063700 -0.455999 0
M  V30 11 O 3.663587 3.971977 -0.135687 0
M  V30 12 O 1.259746 3.975954 -0.436912 0
M  V30 13 N 2.306389 1.902587 0.772087 0
M  V30 14 C 1.471824 0.868254 1.221335 0
M  V30 15 C 1.096643 -0.215741 0.456324 0
M  V30 16 C 0.288884 -1.250394 0.873933 0
M  V30 17 C -0.156507 -1.149564 2.173519 0
M  V30 18 C -1.023713 -2.173432 2.751239 0
M  V30 19 C -1.445564 -3.283685 2.049468 0
M  V30 20 N -2.242550 -4.254942 2.529218 0
M  V30 21 C -2.672244 -4.151670 3.792905 0
M  V30 22 C -3.483421 -4.934430 4.611124 0
M  V30 23 N -4.088683 -6.155484 4.200443 0
M  V30 24 N -3.555203 -4.303361 5.806347 0
M  V30 25 N -2.837018 -3.177676 5.775568 0
M  V30 26 C -2.281595 -3.062106 4.541314 0
M  V30 27 N -1.484358 -2.120150 4.013987 0
M  V30 28 C 0.158665 -0.110586 3.023581 0
M  V30 29 C 0.970319 0.883408 2.530696 0
M  V30 30 H 1.098035 0.853758 -4.616479 0
M  V30 31 H 3.298714 1.132390 -5.670333 0
M  V30 32 H 4.697816 3.093194 -2.202381 0
M  V30 33 H 3.099384 1.914339 1.491384 0
M  V30 34 H 1.454586 -0.306988 -0.555384 0
M  V30 35 H 0.037178 -2.067530 0.216043 0
M  V30 36 H -1.152860 -3.454459 1.027681 0
M  V30 37 H -4.710036 -6.225909 3.359418 0
M  V30 38 H -3.944026 -7.050091 4.719221 0
M  V30 39 H -2.714045 -2.503566 6.542080 0
M  V30 40 H -0.200518 -0.048837 4.041793 0
M  V30 41 H 1.240196 1.718269 3.172050 0
M  V30 END ATOM
M  V30 BEGIN BOND
M  V30 1 3 1 2
M  V30 2 1 2 3
M  V30 3 2 3 4
M  V30 4 1 4 5
M  V30 5 2 5 6
M  V30 6 1 6 7
M  V30 7 1 6 8
M  V30 8 2 8 9
M  V30 9 1 9 10
M  V30 10 2 10 11
M  V30 11 2 10 12
M  V30 12 1 10 13
M  V30 13 1 13 14
M  V30 14 2 14 15
M  V30 15 1 15 16
M  V30 16 2 16 17
M  V30 17 1 17 18
M  V30 18 2 18 19
M  V30 19 1 19 20
M  V30 20 2 20 21
M  V30 21 1 21 22
M  V30 22 1 22 23
M  V30 23 2 22 24
M  V30 24 1 24 25
M  V30 25 1 25 26
M  V30 26 2 26 27
M  V30 27 1 17 28
M  V30 28 2 28 29
M  V30 29 1 9 3
M  V30 30 1 29 14
M  V30 31 1 27 18
M  V30 32 1 26 21
M  V30 33 1 4 30
M  V30 34 1 5 31
M  V30 35 1 8 32
M  V30 36 1 13 33
M  V30 37 1 15 34
M  V30 38 1 16 35
M  V30 39 1 19 36
M  V30 40 1 23 37
M  V30 41 1 23 38
M  V30 42 1 25 39
M  V30 43 1 28 40
M  V30 44 1 29 41
M  V30 END BOND
M  V30 END CTAB
M  END
>  <Dataset>  (862) 
ChEMBL_Kinases

>  <Ligand_Instance>  (862) 
nan

>  <PDB_ID>  (862) 
nan

>  <Standardized_SMILES>  (862) 
N#Cc1ccc(Cl)cc1S(=O)(=O)Nc1ccc(-c2cnc3c(N)n[nH]c3n2)cc1

>  <Name>  (862) 
nan

>  <Pocket>  (862) 
nan

>  <ATP_Site>  (862) 
nan

>  <Peripheral>  (862) 
nan

>  <Num_H_Atoms_ProtBoundConf>  (862) 
nan

>  <Num_Resolved_Atoms>  (862) 
nan

>  <Num_Not_Resolved_Atoms>  (862) 
nan

$$$$
CHEMBL3356052
     RDKit          3D

  0  0  0  0  0  0  0  0  0  0999 V3000
M  V30 BEGIN CTAB
M  V30 COUNTS 44 47 0 0 0
M  V30 BEGIN ATOM
M  V30 1 C -1.679200 1.252065 -3.831041 0
M  V30 2 C -0.257932 0.982984 -3.524892 0
M  V30 3 C 0.339323 -0.096142 -4.135543 0
M  V30 4 C 1.652459 -0.352480 -3.858593 0
M  V30 5 C 2.343082 0.474772 -2.976676 0
M  V30 6 C 3.716545 0.139873 -2.738107 0
M  V30 7 N 4.829379 -0.115115 -2.554651 0
M  V30 8 C 1.721787 1.540450 -2.384979 0
M  V30 9 S 2.720998 2.490012 -1.298282 0
M  V30 10 O 1.905667 3.617242 -0.738140 0
M  V30 11 O 3.867816 3.108141 -2.044694 0
M  V30 12 N 3.300852 1.492827 -0.004318 0
M  V30 13 C 2.339775 0.896446 0.857638 0
M  V30 14 C 2.553197 -0.434661 1.150073 0
M  V30 15 C 1.707264 -1.178170 1.981030 0
M  V30 16 C 0.615408 -0.540997 2.525645 0
M  V30 17 C -0.256085 -1.328469 3.388850 0
M  V30 18 C -1.386554 -0.841620 4.009934 0
M  V30 19 N -2.156328 -1.618427 4.799297 0
M  V30 20 C -1.847619 -2.916933 5.015061 0
M  V30 21 C -2.439179 -3.919875 5.755911 0
M  V30 22 N -3.630392 -3.724088 6.515257 0
M  V30 23 N -1.649209 -5.011627 5.570388 0
M  V30 24 N -0.642778 -4.702305 4.771869 0
M  V30 25 C -0.713569 -3.412367 4.394338 0
M  V30 26 N 0.061684 -2.619566 3.595898 0
M  V30 27 C 0.399203 0.786393 2.236361 0
M  V30 28 C 1.238578 1.511165 1.416134 0
M  V30 29 C 0.406872 1.826733 -2.639653 0
M  V30 30 H -2.195845 0.272236 -3.771826 0
M  V30 31 H -1.839994 1.672123 -4.835883 0
M  V30 32 H -2.160410 1.896627 -3.067392 0
M  V30 33 H -0.216085 -0.722279 -4.814827 0
M  V30 34 H 2.130077 -1.189990 -4.327435 0
M  V30 35 H 4.313231 1.327126 0.149012 0
M  V30 36 H 3.411412 -0.983456 0.737857 0
M  V30 37 H 1.945874 -2.238103 2.166387 0
M  V30 38 H -1.657085 0.174731 3.861048 0
M  V30 39 H -3.669617 -3.527653 7.541333 0
M  V30 40 H -4.443199 -3.816057 5.844890 0
M  V30 41 H 0.114178 -5.351167 4.462751 0
M  V30 42 H -0.453848 1.295812 2.658020 0
M  V30 43 H 1.098717 2.539974 1.172775 0
M  V30 44 H -0.040566 2.672996 -2.153239 0
M  V30 END ATOM
M  V30 BEGIN BOND
M  V30 1 1 1 2
M  V30 2 2 2 3
M  V30 3 1 3 4
M  V30 4 2 4 5
M  V30 5 1 5 6
M  V30 6 3 6 7
M  V30 7 1 5 8
M  V30 8 1 8 9
M  V30 9 2 9 10
M  V30 10 2 9 11
M  V30 11 1 9 12
M  V30 12 1 12 13
M  V30 13 2 13 14
M  V30 14 1 14 15
M  V30 15 2 15 16
M  V30 16 1 16 17
M  V30 17 2 17 18
M  V30 18 1 18 19
M  V30 19 2 19 20
M  V30 20 1 20 21
M  V30 21 1 21 22
M  V30 22 2 21 23
M  V30 23 1 23 24
M  V30 24 1 24 25
M  V30 25 2 25 26
M  V30 26 1 16 27
M  V30 27 2 27 28
M  V30 28 2 8 29
M  V30 29 1 29 2
M  V30 30 1 28 13
M  V30 31 1 26 17
M  V30 32 1 25 20
M  V30 33 1 1 30
M  V30 34 1 1 31
M  V30 35 1 1 32
M  V30 36 1 3 33
M  V30 37 1 4 34
M  V30 38 1 12 35
M  V30 39 1 14 36
M  V30 40 1 15 37
M  V30 41 1 18 38
M  V30 42 1 22 39
M  V30 43 1 22 40
M  V30 44 1 24 41
M  V30 45 1 27 42
M  V30 46 1 28 43
M  V30 47 1 29 44
M  V30 END BOND
M  V30 END CTAB
M  END
>  <Dataset>  (863) 
ChEMBL_Kinases

>  <Ligand_Instance>  (863) 
nan

>  <PDB_ID>  (863) 
nan

>  <Standardized_SMILES>  (863) 
Cc1ccc(C#N)c(S(=O)(=O)Nc2ccc(-c3cnc4c(N)n[nH]c4n3)cc2)c1

>  <Name>  (863) 
nan

>  <Pocket>  (863) 
nan

>  <ATP_Site>  (863) 
nan

>  <Peripheral>  (863) 
nan

>  <Num_H_Atoms_ProtBoundConf>  (863) 
nan

>  <Num_Resolved_Atoms>  (863) 
nan

>  <Num_Not_Resolved_Atoms>  (863) 
nan

$$$$
CHEMBL3356053
     RDKit          3D

  0  0  0  0  0  0  0  0  0  0999 V3000
M  V30 BEGIN CTAB
M  V30 COUNTS 45 48 0 0 0
M  V30 BEGIN ATOM
M  V30 1 C 2.223127 -1.739399 5.311804 0
M  V30 2 O 1.818366 -0.753558 4.404803 0
M  V30 3 C 2.682499 0.177339 3.841431 0
M  V30 4 C 4.027705 0.215979 4.125946 0
M  V30 5 C 4.767782 1.194195 3.494451 0
M  V30 6 C 4.161154 2.093532 2.611209 0
M  V30 7 C 5.048994 3.068881 2.016817 0
M  V30 8 N 5.734452 3.850855 1.548491 0
M  V30 9 C 2.791050 2.026046 2.344580 0
M  V30 10 S 2.244069 3.242692 1.214564 0
M  V30 11 O 2.573075 4.584692 1.775516 0
M  V30 12 O 3.005778 3.028529 -0.085656 0
M  V30 13 N 0.546354 3.105038 0.925260 0
M  V30 14 C -0.022067 1.934296 0.354350 0
M  V30 15 C -1.189172 1.358150 0.871418 0
M  V30 16 C -1.748654 0.204330 0.305983 0
M  V30 17 C -1.152755 -0.394517 -0.785577 0
M  V30 18 C -1.785774 -1.594234 -1.327351 0
M  V30 19 C -1.305502 -2.297206 -2.411299 0
M  V30 20 N -1.948731 -3.413148 -2.866280 0
M  V30 21 C -3.055227 -3.827854 -2.254225 0
M  V30 22 C -3.921197 -4.895224 -2.463615 0
M  V30 23 N -3.753900 -5.860143 -3.508473 0
M  V30 24 N -4.899723 -4.834859 -1.526522 0
M  V30 25 N -4.675043 -3.771776 -0.743633 0
M  V30 26 C -3.559979 -3.144190 -1.166121 0
M  V30 27 N -2.905795 -2.028553 -0.721300 0
M  V30 28 C -0.003219 0.175502 -1.292503 0
M  V30 29 C 0.551062 1.312644 -0.737841 0
M  V30 30 C 2.056541 1.045788 2.979087 0
M  V30 31 H 2.367516 -1.353265 6.347914 0
M  V30 32 H 1.346521 -2.442421 5.410731 0
M  V30 33 H 3.114691 -2.317417 4.943759 0
M  V30 34 H 4.418329 -0.502306 4.809300 0
M  V30 35 H 5.830946 1.232263 3.713113 0
M  V30 36 H -0.178032 3.850148 1.140629 0
M  V30 37 H -1.655597 1.843890 1.741618 0
M  V30 38 H -2.659970 -0.140789 0.806790 0
M  V30 39 H -0.411396 -1.958226 -2.902272 0
M  V30 40 H -2.874586 -6.420874 -3.714696 0
M  V30 41 H -4.427829 -6.192679 -4.243646 0
M  V30 42 H -5.286651 -3.501542 0.057552 0
M  V30 43 H 0.470235 -0.286959 -2.147391 0
M  V30 44 H 1.448899 1.688203 -1.198409 0
M  V30 45 H 1.020489 1.065142 2.719838 0
M  V30 END ATOM
M  V30 BEGIN BOND
M  V30 1 1 1 2
M  V30 2 1 2 3
M  V30 3 2 3 4
M  V30 4 1 4 5
M  V30 5 2 5 6
M  V30 6 1 6 7
M  V30 7 3 7 8
M  V30 8 1 6 9
M  V30 9 1 9 10
M  V30 10 2 10 11
M  V30 11 2 10 12
M  V30 12 1 10 13
M  V30 13 1 13 14
M  V30 14 2 14 15
M  V30 15 1 15 16
M  V30 16 2 16 17
M  V30 17 1 17 18
M  V30 18 2 18 19
M  V30 19 1 19 20
M  V30 20 2 20 21
M  V30 21 1 21 22
M  V30 22 1 22 23
M  V30 23 2 22 24
M  V30 24 1 24 25
M  V30 25 1 25 26
M  V30 26 2 26 27
M  V30 27 1 17 28
M  V30 28 2 28 29
M  V30 29 2 9 30
M  V30 30 1 30 3
M  V30 31 1 29 14
M  V30 32 1 27 18
M  V30 33 1 26 21
M  V30 34 1 1 31
M  V30 35 1 1 32
M  V30 36 1 1 33
M  V30 37 1 4 34
M  V30 38 1 5 35
M  V30 39 1 13 36
M  V30 40 1 15 37
M  V30 41 1 16 38
M  V30 42 1 19 39
M  V30 43 1 23 40
M  V30 44 1 23 41
M  V30 45 1 25 42
M  V30 46 1 28 43
M  V30 47 1 29 44
M  V30 48 1 30 45
M  V30 END BOND
M  V30 END CTAB
M  END
>  <Dataset>  (864) 
ChEMBL_Kinases

>  <Ligand_Instance>  (864) 
nan

>  <PDB_ID>  (864) 
nan

>  <Standardized_SMILES>  (864) 
COc1ccc(C#N)c(S(=O)(=O)Nc2ccc(-c3cnc4c(N)n[nH]c4n3)cc2)c1

>  <Name>  (864) 
nan

>  <Pocket>  (864) 
nan

>  <ATP_Site>  (864) 
nan

>  <Peripheral>  (864) 
nan

>  <Num_H_Atoms_ProtBoundConf>  (864) 
nan

>  <Num_Resolved_Atoms>  (864) 
nan

>  <Num_Not_Resolved_Atoms>  (864) 
nan

$$$$
CHEMBL3356054
     RDKit          3D

  0  0  0  0  0  0  0  0  0  0999 V3000
M  V30 BEGIN CTAB
M  V30 COUNTS 40 43 0 0 0
M  V30 BEGIN ATOM
M  V30 1 N 4.655929 -6.321794 2.962710 0
M  V30 2 C 3.481923 -5.518431 3.001685 0
M  V30 3 N 2.504051 -5.520867 3.926855 0
M  V30 4 N 1.573940 -4.632706 3.623323 0
M  V30 5 C 1.886812 -3.983297 2.465267 0
M  V30 6 N 1.303169 -3.017267 1.731607 0
M  V30 7 C 1.867175 -2.564071 0.597518 0
M  V30 8 C 1.175988 -1.516194 -0.143299 0
M  V30 9 C -0.018535 -1.048543 0.361833 0
M  V30 10 C -0.687212 -0.055912 -0.326909 0
M  V30 11 C -0.249384 0.517393 -1.502010 0
M  V30 12 N -0.957525 1.535665 -2.193009 0
M  V30 13 S -2.395346 2.175755 -1.544424 0
M  V30 14 O -3.423486 1.063393 -1.382652 0
M  V30 15 O -3.053257 3.142525 -2.497904 0
M  V30 16 C -2.200732 2.955426 -0.005503 0
M  V30 17 C -1.058311 3.131622 0.740059 0
M  V30 18 C -1.079107 3.777654 1.944295 0
M  V30 19 C -2.242367 4.299353 2.500104 0
M  V30 20 C -3.389513 4.114370 1.736212 0
M  V30 21 Cl -4.867289 4.767792 2.424799 0
M  V30 22 C -3.396956 3.464195 0.513990 0
M  V30 23 Cl -4.950034 3.333643 -0.295200 0
M  V30 24 C 0.957114 0.004165 -1.957851 0
M  V30 25 F 1.481846 0.493180 -3.103033 0
M  V30 26 C 1.671440 -0.985328 -1.316351 0
M  V30 27 C 3.050706 -3.137347 0.243565 0
M  V30 28 N 3.649003 -4.104885 0.965446 0
M  V30 29 C 3.090604 -4.554375 2.089331 0
M  V30 30 H 4.729507 -7.108475 3.646031 0
M  V30 31 H 5.385313 -6.084403 2.252594 0
M  V30 32 H 0.709903 -4.434857 4.174964 0
M  V30 33 H -0.435577 -1.435939 1.270319 0
M  V30 34 H -1.621759 0.289797 0.095246 0
M  V30 35 H -0.551511 1.857455 -3.098361 0
M  V30 36 H -0.186018 2.723193 0.287742 0
M  V30 37 H -0.133119 3.870463 2.462156 0
M  V30 38 H -2.212530 4.796674 3.443790 0
M  V30 39 H 2.605948 -1.337212 -1.730126 0
M  V30 40 H 3.532676 -2.800254 -0.658980 0
M  V30 END ATOM
M  V30 BEGIN BOND
M  V30 1 1 1 2
M  V30 2 2 2 3
M  V30 3 1 3 4
M  V30 4 1 4 5
M  V30 5 2 5 6
M  V30 6 1 6 7
M  V30 7 1 7 8
M  V30 8 2 8 9
M  V30 9 1 9 10
M  V30 10 2 10 11
M  V30 11 1 11 12
M  V30 12 1 12 13
M  V30 13 2 13 14
M  V30 14 2 13 15
M  V30 15 1 13 16
M  V30 16 2 16 17
M  V30 17 1 17 18
M  V30 18 2 18 19
M  V30 19 1 19 20
M  V30 20 1 20 21
M  V30 21 2 20 22
M  V30 22 1 22 23
M  V30 23 1 11 24
M  V30 24 1 24 25
M  V30 25 2 24 26
M  V30 26 2 7 27
M  V30 27 1 27 28
M  V30 28 2 28 29
M  V30 29 1 29 2
M  V30 30 1 29 5
M  V30 31 1 26 8
M  V30 32 1 22 16
M  V30 33 1 1 30
M  V30 34 1 1 31
M  V30 35 1 4 32
M  V30 36 1 9 33
M  V30 37 1 10 34
M  V30 38 1 12 35
M  V30 39 1 17 36
M  V30 40 1 18 37
M  V30 41 1 19 38
M  V30 42 1 26 39
M  V30 43 1 27 40
M  V30 END BOND
M  V30 END CTAB
M  END
>  <Dataset>  (865) 
ChEMBL_Kinases

>  <Ligand_Instance>  (865) 
nan

>  <PDB_ID>  (865) 
nan

>  <Standardized_SMILES>  (865) 
Nc1n[nH]c2nc(-c3ccc(NS(=O)(=O)c4cccc(Cl)c4Cl)c(F)c3)cnc12

>  <Name>  (865) 
nan

>  <Pocket>  (865) 
nan

>  <ATP_Site>  (865) 
nan

>  <Peripheral>  (865) 
nan

>  <Num_H_Atoms_ProtBoundConf>  (865) 
nan

>  <Num_Resolved_Atoms>  (865) 
nan

>  <Num_Not_Resolved_Atoms>  (865) 
nan

$$$$
CHEMBL3356055
     RDKit          3D

  0  0  0  0  0  0  0  0  0  0999 V3000
M  V30 BEGIN CTAB
M  V30 COUNTS 38 41 0 0 0
M  V30 BEGIN ATOM
M  V30 1 O 0.760513 -2.485197 4.281891 0
M  V30 2 S 1.123759 -3.404413 3.131467 0
M  V30 3 O 1.757688 -4.609303 3.785107 0
M  V30 4 N 2.264059 -2.671930 2.062160 0
M  V30 5 C 1.947381 -1.510365 1.334202 0
M  V30 6 C 1.306909 -0.459078 1.973838 0
M  V30 7 C 0.965382 0.717852 1.312082 0
M  V30 8 C 1.265089 0.864794 -0.026763 0
M  V30 9 C 0.876563 2.125141 -0.651617 0
M  V30 10 C 1.106494 2.422644 -1.979355 0
M  V30 11 N 0.719543 3.609401 -2.490203 0
M  V30 12 C 0.103296 4.539778 -1.742548 0
M  V30 13 C -0.408440 5.815774 -1.940652 0
M  V30 14 N -0.912072 6.242531 -0.786868 0
M  V30 15 N -0.764422 5.324158 0.165432 0
M  V30 16 C -0.136503 4.257723 -0.403731 0
M  V30 17 N 0.266373 3.052448 0.078802 0
M  V30 18 C 1.895111 -0.156736 -0.676477 0
M  V30 19 C 2.225481 -1.315676 -0.003050 0
M  V30 20 C -0.308490 -3.938670 2.299445 0
M  V30 21 C -0.573939 -3.826656 0.955233 0
M  V30 22 C -1.756203 -4.292941 0.411030 0
M  V30 23 Cl -2.024336 -4.115626 -1.308645 0
M  V30 24 C -2.676938 -4.880505 1.252763 0
M  V30 25 C -2.452445 -5.014363 2.610214 0
M  V30 26 C -1.247352 -4.530319 3.115560 0
M  V30 27 Cl -1.049685 -4.743897 4.850622 0
M  V30 28 H 3.259004 -2.968298 1.831584 0
M  V30 29 H 1.048301 -0.528573 3.035858 0
M  V30 30 H 0.461089 1.498728 1.892001 0
M  V30 31 H 1.591769 1.710219 -2.601017 0
M  V30 32 H -0.348905 6.280428 -2.915061 0
M  V30 33 H -1.068575 5.396081 1.164517 0
M  V30 34 H 2.132143 -0.049102 -1.721397 0
M  V30 35 H 2.725340 -2.118597 -0.530807 0
M  V30 36 H 0.197941 -3.355317 0.369256 0
M  V30 37 H -3.578029 -5.217852 0.736245 0
M  V30 38 H -3.218171 -5.485417 3.211065 0
M  V30 END ATOM
M  V30 BEGIN BOND
M  V30 1 2 1 2
M  V30 2 2 2 3
M  V30 3 1 2 4
M  V30 4 1 4 5
M  V30 5 2 5 6
M  V30 6 1 6 7
M  V30 7 2 7 8
M  V30 8 1 8 9
M  V30 9 2 9 10
M  V30 10 1 10 11
M  V30 11 2 11 12
M  V30 12 1 12 13
M  V30 13 2 13 14
M  V30 14 1 14 15
M  V30 15 1 15 16
M  V30 16 2 16 17
M  V30 17 1 8 18
M  V30 18 2 18 19
M  V30 19 1 2 20
M  V30 20 2 20 21
M  V30 21 1 21 22
M  V30 22 1 22 23
M  V30 23 2 22 24
M  V30 24 1 24 25
M  V30 25 2 25 26
M  V30 26 1 26 27
M  V30 27 1 19 5
M  V30 28 1 26 20
M  V30 29 1 17 9
M  V30 30 1 16 12
M  V30 31 1 4 28
M  V30 32 1 6 29
M  V30 33 1 7 30
M  V30 34 1 10 31
M  V30 35 1 13 32
M  V30 36 1 15 33
M  V30 37 1 18 34
M  V30 38 1 19 35
M  V30 39 1 21 36
M  V30 40 1 24 37
M  V30 41 1 25 38
M  V30 END BOND
M  V30 END CTAB
M  END
>  <Dataset>  (866) 
ChEMBL_Kinases

>  <Ligand_Instance>  (866) 
nan

>  <PDB_ID>  (866) 
nan

>  <Standardized_SMILES>  (866) 
O=S(=O)(Nc1ccc(-c2cnc3cn[nH]c3n2)cc1)c1cc(Cl)ccc1Cl

>  <Name>  (866) 
nan

>  <Pocket>  (866) 
nan

>  <ATP_Site>  (866) 
nan

>  <Peripheral>  (866) 
nan

>  <Num_H_Atoms_ProtBoundConf>  (866) 
nan

>  <Num_Resolved_Atoms>  (866) 
nan

>  <Num_Not_Resolved_Atoms>  (866) 
nan

$$$$
CHEMBL3356056
     RDKit          3D

  0  0  0  0  0  0  0  0  0  0999 V3000
M  V30 BEGIN CTAB
M  V30 COUNTS 38 41 0 0 0
M  V30 BEGIN ATOM
M  V30 1 O 2.584552 -2.516083 3.612242 0
M  V30 2 S 2.030251 -3.414341 2.527282 0
M  V30 3 O 2.959802 -4.581637 2.456969 0
M  V30 4 N 1.983903 -2.594445 1.018111 0
M  V30 5 C 1.474968 -1.496639 0.324339 0
M  V30 6 C 1.604969 -0.274242 0.998236 0
M  V30 7 C 1.197403 0.950742 0.519239 0
M  V30 8 C 0.618314 0.932016 -0.729686 0
M  V30 9 C 0.168542 2.202620 -1.284195 0
M  V30 10 C -0.429587 2.380783 -2.510314 0
M  V30 11 N -0.820393 3.586866 -2.959166 0
M  V30 12 C -0.641073 4.693579 -2.216521 0
M  V30 13 C -0.940444 6.028895 -2.427376 0
M  V30 14 N -0.509022 6.631994 -1.306479 0
M  V30 15 N 0.011645 5.774984 -0.466054 0
M  V30 16 C -0.043126 4.539338 -0.983053 0
M  V30 17 N 0.339022 3.323222 -0.556033 0
M  V30 18 C 0.475234 -0.249955 -1.419046 0
M  V30 19 C 0.885494 -1.463290 -0.930873 0
M  V30 20 F 0.780123 -2.664217 -1.546117 0
M  V30 21 C 0.474930 -3.994135 3.061552 0
M  V30 22 C 0.265452 -5.379608 3.178124 0
M  V30 23 C -0.879301 -6.005914 3.561309 0
M  V30 24 Cl -0.998052 -7.745252 3.662247 0
M  V30 25 C -1.963528 -5.216304 3.873690 0
M  V30 26 C -1.845062 -3.851574 3.786875 0
M  V30 27 C -0.657286 -3.289961 3.392836 0
M  V30 28 Cl -0.537755 -1.555563 3.317465 0
M  V30 29 H 2.566769 -3.065240 0.255404 0
M  V30 30 H 2.063984 -0.220996 2.000654 0
M  V30 31 H 1.319947 1.859430 1.075794 0
M  V30 32 H -0.583219 1.507833 -3.122256 0
M  V30 33 H -1.416264 6.463344 -3.308153 0
M  V30 34 H 0.410978 6.032593 0.474260 0
M  V30 35 H 0.022791 -0.292010 -2.403742 0
M  V30 36 H 1.091603 -6.042435 2.942280 0
M  V30 37 H -2.916860 -5.614171 4.188016 0
M  V30 38 H -2.674984 -3.201360 4.024321 0
M  V30 END ATOM
M  V30 BEGIN BOND
M  V30 1 2 1 2
M  V30 2 2 2 3
M  V30 3 1 2 4
M  V30 4 1 4 5
M  V30 5 2 5 6
M  V30 6 1 6 7
M  V30 7 2 7 8
M  V30 8 1 8 9
M  V30 9 2 9 10
M  V30 10 1 10 11
M  V30 11 2 11 12
M  V30 12 1 12 13
M  V30 13 2 13 14
M  V30 14 1 14 15
M  V30 15 1 15 16
M  V30 16 2 16 17
M  V30 17 1 8 18
M  V30 18 2 18 19
M  V30 19 1 19 20
M  V30 20 1 2 21
M  V30 21 2 21 22
M  V30 22 1 22 23
M  V30 23 1 23 24
M  V30 24 2 23 25
M  V30 25 1 25 26
M  V30 26 2 26 27
M  V30 27 1 27 28
M  V30 28 1 19 5
M  V30 29 1 27 21
M  V30 30 1 17 9
M  V30 31 1 16 12
M  V30 32 1 4 29
M  V30 33 1 6 30
M  V30 34 1 7 31
M  V30 35 1 10 32
M  V30 36 1 13 33
M  V30 37 1 15 34
M  V30 38 1 18 35
M  V30 39 1 22 36
M  V30 40 1 25 37
M  V30 41 1 26 38
M  V30 END BOND
M  V30 END CTAB
M  END
>  <Dataset>  (867) 
ChEMBL_Kinases

>  <Ligand_Instance>  (867) 
nan

>  <PDB_ID>  (867) 
nan

>  <Standardized_SMILES>  (867) 
O=S(=O)(Nc1ccc(-c2cnc3cn[nH]c3n2)cc1F)c1cc(Cl)ccc1Cl

>  <Name>  (867) 
nan

>  <Pocket>  (867) 
nan

>  <ATP_Site>  (867) 
nan

>  <Peripheral>  (867) 
nan

>  <Num_H_Atoms_ProtBoundConf>  (867) 
nan

>  <Num_Resolved_Atoms>  (867) 
nan

>  <Num_Not_Resolved_Atoms>  (867) 
nan

$$$$
CHEMBL3356048
     RDKit          3D

  0  0  0  0  0  0  0  0  0  0999 V3000
M  V30 BEGIN CTAB
M  V30 COUNTS 40 43 0 0 0
M  V30 BEGIN ATOM
M  V30 1 N 3.304405 -7.396655 0.838596 0
M  V30 2 C 3.335296 -6.069450 1.343372 0
M  V30 3 N 3.937829 -5.646307 2.471446 0
M  V30 4 N 3.759411 -4.336733 2.628665 0
M  V30 5 C 3.025268 -3.886271 1.584927 0
M  V30 6 N 2.559166 -2.649131 1.247925 0
M  V30 7 C 1.834258 -2.455573 0.131305 0
M  V30 8 C 1.371883 -1.102647 -0.159791 0
M  V30 9 C 1.707916 -0.103126 0.730908 0
M  V30 10 C 1.321892 1.211996 0.551655 0
M  V30 11 C 0.571245 1.571648 -0.549832 0
M  V30 12 N 0.083227 2.858958 -0.905476 0
M  V30 13 S -0.645525 3.847680 0.275073 0
M  V30 14 O -0.936461 5.230161 -0.233277 0
M  V30 15 O 0.329360 4.007495 1.421645 0
M  V30 16 C -2.087860 3.155022 0.983346 0
M  V30 17 C -2.679188 1.947043 0.705198 0
M  V30 18 C -3.822831 1.565564 1.369875 0
M  V30 19 Cl -4.502338 0.017374 0.951740 0
M  V30 20 C -4.438136 2.337261 2.328511 0
M  V30 21 F -5.563454 1.915997 2.954302 0
M  V30 22 C -3.821846 3.543988 2.586256 0
M  V30 23 C -2.675465 3.973151 1.948766 0
M  V30 24 F -2.200022 5.189799 2.323360 0
M  V30 25 C 0.241153 0.542079 -1.441155 0
M  V30 26 C 0.621966 -0.773931 -1.270716 0
M  V30 27 C 1.571599 -3.545857 -0.670592 0
M  V30 28 N 2.021624 -4.779301 -0.358554 0
M  V30 29 C 2.747029 -4.961837 0.762657 0
M  V30 30 H 2.672223 -8.007435 1.395950 0
M  V30 31 H 3.895444 -7.600637 -0.000272 0
M  V30 32 H 4.100026 -3.707356 3.399965 0
M  V30 33 H 2.289836 -0.288655 1.616765 0
M  V30 34 H 1.556292 2.031924 1.214626 0
M  V30 35 H 0.184342 3.172800 -1.896166 0
M  V30 36 H -2.161055 1.379948 -0.051205 0
M  V30 37 H -4.302675 4.173777 3.351847 0
M  V30 38 H -0.354188 0.750359 -2.341135 0
M  V30 39 H 0.350984 -1.539487 -1.975124 0
M  V30 40 H 1.000849 -3.422078 -1.559560 0
M  V30 END ATOM
M  V30 BEGIN BOND
M  V30 1 1 1 2
M  V30 2 2 2 3
M  V30 3 1 3 4
M  V30 4 1 4 5
M  V30 5 2 5 6
M  V30 6 1 6 7
M  V30 7 1 7 8
M  V30 8 2 8 9
M  V30 9 1 9 10
M  V30 10 2 10 11
M  V30 11 1 11 12
M  V30 12 1 12 13
M  V30 13 2 13 14
M  V30 14 2 13 15
M  V30 15 1 13 16
M  V30 16 2 16 17
M  V30 17 1 17 18
M  V30 18 1 18 19
M  V30 19 2 18 20
M  V30 20 1 20 21
M  V30 21 1 20 22
M  V30 22 2 22 23
M  V30 23 1 23 24
M  V30 24 1 11 25
M  V30 25 2 25 26
M  V30 26 2 7 27
M  V30 27 1 27 28
M  V30 28 2 28 29
M  V30 29 1 29 2
M  V30 30 1 29 5
M  V30 31 1 26 8
M  V30 32 1 23 16
M  V30 33 1 1 30
M  V30 34 1 1 31
M  V30 35 1 4 32
M  V30 36 1 9 33
M  V30 37 1 10 34
M  V30 38 1 12 35
M  V30 39 1 17 36
M  V30 40 1 22 37
M  V30 41 1 25 38
M  V30 42 1 26 39
M  V30 43 1 27 40
M  V30 END BOND
M  V30 END CTAB
M  END
>  <Dataset>  (868) 
ChEMBL_Kinases

>  <Ligand_Instance>  (868) 
nan

>  <PDB_ID>  (868) 
nan

>  <Standardized_SMILES>  (868) 
Nc1n[nH]c2nc(-c3ccc(NS(=O)(=O)c4cc(Cl)c(F)cc4F)cc3)cnc12

>  <Name>  (868) 
nan

>  <Pocket>  (868) 
nan

>  <ATP_Site>  (868) 
nan

>  <Peripheral>  (868) 
nan

>  <Num_H_Atoms_ProtBoundConf>  (868) 
nan

>  <Num_Resolved_Atoms>  (868) 
nan

>  <Num_Not_Resolved_Atoms>  (868) 
nan

$$$$
CHEMBL3359887
     RDKit          3D

  0  0  0  0  0  0  0  0  0  0999 V3000
M  V30 BEGIN CTAB
M  V30 COUNTS 48 51 0 0 0
M  V30 BEGIN ATOM
M  V30 1 C -1.908171 -6.518285 -0.425343 0
M  V30 2 N -1.699780 -5.221590 -1.001656 0
M  V30 3 C -2.959672 -4.468718 -0.899688 0
M  V30 4 C -2.702843 -3.099634 -1.497492 0
M  V30 5 N -1.299336 -2.861761 -1.763656 0
M  V30 6 C -0.396787 -1.928325 -1.184365 0
M  V30 7 C 0.925573 -1.803624 -1.550075 0
M  V30 8 C 1.717165 -0.865248 -0.923976 0
M  V30 9 C 1.271905 -0.018219 0.068854 0
M  V30 10 C 2.103906 0.976310 0.736790 0
M  V30 11 C 3.431376 1.153154 0.423992 0
M  V30 12 N 4.193850 2.087720 1.060071 0
M  V30 13 C 3.642884 2.862718 2.020735 0
M  V30 14 C 2.326304 2.700380 2.343695 0
M  V30 15 C 1.659609 3.498566 3.367622 0
M  V30 16 C 0.319319 3.257891 3.619584 0
M  V30 17 C -0.426465 3.951888 4.569398 0
M  V30 18 C 0.200710 4.937212 5.304984 0
M  V30 19 C -0.499382 5.702201 6.307406 0
M  V30 20 N -1.051721 6.326518 7.111110 0
M  V30 21 C 1.536580 5.174963 5.051814 0
M  V30 22 C 2.261945 4.474785 4.103350 0
M  V30 23 N 1.569389 1.766525 1.706312 0
M  V30 24 C -0.054610 -0.163035 0.416424 0
M  V30 25 C -0.888208 -1.102521 -0.195257 0
M  V30 26 C -0.983433 -3.823547 -2.798660 0
M  V30 27 C -1.392620 -5.244105 -2.418276 0
M  V30 28 H -1.400821 -7.345798 -0.932661 0
M  V30 29 H -2.995186 -6.753864 -0.293658 0
M  V30 30 H -1.521462 -6.480690 0.635160 0
M  V30 31 H -3.772424 -5.011584 -1.431357 0
M  V30 32 H -3.199600 -4.431225 0.182899 0
M  V30 33 H -3.351912 -2.969208 -2.394191 0
M  V30 34 H -3.099962 -2.376977 -0.756759 0
M  V30 35 H 1.332997 -2.437612 -2.320873 0
M  V30 36 H 2.733366 -0.808885 -1.244025 0
M  V30 37 H 3.920931 0.560716 -0.335493 0
M  V30 38 H 4.254119 3.600725 2.519957 0
M  V30 39 H -0.260455 2.500582 3.089792 0
M  V30 40 H -1.472150 3.748726 4.750892 0
M  V30 41 H 2.009070 5.954430 5.642540 0
M  V30 42 H 3.289106 4.693162 3.943487 0
M  V30 43 H -0.414044 0.511883 1.209218 0
M  V30 44 H -1.892303 -1.075682 0.201833 0
M  V30 45 H -1.547536 -3.509727 -3.726569 0
M  V30 46 H 0.078043 -3.803752 -3.119236 0
M  V30 47 H -2.271124 -5.544055 -3.015012 0
M  V30 48 H -0.572112 -5.940595 -2.664917 0
M  V30 END ATOM
M  V30 BEGIN BOND
M  V30 1 1 1 2
M  V30 2 1 2 3
M  V30 3 1 3 4
M  V30 4 1 4 5
M  V30 5 1 5 6
M  V30 6 2 6 7
M  V30 7 1 7 8
M  V30 8 2 8 9
M  V30 9 1 9 10
M  V30 10 2 10 11
M  V30 11 1 11 12
M  V30 12 2 12 13
M  V30 13 1 13 14
M  V30 14 1 14 15
M  V30 15 2 15 16
M  V30 16 1 16 17
M  V30 17 2 17 18
M  V30 18 1 18 19
M  V30 19 3 19 20
M  V30 20 1 18 21
M  V30 21 2 21 22
M  V30 22 2 14 23
M  V30 23 1 9 24
M  V30 24 2 24 25
M  V30 25 1 5 26
M  V30 26 1 26 27
M  V30 27 1 27 2
M  V30 28 1 25 6
M  V30 29 1 23 10
M  V30 30 1 22 15
M  V30 31 1 1 28
M  V30 32 1 1 29
M  V30 33 1 1 30
M  V30 34 1 3 31
M  V30 35 1 3 32
M  V30 36 1 4 33
M  V30 37 1 4 34
M  V30 38 1 7 35
M  V30 39 1 8 36
M  V30 40 1 11 37
M  V30 41 1 13 38
M  V30 42 1 16 39
M  V30 43 1 17 40
M  V30 44 1 21 41
M  V30 45 1 22 42
M  V30 46 1 24 43
M  V30 47 1 25 44
M  V30 48 1 26 45
M  V30 49 1 26 46
M  V30 50 1 27 47
M  V30 51 1 27 48
M  V30 END BOND
M  V30 END CTAB
M  END
>  <Dataset>  (869) 
ChEMBL_Kinases

>  <Ligand_Instance>  (869) 
nan

>  <PDB_ID>  (869) 
nan

>  <Standardized_SMILES>  (869) 
CN1CCN(c2ccc(-c3cncc(-c4ccc(C#N)cc4)n3)cc2)CC1

>  <Name>  (869) 
nan

>  <Pocket>  (869) 
nan

>  <ATP_Site>  (869) 
nan

>  <Peripheral>  (869) 
nan

>  <Num_H_Atoms_ProtBoundConf>  (869) 
nan

>  <Num_Resolved_Atoms>  (869) 
nan

>  <Num_Not_Resolved_Atoms>  (869) 
nan

$$$$
CHEMBL3359886
     RDKit          3D

  0  0  0  0  0  0  0  0  0  0999 V3000
M  V30 BEGIN CTAB
M  V30 COUNTS 51 54 0 0 0
M  V30 BEGIN ATOM
M  V30 1 C 0.242039 -5.991263 -0.712462 0
M  V30 2 N 1.655946 -6.261322 -0.907365 0
M  V30 3 C 2.276848 -5.381997 -1.869868 0
M  V30 4 C 2.690759 -4.066943 -1.257568 0
M  V30 5 N 2.416099 -4.020924 0.167707 0
M  V30 6 C 1.684340 -3.005860 0.840666 0
M  V30 7 C 1.300573 -1.838737 0.223783 0
M  V30 8 C 0.581492 -0.843683 0.855466 0
M  V30 9 C 0.208224 -0.988915 2.174984 0
M  V30 10 C -0.553621 0.077292 2.819674 0
M  V30 11 C -0.976720 0.033316 4.129213 0
M  V30 12 N -1.680345 1.058244 4.661315 0
M  V30 13 C -1.956348 2.121559 3.879020 0
M  V30 14 C -1.556750 2.211026 2.570293 0
M  V30 15 C -1.834077 3.337139 1.684316 0
M  V30 16 C -1.356704 3.256207 0.390342 0
M  V30 17 C -1.601159 4.304913 -0.487385 0
M  V30 18 C -2.311068 5.414450 -0.074868 0
M  V30 19 C -2.599223 6.544669 -0.950319 0
M  V30 20 N -2.169317 6.569709 -2.306115 0
M  V30 21 O -3.230720 7.584392 -0.634669 0
M  V30 22 C -2.806112 5.517499 1.238177 0
M  V30 23 C -2.539553 4.452603 2.075145 0
M  V30 24 N -0.865747 1.170110 2.099763 0
M  V30 25 C 0.585641 -2.154620 2.808555 0
M  V30 26 C 1.314913 -3.157779 2.159749 0
M  V30 27 C 3.014471 -5.173905 0.794652 0
M  V30 28 C 2.369547 -6.423015 0.311378 0
M  V30 29 H 0.004962 -4.911890 -0.700984 0
M  V30 30 H -0.032589 -6.477552 0.264005 0
M  V30 31 H -0.326748 -6.537634 -1.479737 0
M  V30 32 H 1.592787 -5.272991 -2.730555 0
M  V30 33 H 3.194507 -5.882507 -2.237000 0
M  V30 34 H 3.739355 -3.792769 -1.489625 0
M  V30 35 H 2.040874 -3.304912 -1.728783 0
M  V30 36 H 1.538101 -1.615371 -0.800989 0
M  V30 37 H 0.292554 0.073073 0.331712 0
M  V30 38 H -0.753060 -0.809882 4.733508 0
M  V30 39 H -2.518413 2.942488 4.301982 0
M  V30 40 H -0.790321 2.392658 0.027038 0
M  V30 41 H -1.257842 4.308992 -1.513058 0
M  V30 42 H -2.846057 6.502038 -3.074784 0
M  V30 43 H -1.292159 6.642038 -2.878507 0
M  V30 44 H -3.364560 6.400957 1.546475 0
M  V30 45 H -2.914902 4.523593 3.082887 0
M  V30 46 H 0.305186 -2.297733 3.850669 0
M  V30 47 H 1.550644 -4.021552 2.758158 0
M  V30 48 H 4.102621 -5.178270 0.495769 0
M  V30 49 H 2.970420 -5.144239 1.910031 0
M  V30 50 H 3.099394 -7.266084 0.286725 0
M  V30 51 H 1.609523 -6.743327 1.086146 0
M  V30 END ATOM
M  V30 BEGIN BOND
M  V30 1 1 1 2
M  V30 2 1 2 3
M  V30 3 1 3 4
M  V30 4 1 4 5
M  V30 5 1 5 6
M  V30 6 2 6 7
M  V30 7 1 7 8
M  V30 8 2 8 9
M  V30 9 1 9 10
M  V30 10 2 10 11
M  V30 11 1 11 12
M  V30 12 2 12 13
M  V30 13 1 13 14
M  V30 14 1 14 15
M  V30 15 2 15 16
M  V30 16 1 16 17
M  V30 17 2 17 18
M  V30 18 1 18 19
M  V30 19 1 19 20
M  V30 20 2 19 21
M  V30 21 1 18 22
M  V30 22 2 22 23
M  V30 23 2 14 24
M  V30 24 1 9 25
M  V30 25 2 25 26
M  V30 26 1 5 27
M  V30 27 1 27 28
M  V30 28 1 28 2
M  V30 29 1 26 6
M  V30 30 1 24 10
M  V30 31 1 23 15
M  V30 32 1 1 29
M  V30 33 1 1 30
M  V30 34 1 1 31
M  V30 35 1 3 32
M  V30 36 1 3 33
M  V30 37 1 4 34
M  V30 38 1 4 35
M  V30 39 1 7 36
M  V30 40 1 8 37
M  V30 41 1 11 38
M  V30 42 1 13 39
M  V30 43 1 16 40
M  V30 44 1 17 41
M  V30 45 1 20 42
M  V30 46 1 20 43
M  V30 47 1 22 44
M  V30 48 1 23 45
M  V30 49 1 25 46
M  V30 50 1 26 47
M  V30 51 1 27 48
M  V30 52 1 27 49
M  V30 53 1 28 50
M  V30 54 1 28 51
M  V30 END BOND
M  V30 END CTAB
M  END
>  <Dataset>  (870) 
ChEMBL_Kinases

>  <Ligand_Instance>  (870) 
nan

>  <PDB_ID>  (870) 
nan

>  <Standardized_SMILES>  (870) 
CN1CCN(c2ccc(-c3cncc(-c4ccc(C(N)=O)cc4)n3)cc2)CC1

>  <Name>  (870) 
nan

>  <Pocket>  (870) 
nan

>  <ATP_Site>  (870) 
nan

>  <Peripheral>  (870) 
nan

>  <Num_H_Atoms_ProtBoundConf>  (870) 
nan

>  <Num_Resolved_Atoms>  (870) 
nan

>  <Num_Not_Resolved_Atoms>  (870) 
nan

$$$$
CHEMBL3359885
     RDKit          3D

  0  0  0  0  0  0  0  0  0  0999 V3000
M  V30 BEGIN CTAB
M  V30 COUNTS 51 54 0 0 0
M  V30 BEGIN ATOM
M  V30 1 C -0.873998 -6.612222 -0.893123 0
M  V30 2 N 0.513161 -6.693589 -0.489611 0
M  V30 3 C 1.316226 -5.622082 -0.980861 0
M  V30 4 C 2.091713 -5.033912 0.183819 0
M  V30 5 N 1.116082 -4.558628 1.144440 0
M  V30 6 C 0.751407 -3.228437 1.486798 0
M  V30 7 C 1.345992 -2.155609 0.860627 0
M  V30 8 C 0.954776 -0.869125 1.231510 0
M  V30 9 C -0.011541 -0.650185 2.208598 0
M  V30 10 C -0.402670 0.708062 2.576874 0
M  V30 11 C -0.828062 1.116527 3.826781 0
M  V30 12 N -1.171446 2.383452 4.091396 0
M  V30 13 C -1.117944 3.340389 3.133375 0
M  V30 14 C -0.707339 3.041356 1.851774 0
M  V30 15 C -0.611948 3.989583 0.746611 0
M  V30 16 C -0.826571 3.550706 -0.542014 0
M  V30 17 C -0.738420 4.440178 -1.591877 0
M  V30 18 C -0.430686 5.725853 -1.206638 0
M  V30 19 C -0.327435 6.699120 -2.280270 0
M  V30 20 O -0.518527 6.352444 -3.496176 0
M  V30 21 O -0.171555 7.787285 -3.062745 0
M  V30 22 C -0.208397 6.206635 0.067387 0
M  V30 23 C -0.305663 5.286674 1.090423 0
M  V30 24 C -0.356962 1.709623 1.612536 0
M  V30 25 C -0.558028 -1.778954 2.787071 0
M  V30 26 C -0.211424 -3.076727 2.461756 0
M  V30 27 C 0.505324 -5.718826 1.764556 0
M  V30 28 C 0.680982 -6.954778 0.916951 0
M  V30 29 H -1.405623 -5.922996 -0.188868 0
M  V30 30 H -1.345288 -7.611726 -0.924609 0
M  V30 31 H -0.893969 -6.176412 -1.914294 0
M  V30 32 H 0.650464 -4.832926 -1.434537 0
M  V30 33 H 2.012373 -5.994048 -1.777319 0
M  V30 34 H 2.761376 -5.822908 0.579581 0
M  V30 35 H 2.683441 -4.170428 -0.226578 0
M  V30 36 H 2.099549 -2.253762 0.096757 0
M  V30 37 H 1.432347 -0.036271 0.729721 0
M  V30 38 H -0.865638 0.339505 4.579332 0
M  V30 39 H -1.377695 4.381934 3.267795 0
M  V30 40 H -1.065931 2.511509 -0.753884 0
M  V30 41 H -0.891652 4.169971 -2.609504 0
M  V30 42 H -0.180324 8.735893 -2.717215 0
M  V30 43 H 0.027363 7.245879 0.242947 0
M  V30 44 H -0.145323 5.589260 2.109475 0
M  V30 45 H -0.029388 1.425095 0.624777 0
M  V30 46 H -1.310090 -1.587785 3.546970 0
M  V30 47 H -0.719152 -3.847922 2.993846 0
M  V30 48 H 0.944384 -5.937398 2.756950 0
M  V30 49 H -0.584613 -5.580307 1.928008 0
M  V30 50 H 1.651812 -7.459907 1.067985 0
M  V30 51 H -0.097768 -7.675766 1.247353 0
M  V30 END ATOM
M  V30 BEGIN BOND
M  V30 1 1 1 2
M  V30 2 1 2 3
M  V30 3 1 3 4
M  V30 4 1 4 5
M  V30 5 1 5 6
M  V30 6 2 6 7
M  V30 7 1 7 8
M  V30 8 2 8 9
M  V30 9 1 9 10
M  V30 10 2 10 11
M  V30 11 1 11 12
M  V30 12 2 12 13
M  V30 13 1 13 14
M  V30 14 1 14 15
M  V30 15 2 15 16
M  V30 16 1 16 17
M  V30 17 2 17 18
M  V30 18 1 18 19
M  V30 19 2 19 20
M  V30 20 1 19 21
M  V30 21 1 18 22
M  V30 22 2 22 23
M  V30 23 2 14 24
M  V30 24 1 9 25
M  V30 25 2 25 26
M  V30 26 1 5 27
M  V30 27 1 27 28
M  V30 28 1 28 2
M  V30 29 1 26 6
M  V30 30 1 24 10
M  V30 31 1 23 15
M  V30 32 1 1 29
M  V30 33 1 1 30
M  V30 34 1 1 31
M  V30 35 1 3 32
M  V30 36 1 3 33
M  V30 37 1 4 34
M  V30 38 1 4 35
M  V30 39 1 7 36
M  V30 40 1 8 37
M  V30 41 1 11 38
M  V30 42 1 13 39
M  V30 43 1 16 40
M  V30 44 1 17 41
M  V30 45 1 21 42
M  V30 46 1 22 43
M  V30 47 1 23 44
M  V30 48 1 24 45
M  V30 49 1 25 46
M  V30 50 1 26 47
M  V30 51 1 27 48
M  V30 52 1 27 49
M  V30 53 1 28 50
M  V30 54 1 28 51
M  V30 END BOND
M  V30 END CTAB
M  END
>  <Dataset>  (871) 
ChEMBL_Kinases

>  <Ligand_Instance>  (871) 
nan

>  <PDB_ID>  (871) 
nan

>  <Standardized_SMILES>  (871) 
CN1CCN(c2ccc(-c3cncc(-c4ccc(C(=O)O)cc4)c3)cc2)CC1

>  <Name>  (871) 
nan

>  <Pocket>  (871) 
nan

>  <ATP_Site>  (871) 
nan

>  <Peripheral>  (871) 
nan

>  <Num_H_Atoms_ProtBoundConf>  (871) 
nan

>  <Num_Resolved_Atoms>  (871) 
nan

>  <Num_Not_Resolved_Atoms>  (871) 
nan

$$$$
CHEMBL3359884
     RDKit          3D

  0  0  0  0  0  0  0  0  0  0999 V3000
M  V30 BEGIN CTAB
M  V30 COUNTS 50 53 0 0 0
M  V30 BEGIN ATOM
M  V30 1 C 0.042525 -5.907569 -1.163698 0
M  V30 2 N 1.409489 -6.024155 -1.641488 0
M  V30 3 C 1.835971 -4.816175 -2.325065 0
M  V30 4 C 2.625697 -3.918054 -1.391652 0
M  V30 5 N 2.125071 -3.992613 -0.038121 0
M  V30 6 C 1.471904 -2.951904 0.670725 0
M  V30 7 C 1.160286 -1.737382 0.101678 0
M  V30 8 C 0.519838 -0.695290 0.778348 0
M  V30 9 C 0.184401 -0.919813 2.110372 0
M  V30 10 C -0.483842 0.182531 2.798842 0
M  V30 11 C -0.899439 0.170458 4.111964 0
M  V30 12 N -1.509812 1.225318 4.680793 0
M  V30 13 C -1.746166 2.351324 3.991978 0
M  V30 14 C -1.341187 2.392932 2.674562 0
M  V30 15 C -1.550890 3.568721 1.837200 0
M  V30 16 C -1.108008 3.511919 0.523223 0
M  V30 17 C -1.263313 4.577754 -0.341886 0
M  V30 18 C -1.870977 5.730592 0.098371 0
M  V30 19 C -2.060897 6.885674 -0.773383 0
M  V30 20 O -2.616524 7.969797 -0.405492 0
M  V30 21 O -1.629852 6.860121 -2.095784 0
M  V30 22 C -2.325678 5.823177 1.404164 0
M  V30 23 C -2.144266 4.722563 2.231710 0
M  V30 24 N -0.733119 1.322934 2.131848 0
M  V30 25 C 0.481359 -2.124259 2.712135 0
M  V30 26 C 1.116915 -3.117887 1.989800 0
M  V30 27 C 2.374226 -5.290465 0.513955 0
M  V30 28 C 2.306342 -6.359796 -0.550381 0
M  V30 29 H 0.026122 -6.196636 -0.103077 0
M  V30 30 H -0.591188 -6.522489 -1.827105 0
M  V30 31 H -0.215745 -4.824849 -1.238189 0
M  V30 32 H 2.515849 -5.111339 -3.148294 0
M  V30 33 H 0.948216 -4.340443 -2.760192 0
M  V30 34 H 3.686563 -4.276665 -1.417613 0
M  V30 35 H 2.563209 -2.903650 -1.831839 0
M  V30 36 H 1.402088 -1.522379 -0.928309 0
M  V30 37 H 0.303292 0.237902 0.269755 0
M  V30 38 H -0.720733 -0.725010 4.689233 0
M  V30 39 H -2.235906 3.193186 4.455264 0
M  V30 40 H -0.617102 2.624335 0.112592 0
M  V30 41 H -0.927121 4.562002 -1.375485 0
M  V30 42 H -2.183226 7.259223 -2.855521 0
M  V30 43 H -2.808040 6.714265 1.784923 0
M  V30 44 H -2.497737 4.803468 3.236604 0
M  V30 45 H 0.205823 -2.264137 3.748771 0
M  V30 46 H 1.303237 -4.018870 2.556376 0
M  V30 47 H 1.720920 -5.579491 1.351975 0
M  V30 48 H 3.439306 -5.274671 0.864976 0
M  V30 49 H 3.296873 -6.632602 -0.973049 0
M  V30 50 H 1.916771 -7.283038 -0.077251 0
M  V30 END ATOM
M  V30 BEGIN BOND
M  V30 1 1 1 2
M  V30 2 1 2 3
M  V30 3 1 3 4
M  V30 4 1 4 5
M  V30 5 1 5 6
M  V30 6 2 6 7
M  V30 7 1 7 8
M  V30 8 2 8 9
M  V30 9 1 9 10
M  V30 10 2 10 11
M  V30 11 1 11 12
M  V30 12 2 12 13
M  V30 13 1 13 14
M  V30 14 1 14 15
M  V30 15 2 15 16
M  V30 16 1 16 17
M  V30 17 2 17 18
M  V30 18 1 18 19
M  V30 19 2 19 20
M  V30 20 1 19 21
M  V30 21 1 18 22
M  V30 22 2 22 23
M  V30 23 2 14 24
M  V30 24 1 9 25
M  V30 25 2 25 26
M  V30 26 1 5 27
M  V30 27 1 27 28
M  V30 28 1 28 2
M  V30 29 1 26 6
M  V30 30 1 24 10
M  V30 31 1 23 15
M  V30 32 1 1 29
M  V30 33 1 1 30
M  V30 34 1 1 31
M  V30 35 1 3 32
M  V30 36 1 3 33
M  V30 37 1 4 34
M  V30 38 1 4 35
M  V30 39 1 7 36
M  V30 40 1 8 37
M  V30 41 1 11 38
M  V30 42 1 13 39
M  V30 43 1 16 40
M  V30 44 1 17 41
M  V30 45 1 21 42
M  V30 46 1 22 43
M  V30 47 1 23 44
M  V30 48 1 25 45
M  V30 49 1 26 46
M  V30 50 1 27 47
M  V30 51 1 27 48
M  V30 52 1 28 49
M  V30 53 1 28 50
M  V30 END BOND
M  V30 END CTAB
M  END
>  <Dataset>  (872) 
ChEMBL_Kinases

>  <Ligand_Instance>  (872) 
nan

>  <PDB_ID>  (872) 
nan

>  <Standardized_SMILES>  (872) 
CN1CCN(c2ccc(-c3cncc(-c4ccc(C(=O)O)cc4)n3)cc2)CC1

>  <Name>  (872) 
nan

>  <Pocket>  (872) 
nan

>  <ATP_Site>  (872) 
nan

>  <Peripheral>  (872) 
nan

>  <Num_H_Atoms_ProtBoundConf>  (872) 
nan

>  <Num_Resolved_Atoms>  (872) 
nan

>  <Num_Not_Resolved_Atoms>  (872) 
nan

$$$$
CHEMBL3359883
     RDKit          3D

  0  0  0  0  0  0  0  0  0  0999 V3000
M  V30 BEGIN CTAB
M  V30 COUNTS 33 35 0 0 0
M  V30 BEGIN ATOM
M  V30 1 C -2.564426 -5.057724 4.264906 0
M  V30 2 N -1.988369 -4.027964 3.413260 0
M  V30 3 C -1.237756 -4.153375 2.303659 0
M  V30 4 C -0.936396 -2.882966 1.858097 0
M  V30 5 C -0.145176 -2.508551 0.688487 0
M  V30 6 C 0.402549 -3.482954 -0.121148 0
M  V30 7 N 1.126314 -3.102958 -1.191054 0
M  V30 8 C 1.329311 -1.792618 -1.491163 0
M  V30 9 C 0.781023 -0.821819 -0.680687 0
M  V30 10 C 0.941833 0.608381 -0.918255 0
M  V30 11 C 0.347037 1.485411 -0.038848 0
M  V30 12 C 0.427145 2.863017 -0.157022 0
M  V30 13 C 1.142527 3.413406 -1.214420 0
M  V30 14 C 1.282851 4.851671 -1.421533 0
M  V30 15 O 1.918027 5.370590 -2.360399 0
M  V30 16 O 0.650022 5.676748 -0.485833 0
M  V30 17 C 1.735018 2.537431 -2.090423 0
M  V30 18 C 1.652249 1.149965 -1.968322 0
M  V30 19 N 0.062081 -1.201240 0.382078 0
M  V30 20 C -1.527069 -1.991621 2.731214 0
M  V30 21 N -2.159528 -2.729286 3.666205 0
M  V30 22 H -3.509753 -4.681518 4.734898 0
M  V30 23 H -2.656004 -6.020567 3.763170 0
M  V30 24 H -1.858403 -5.204378 5.131031 0
M  V30 25 H -0.935175 -5.073969 1.856418 0
M  V30 26 H 0.212340 -4.510246 0.160049 0
M  V30 27 H 1.913092 -1.503603 -2.354124 0
M  V30 28 H -0.227726 1.143800 0.810737 0
M  V30 29 H -0.056071 3.535501 0.557390 0
M  V30 30 H 0.833913 6.674623 -0.402159 0
M  V30 31 H 2.320664 2.874071 -2.956076 0
M  V30 32 H 2.121258 0.498790 -2.661743 0
M  V30 33 H -1.456422 -0.918121 2.626715 0
M  V30 END ATOM
M  V30 BEGIN BOND
M  V30 1 1 1 2
M  V30 2 1 2 3
M  V30 3 2 3 4
M  V30 4 1 4 5
M  V30 5 2 5 6
M  V30 6 1 6 7
M  V30 7 2 7 8
M  V30 8 1 8 9
M  V30 9 1 9 10
M  V30 10 2 10 11
M  V30 11 1 11 12
M  V30 12 2 12 13
M  V30 13 1 13 14
M  V30 14 2 14 15
M  V30 15 1 14 16
M  V30 16 1 13 17
M  V30 17 2 17 18
M  V30 18 2 9 19
M  V30 19 1 4 20
M  V30 20 2 20 21
M  V30 21 1 21 2
M  V30 22 1 19 5
M  V30 23 1 18 10
M  V30 24 1 1 22
M  V30 25 1 1 23
M  V30 26 1 1 24
M  V30 27 1 3 25
M  V30 28 1 6 26
M  V30 29 1 8 27
M  V30 30 1 11 28
M  V30 31 1 12 29
M  V30 32 1 16 30
M  V30 33 1 17 31
M  V30 34 1 18 32
M  V30 35 1 20 33
M  V30 END BOND
M  V30 END CTAB
M  END
>  <Dataset>  (873) 
ChEMBL_Kinases

>  <Ligand_Instance>  (873) 
nan

>  <PDB_ID>  (873) 
nan

>  <Standardized_SMILES>  (873) 
Cn1cc(-c2cncc(-c3ccc(C(=O)O)cc3)n2)cn1

>  <Name>  (873) 
nan

>  <Pocket>  (873) 
nan

>  <ATP_Site>  (873) 
nan

>  <Peripheral>  (873) 
nan

>  <Num_H_Atoms_ProtBoundConf>  (873) 
nan

>  <Num_Resolved_Atoms>  (873) 
nan

>  <Num_Not_Resolved_Atoms>  (873) 
nan

$$$$
CHEMBL3359882
     RDKit          3D

  0  0  0  0  0  0  0  0  0  0999 V3000
M  V30 BEGIN CTAB
M  V30 COUNTS 37 39 0 0 0
M  V30 BEGIN ATOM
M  V30 1 C 0.697192 -6.859697 2.133092 0
M  V30 2 O 1.826116 -6.055085 2.342255 0
M  V30 3 C 1.903849 -4.697782 2.061905 0
M  V30 4 C 3.067881 -3.999748 2.307365 0
M  V30 5 C 3.170991 -2.655706 2.038817 0
M  V30 6 C 2.111692 -1.949637 1.511775 0
M  V30 7 C 2.142698 -0.525075 1.200010 0
M  V30 8 C 3.249779 0.248232 1.408694 0
M  V30 9 N 3.239442 1.561331 1.107832 0
M  V30 10 C 2.120741 2.118200 0.593979 0
M  V30 11 C 0.989694 1.363318 0.372818 0
M  V30 12 C -0.234511 1.929031 -0.179615 0
M  V30 13 C -0.403159 3.249261 -0.536942 0
M  V30 14 C -1.583995 3.739900 -1.057351 0
M  V30 15 C -2.650903 2.882151 -1.233029 0
M  V30 16 C -3.890729 3.419248 -1.784364 0
M  V30 17 O -3.935409 4.640603 -2.076248 0
M  V30 18 O -5.013275 2.666104 -2.003065 0
M  V30 19 C -2.540457 1.548996 -0.892953 0
M  V30 20 C -1.333589 1.120174 -0.377512 0
M  V30 21 N 1.044155 0.057129 0.687408 0
M  V30 22 C 0.972226 -2.692054 1.284879 0
M  V30 23 C 0.813328 -4.026210 1.531851 0
M  V30 24 H -0.081604 -6.698753 2.912222 0
M  V30 25 H 1.050570 -7.923901 2.263370 0
M  V30 26 H 0.296495 -6.802907 1.105534 0
M  V30 27 H 3.957818 -4.493098 2.727547 0
M  V30 28 H 4.089947 -2.145296 2.241801 0
M  V30 29 H 4.162496 -0.160851 1.817688 0
M  V30 30 H 2.145425 3.172674 0.363815 0
M  V30 31 H 0.425975 3.929254 -0.403459 0
M  V30 32 H -1.671130 4.793759 -1.326121 0
M  V30 33 H -5.928152 3.063302 -1.762186 0
M  V30 34 H -3.364540 0.856479 -1.021859 0
M  V30 35 H -1.221640 0.061830 -0.099118 0
M  V30 36 H 0.103136 -2.164533 0.864194 0
M  V30 37 H -0.130907 -4.527068 1.317943 0
M  V30 END ATOM
M  V30 BEGIN BOND
M  V30 1 1 1 2
M  V30 2 1 2 3
M  V30 3 2 3 4
M  V30 4 1 4 5
M  V30 5 2 5 6
M  V30 6 1 6 7
M  V30 7 2 7 8
M  V30 8 1 8 9
M  V30 9 2 9 10
M  V30 10 1 10 11
M  V30 11 1 11 12
M  V30 12 2 12 13
M  V30 13 1 13 14
M  V30 14 2 14 15
M  V30 15 1 15 16
M  V30 16 2 16 17
M  V30 17 1 16 18
M  V30 18 1 15 19
M  V30 19 2 19 20
M  V30 20 2 11 21
M  V30 21 1 6 22
M  V30 22 2 22 23
M  V30 23 1 23 3
M  V30 24 1 21 7
M  V30 25 1 20 12
M  V30 26 1 1 24
M  V30 27 1 1 25
M  V30 28 1 1 26
M  V30 29 1 4 27
M  V30 30 1 5 28
M  V30 31 1 8 29
M  V30 32 1 10 30
M  V30 33 1 13 31
M  V30 34 1 14 32
M  V30 35 1 18 33
M  V30 36 1 19 34
M  V30 37 1 20 35
M  V30 38 1 22 36
M  V30 39 1 23 37
M  V30 END BOND
M  V30 END CTAB
M  END
>  <Dataset>  (874) 
ChEMBL_Kinases

>  <Ligand_Instance>  (874) 
nan

>  <PDB_ID>  (874) 
nan

>  <Standardized_SMILES>  (874) 
COc1ccc(-c2cncc(-c3ccc(C(=O)O)cc3)n2)cc1

>  <Name>  (874) 
nan

>  <Pocket>  (874) 
nan

>  <ATP_Site>  (874) 
nan

>  <Peripheral>  (874) 
nan

>  <Num_H_Atoms_ProtBoundConf>  (874) 
nan

>  <Num_Resolved_Atoms>  (874) 
nan

>  <Num_Not_Resolved_Atoms>  (874) 
nan

$$$$
CHEMBL3359881
     RDKit          3D

  0  0  0  0  0  0  0  0  0  0999 V3000
M  V30 BEGIN CTAB
M  V30 COUNTS 34 36 0 0 0
M  V30 BEGIN ATOM
M  V30 1 O 4.770273 -4.466299 3.376138 0
M  V30 2 C 3.716970 -3.791428 3.520024 0
M  V30 3 O 3.220905 -3.792650 4.828046 0
M  V30 4 C 3.006490 -3.046460 2.490774 0
M  V30 5 C 1.856355 -2.347449 2.795356 0
M  V30 6 C 1.254053 -1.672354 1.753403 0
M  V30 7 C 1.750980 -1.677225 0.466569 0
M  V30 8 C 1.028391 -0.925094 -0.558899 0
M  V30 9 C 1.425546 -0.855073 -1.874978 0
M  V30 10 N 0.701360 -0.139592 -2.754039 0
M  V30 11 C -0.408650 0.504199 -2.340311 0
M  V30 12 C -0.835048 0.455450 -1.030084 0
M  V30 13 C -2.027082 1.128885 -0.516117 0
M  V30 14 C -2.307425 0.973355 0.825573 0
M  V30 15 C -3.414006 1.576073 1.389824 0
M  V30 16 C -4.275311 2.357122 0.615869 0
M  V30 17 C -3.964317 2.490534 -0.720362 0
M  V30 18 O -4.786681 3.262540 -1.561510 0
M  V30 19 C -2.861658 1.894916 -1.301910 0
M  V30 20 N -0.085342 -0.266641 -0.192383 0
M  V30 21 C 2.903775 -2.393341 0.221498 0
M  V30 22 C 3.570276 -3.098377 1.211171 0
M  V30 23 H 3.813780 -3.973677 5.619099 0
M  V30 24 H 1.490579 -2.362125 3.813522 0
M  V30 25 H 0.343582 -1.121486 2.004207 0
M  V30 26 H 2.315087 -1.374628 -2.192427 0
M  V30 27 H -0.991244 1.079324 -3.045673 0
M  V30 28 H -1.737173 0.404026 1.541077 0
M  V30 29 H -3.682779 1.488629 2.436317 0
M  V30 30 H -5.153967 2.847381 1.018458 0
M  V30 31 H -5.772445 3.351350 -1.289586 0
M  V30 32 H -2.652331 2.020899 -2.342006 0
M  V30 33 H 3.311639 -2.417017 -0.758183 0
M  V30 34 H 4.473811 -3.657253 1.009785 0
M  V30 END ATOM
M  V30 BEGIN BOND
M  V30 1 2 1 2
M  V30 2 1 2 3
M  V30 3 1 2 4
M  V30 4 2 4 5
M  V30 5 1 5 6
M  V30 6 2 6 7
M  V30 7 1 7 8
M  V30 8 2 8 9
M  V30 9 1 9 10
M  V30 10 2 10 11
M  V30 11 1 11 12
M  V30 12 1 12 13
M  V30 13 2 13 14
M  V30 14 1 14 15
M  V30 15 2 15 16
M  V30 16 1 16 17
M  V30 17 1 17 18
M  V30 18 2 17 19
M  V30 19 2 12 20
M  V30 20 1 7 21
M  V30 21 2 21 22
M  V30 22 1 22 4
M  V30 23 1 20 8
M  V30 24 1 19 13
M  V30 25 1 3 23
M  V30 26 1 5 24
M  V30 27 1 6 25
M  V30 28 1 9 26
M  V30 29 1 11 27
M  V30 30 1 14 28
M  V30 31 1 15 29
M  V30 32 1 16 30
M  V30 33 1 18 31
M  V30 34 1 19 32
M  V30 35 1 21 33
M  V30 36 1 22 34
M  V30 END BOND
M  V30 END CTAB
M  END
>  <Dataset>  (875) 
ChEMBL_Kinases

>  <Ligand_Instance>  (875) 
nan

>  <PDB_ID>  (875) 
nan

>  <Standardized_SMILES>  (875) 
O=C(O)c1ccc(-c2cncc(-c3cccc(O)c3)n2)cc1

>  <Name>  (875) 
nan

>  <Pocket>  (875) 
nan

>  <ATP_Site>  (875) 
nan

>  <Peripheral>  (875) 
nan

>  <Num_H_Atoms_ProtBoundConf>  (875) 
nan

>  <Num_Resolved_Atoms>  (875) 
nan

>  <Num_Not_Resolved_Atoms>  (875) 
nan

$$$$
CHEMBL335949
     RDKit          3D

  0  0  0  0  0  0  0  0  0  0999 V3000
M  V30 BEGIN CTAB
M  V30 COUNTS 67 72 0 0 0
M  V30 BEGIN ATOM
M  V30 1 C 9.670228 -2.768876 4.206790 0
M  V30 2 C 9.433343 -1.753083 3.161490 0
M  V30 3 O 10.391240 -1.359858 2.427789 0
M  V30 4 C 8.099422 -1.194213 2.962190 0
M  V30 5 C 7.648433 -0.260231 2.058485 0
M  V30 6 C 6.306670 -0.045884 2.247973 0
M  V30 7 C 5.401549 0.777157 1.611874 0
M  V30 8 C 4.079717 0.776097 2.035666 0
M  V30 9 C 3.037304 1.613403 1.404926 0
M  V30 10 C 1.741738 1.095174 1.418637 0
M  V30 11 C 0.789193 1.888882 0.809199 0
M  V30 12 C 1.000982 3.113487 0.206063 0
M  V30 13 N -0.064823 3.839332 -0.396780 0
M  V30 14 C -1.412728 3.403677 -0.303689 0
M  V30 15 N -2.169533 4.237135 0.433464 0
M  V30 16 C -3.474631 4.044794 0.681349 0
M  V30 17 C -4.094544 2.930434 0.156747 0
M  V30 18 C -3.309196 2.090519 -0.592076 0
M  V30 19 C -3.838727 0.877176 -1.183135 0
M  V30 20 C -3.084296 0.007848 -1.930847 0
M  V30 21 C -3.499243 -1.170271 -2.511755 0
M  V30 22 C -4.824549 -1.496146 -2.308455 0
M  V30 23 S -5.481311 -2.980785 -2.985937 0
M  V30 24 O -6.924558 -2.851276 -3.258006 0
M  V30 25 O -4.717317 -3.277085 -4.223173 0
M  V30 26 N -5.254732 -4.295221 -1.865671 0
M  V30 27 C -3.847002 -4.512862 -1.626744 0
M  V30 28 C -3.647151 -5.675377 -0.714659 0
M  V30 29 N -4.326099 -5.485760 0.560782 0
M  V30 30 C -5.727808 -5.143807 0.340750 0
M  V30 31 C -5.883529 -3.987231 -0.594404 0
M  V30 32 C -5.688396 -0.685411 -1.563742 0
M  V30 33 C -5.153428 0.484803 -1.023831 0
M  V30 34 N -1.990408 2.294663 -0.837031 0
M  V30 35 C 2.301468 3.568255 0.227971 0
M  V30 36 C 3.338756 2.847051 0.815967 0
M  V30 37 C 3.715158 -0.062810 3.096469 0
M  V30 38 C 4.655735 -0.872094 3.705336 0
M  V30 39 C 5.972164 -0.869015 3.279970 0
M  V30 40 O 7.037533 -1.523231 3.672831 0
M  V30 41 H 10.430661 -2.468742 4.931406 0
M  V30 42 H 9.966103 -3.747808 3.779474 0
M  V30 43 H 8.704353 -2.919156 4.778335 0
M  V30 44 H 8.286943 0.225384 1.309464 0
M  V30 45 H 5.671713 1.429284 0.792554 0
M  V30 46 H 1.458321 0.155454 1.857107 0
M  V30 47 H -0.240059 1.523795 0.797017 0
M  V30 48 H 0.212669 4.716292 -0.912043 0
M  V30 49 H -4.036733 4.768559 1.293054 0
M  V30 50 H -5.142411 2.760545 0.345347 0
M  V30 51 H -2.037944 0.259493 -2.095667 0
M  V30 52 H -2.833750 -1.800558 -3.089601 0
M  V30 53 H -3.392100 -4.793910 -2.606228 0
M  V30 54 H -3.324877 -3.630263 -1.192023 0
M  V30 55 H -2.552647 -5.715311 -0.487833 0
M  V30 56 H -3.970155 -6.624290 -1.178314 0
M  V30 57 H -3.852316 -4.740331 1.126000 0
M  V30 58 H -6.108237 -4.892136 1.368140 0
M  V30 59 H -6.263875 -6.019111 -0.068858 0
M  V30 60 H -6.982151 -3.842245 -0.734812 0
M  V30 61 H -5.481733 -3.038291 -0.218794 0
M  V30 62 H -6.724021 -0.952331 -1.413908 0
M  V30 63 H -5.862944 1.071024 -0.461155 0
M  V30 64 H 2.518908 4.541366 -0.238115 0
M  V30 65 H 4.369650 3.211483 0.831550 0
M  V30 66 H 2.678805 -0.096068 3.465308 0
M  V30 67 H 4.311970 -1.501701 4.524585 0
M  V30 END ATOM
M  V30 BEGIN BOND
M  V30 1 1 1 2
M  V30 2 2 2 3
M  V30 3 1 2 4
M  V30 4 2 4 5
M  V30 5 1 5 6
M  V30 6 2 6 7
M  V30 7 1 7 8
M  V30 8 1 8 9
M  V30 9 2 9 10
M  V30 10 1 10 11
M  V30 11 2 11 12
M  V30 12 1 12 13
M  V30 13 1 13 14
M  V30 14 2 14 15
M  V30 15 1 15 16
M  V30 16 2 16 17
M  V30 17 1 17 18
M  V30 18 1 18 19
M  V30 19 2 19 20
M  V30 20 1 20 21
M  V30 21 2 21 22
M  V30 22 1 22 23
M  V30 23 2 23 24
M  V30 24 2 23 25
M  V30 25 1 23 26
M  V30 26 1 26 27
M  V30 27 1 27 28
M  V30 28 1 28 29
M  V30 29 1 29 30
M  V30 30 1 30 31
M  V30 31 1 22 32
M  V30 32 2 32 33
M  V30 33 2 18 34
M  V30 34 1 12 35
M  V30 35 2 35 36
M  V30 36 2 8 37
M  V30 37 1 37 38
M  V30 38 2 38 39
M  V30 39 1 39 40
M  V30 40 1 40 4
M  V30 41 1 39 6
M  V30 42 1 36 9
M  V30 43 1 34 14
M  V30 44 1 33 19
M  V30 45 1 31 26
M  V30 46 1 1 41
M  V30 47 1 1 42
M  V30 48 1 1 43
M  V30 49 1 5 44
M  V30 50 1 7 45
M  V30 51 1 10 46
M  V30 52 1 11 47
M  V30 53 1 13 48
M  V30 54 1 16 49
M  V30 55 1 17 50
M  V30 56 1 20 51
M  V30 57 1 21 52
M  V30 58 1 27 53
M  V30 59 1 27 54
M  V30 60 1 28 55
M  V30 61 1 28 56
M  V30 62 1 29 57
M  V30 63 1 30 58
M  V30 64 1 30 59
M  V30 65 1 31 60
M  V30 66 1 31 61
M  V30 67 1 32 62
M  V30 68 1 33 63
M  V30 69 1 35 64
M  V30 70 1 36 65
M  V30 71 1 37 66
M  V30 72 1 38 67
M  V30 END BOND
M  V30 END CTAB
M  END
>  <Dataset>  (876) 
ChEMBL_Kinases

>  <Ligand_Instance>  (876) 
nan

>  <PDB_ID>  (876) 
nan

>  <Standardized_SMILES>  (876) 
CC(=O)c1cc2cc(-c3ccc(Nc4nccc(-c5ccc(S(=O)(=O)N6CCNCC6)cc5)n4)cc3)ccc2o1

>  <Name>  (876) 
nan

>  <Pocket>  (876) 
nan

>  <ATP_Site>  (876) 
nan

>  <Peripheral>  (876) 
nan

>  <Num_H_Atoms_ProtBoundConf>  (876) 
nan

>  <Num_Resolved_Atoms>  (876) 
nan

>  <Num_Not_Resolved_Atoms>  (876) 
nan

$$$$
CHEMBL3358803
     RDKit          3D

  0  0  0  0  0  0  0  0  0  0999 V3000
M  V30 BEGIN CTAB
M  V30 COUNTS 72 74 0 0 0
M  V30 BEGIN ATOM
M  V30 1 C 3.725486 -2.466008 5.305078 0
M  V30 2 C 4.358189 -2.840242 3.999300 0
M  V30 3 C 3.761333 -4.089344 3.403781 0
M  V30 4 C 2.319090 -4.031779 3.108934 0
M  V30 5 C 1.745440 -3.020966 2.226061 0
M  V30 6 C 2.114284 -2.872534 0.814897 0
M  V30 7 C 3.528629 -2.498351 0.491188 0
M  V30 8 C 3.761882 -2.328959 -0.978594 0
M  V30 9 C 3.044909 -1.298043 -1.726691 0
M  V30 10 C 3.237177 0.136202 -1.464810 0
M  V30 11 C 2.893969 0.764595 -0.189025 0
M  V30 12 C 1.455950 0.678007 0.179393 0
M  V30 13 O 0.499831 0.230960 -0.491938 0
M  V30 14 N 1.197682 1.179380 1.465364 0
M  V30 15 N 0.027433 1.281029 2.173566 0
M  V30 16 C -1.338153 0.995610 2.009343 0
M  V30 17 O -1.670298 0.476169 0.858941 0
M  V30 18 C -2.757389 0.705332 1.854301 0
M  V30 19 S -3.649283 2.319006 1.886614 0
M  V30 20 C -3.625970 2.870801 0.186650 0
M  V30 21 C -3.847061 4.205228 0.046339 0
M  V30 22 C -3.866140 4.800354 -1.190844 0
M  V30 23 C -3.653249 4.008901 -2.307448 0
M  V30 24 C -3.434304 2.662914 -2.104018 0
M  V30 25 C -3.407745 2.027102 -0.881412 0
M  V30 26 N -3.151401 0.608793 -0.780978 0
M  V30 27 C -2.932891 -0.191910 -1.973907 0
M  V30 28 C -4.117319 -0.857233 -2.505858 0
M  V30 29 C -4.412695 -2.179004 -2.157255 0
M  V30 30 C -5.521717 -2.870471 -2.615964 0
M  V30 31 C -6.421182 -2.273948 -3.467479 0
M  V30 32 C -6.184689 -0.965419 -3.850496 0
M  V30 33 C -5.066814 -0.339649 -3.358536 0
M  V30 34 C -3.128081 0.076679 0.559800 0
M  V30 35 O -3.494848 -1.150329 0.605591 0
M  V30 36 H 4.437994 -1.793855 5.867287 0
M  V30 37 H 3.440410 -3.338784 5.928294 0
M  V30 38 H 2.799333 -1.869887 5.160569 0
M  V30 39 H 4.329221 -1.963049 3.325346 0
M  V30 40 H 5.449870 -3.064040 4.129158 0
M  V30 41 H 3.833658 -4.847207 4.284009 0
M  V30 42 H 4.347837 -4.588590 2.641562 0
M  V30 43 H 1.781334 -3.931574 4.107142 0
M  V30 44 H 2.035464 -5.084728 2.755653 0
M  V30 45 H 1.928360 -2.008786 2.711019 0
M  V30 46 H 0.608467 -3.105232 2.352319 0
M  V30 47 H 1.404871 -2.165354 0.312642 0
M  V30 48 H 1.866512 -3.873366 0.319437 0
M  V30 49 H 3.827107 -1.586651 1.021134 0
M  V30 50 H 4.251521 -3.287525 0.883052 0
M  V30 51 H 4.877589 -2.156675 -1.118526 0
M  V30 52 H 3.589693 -3.327760 -1.507106 0
M  V30 53 H 1.946735 -1.580460 -1.701732 0
M  V30 54 H 3.275533 -1.469413 -2.837946 0
M  V30 55 H 2.726088 0.734954 -2.305995 0
M  V30 56 H 4.331977 0.430690 -1.670635 0
M  V30 57 H 3.556904 0.591289 0.648768 0
M  V30 58 H 3.026507 1.905261 -0.381614 0
M  V30 59 H 1.906378 1.572952 2.110466 0
M  V30 60 H -0.229423 1.620057 3.110615 0
M  V30 61 H -3.163538 0.057378 2.670054 0
M  V30 62 H -4.020250 4.890967 0.858152 0
M  V30 63 H -4.041632 5.860844 -1.332507 0
M  V30 64 H -3.666075 4.475121 -3.282846 0
M  V30 65 H -3.269470 2.129475 -3.027713 0
M  V30 66 H -2.230740 -1.008368 -1.637750 0
M  V30 67 H -2.371136 0.376876 -2.726364 0
M  V30 68 H -3.809673 -2.783050 -1.511656 0
M  V30 69 H -5.758460 -3.885442 -2.353418 0
M  V30 70 H -7.288549 -2.779348 -3.842262 0
M  V30 71 H -6.880944 -0.495028 -4.512789 0
M  V30 72 H -4.957259 0.677305 -3.705076 0
M  V30 END ATOM
M  V30 BEGIN BOND
M  V30 1 1 1 2
M  V30 2 1 2 3
M  V30 3 1 3 4
M  V30 4 1 4 5
M  V30 5 1 5 6
M  V30 6 1 6 7
M  V30 7 1 7 8
M  V30 8 1 8 9
M  V30 9 1 9 10
M  V30 10 1 10 11
M  V30 11 1 11 12
M  V30 12 2 12 13
M  V30 13 1 12 14
M  V30 14 1 14 15
M  V30 15 1 15 16
M  V30 16 2 16 17
M  V30 17 1 16 18
M  V30 18 1 18 19
M  V30 19 1 19 20
M  V30 20 2 20 21
M  V30 21 1 21 22
M  V30 22 2 22 23
M  V30 23 1 23 24
M  V30 24 2 24 25
M  V30 25 1 25 26
M  V30 26 1 26 27
M  V30 27 1 27 28
M  V30 28 2 28 29
M  V30 29 1 29 30
M  V30 30 2 30 31
M  V30 31 1 31 32
M  V30 32 2 32 33
M  V30 33 1 26 34
M  V30 34 2 34 35
M  V30 35 1 34 18
M  V30 36 1 25 20
M  V30 37 1 33 28
M  V30 38 1 1 36
M  V30 39 1 1 37
M  V30 40 1 1 38
M  V30 41 1 2 39
M  V30 42 1 2 40
M  V30 43 1 3 41
M  V30 44 1 3 42
M  V30 45 1 4 43
M  V30 46 1 4 44
M  V30 47 1 5 45
M  V30 48 1 5 46
M  V30 49 1 6 47
M  V30 50 1 6 48
M  V30 51 1 7 49
M  V30 52 1 7 50
M  V30 53 1 8 51
M  V30 54 1 8 52
M  V30 55 1 9 53
M  V30 56 1 9 54
M  V30 57 1 10 55
M  V30 58 1 10 56
M  V30 59 1 11 57
M  V30 60 1 11 58
M  V30 61 1 14 59
M  V30 62 1 15 60
M  V30 63 1 18 61
M  V30 64 1 21 62
M  V30 65 1 22 63
M  V30 66 1 23 64
M  V30 67 1 24 65
M  V30 68 1 27 66
M  V30 69 1 27 67
M  V30 70 1 29 68
M  V30 71 1 30 69
M  V30 72 1 31 70
M  V30 73 1 32 71
M  V30 74 1 33 72
M  V30 END BOND
M  V30 END CTAB
M  END
>  <Dataset>  (877) 
ChEMBL_Kinases

>  <Ligand_Instance>  (877) 
nan

>  <PDB_ID>  (877) 
nan

>  <Standardized_SMILES>  (877) 
CCCCCCCCCCCC(=O)NNC(=O)C1Sc2ccccc2N(Cc2ccccc2)C1=O

>  <Name>  (877) 
nan

>  <Pocket>  (877) 
nan

>  <ATP_Site>  (877) 
nan

>  <Peripheral>  (877) 
nan

>  <Num_H_Atoms_ProtBoundConf>  (877) 
nan

>  <Num_Resolved_Atoms>  (877) 
nan

>  <Num_Not_Resolved_Atoms>  (877) 
nan

$$$$
CHEMBL3358802
     RDKit          3D

  0  0  0  0  0  0  0  0  0  0999 V3000
M  V30 BEGIN CTAB
M  V30 COUNTS 65 66 0 0 0
M  V30 BEGIN ATOM
M  V30 1 C 5.069280 1.552697 5.287479 0
M  V30 2 C 5.813118 1.734674 3.966612 0
M  V30 3 C 6.349481 0.395180 3.555726 0
M  V30 4 C 7.110686 0.418787 2.267992 0
M  V30 5 C 6.279551 0.890715 1.094926 0
M  V30 6 C 5.110368 -0.020051 0.913239 0
M  V30 7 C 4.208092 0.384676 -0.260711 0
M  V30 8 C 3.104065 -0.625528 -0.283514 0
M  V30 9 C 2.097437 -0.404659 -1.373174 0
M  V30 10 C 1.379297 0.890304 -1.346020 0
M  V30 11 C 0.409446 0.939065 -2.505778 0
M  V30 12 C -0.574435 -0.191264 -2.348300 0
M  V30 13 O -0.931071 -1.180191 -1.621594 0
M  V30 14 N -1.529898 -0.226639 -3.423412 0
M  V30 15 N -2.467855 -1.286959 -3.290714 0
M  V30 16 C -3.614635 -0.879415 -2.549494 0
M  V30 17 O -3.715664 0.292029 -2.099190 0
M  V30 18 C -4.701973 -1.839960 -2.303675 0
M  V30 19 S -3.972323 -3.228006 -1.399592 0
M  V30 20 C -4.970520 -3.396333 0.067145 0
M  V30 21 C -4.531823 -4.443271 0.875124 0
M  V30 22 C -5.164752 -4.762873 2.078851 0
M  V30 23 C -6.255350 -4.047180 2.512871 0
M  V30 24 C -6.662114 -3.019865 1.690760 0
M  V30 25 C -6.063761 -2.678070 0.501577 0
M  V30 26 N -6.495846 -1.611554 -0.326318 0
M  V30 27 C -7.638444 -0.802727 0.052419 0
M  V30 28 C -7.088446 0.342647 0.886675 0
M  V30 29 C -5.819277 -1.318204 -1.536002 0
M  V30 30 O -6.236692 -0.325455 -2.224899 0
M  V30 31 H 4.593775 2.503201 5.606818 0
M  V30 32 H 4.286230 0.782494 5.140660 0
M  V30 33 H 5.797323 1.244017 6.055483 0
M  V30 34 H 6.669682 2.390245 4.163052 0
M  V30 35 H 5.079709 2.154996 3.246780 0
M  V30 36 H 5.548666 -0.373964 3.572949 0
M  V30 37 H 7.088250 0.108525 4.348353 0
M  V30 38 H 7.533016 -0.585322 2.101780 0
M  V30 39 H 7.981333 1.105028 2.407571 0
M  V30 40 H 6.033987 1.956422 1.158632 0
M  V30 41 H 6.923180 0.771084 0.183481 0
M  V30 42 H 5.502510 -1.040778 0.735771 0
M  V30 43 H 4.513057 -0.008821 1.856153 0
M  V30 44 H 3.884916 1.417063 -0.166664 0
M  V30 45 H 4.856851 0.308852 -1.156892 0
M  V30 46 H 3.558373 -1.623876 -0.483049 0
M  V30 47 H 2.590784 -0.728437 0.692591 0
M  V30 48 H 2.595838 -0.472090 -2.381092 0
M  V30 49 H 1.369044 -1.237564 -1.374815 0
M  V30 50 H 2.075921 1.748163 -1.407148 0
M  V30 51 H 0.765721 1.061785 -0.443019 0
M  V30 52 H -0.163432 1.910513 -2.474587 0
M  V30 53 H 0.962640 0.780501 -3.430199 0
M  V30 54 H -1.652840 0.390531 -4.283382 0
M  V30 55 H -2.394814 -2.263653 -3.661055 0
M  V30 56 H -5.076608 -2.250928 -3.267411 0
M  V30 57 H -3.678340 -5.108197 0.671681 0
M  V30 58 H -4.831771 -5.577684 2.717612 0
M  V30 59 H -6.755293 -4.281041 3.438938 0
M  V30 60 H -7.515587 -2.445461 2.017956 0
M  V30 61 H -8.390732 -1.309348 0.638832 0
M  V30 62 H -8.055980 -0.333155 -0.881621 0
M  V30 63 H -6.052150 0.607560 0.594388 0
M  V30 64 H -7.794249 1.210077 0.855576 0
M  V30 65 H -7.026020 0.028888 1.951657 0
M  V30 END ATOM
M  V30 BEGIN BOND
M  V30 1 1 1 2
M  V30 2 1 2 3
M  V30 3 1 3 4
M  V30 4 1 4 5
M  V30 5 1 5 6
M  V30 6 1 6 7
M  V30 7 1 7 8
M  V30 8 1 8 9
M  V30 9 1 9 10
M  V30 10 1 10 11
M  V30 11 1 11 12
M  V30 12 2 12 13
M  V30 13 1 12 14
M  V30 14 1 14 15
M  V30 15 1 15 16
M  V30 16 2 16 17
M  V30 17 1 16 18
M  V30 18 1 18 19
M  V30 19 1 19 20
M  V30 20 2 20 21
M  V30 21 1 21 22
M  V30 22 2 22 23
M  V30 23 1 23 24
M  V30 24 2 24 25
M  V30 25 1 25 26
M  V30 26 1 26 27
M  V30 27 1 27 28
M  V30 28 1 26 29
M  V30 29 2 29 30
M  V30 30 1 29 18
M  V30 31 1 25 20
M  V30 32 1 1 31
M  V30 33 1 1 32
M  V30 34 1 1 33
M  V30 35 1 2 34
M  V30 36 1 2 35
M  V30 37 1 3 36
M  V30 38 1 3 37
M  V30 39 1 4 38
M  V30 40 1 4 39
M  V30 41 1 5 40
M  V30 42 1 5 41
M  V30 43 1 6 42
M  V30 44 1 6 43
M  V30 45 1 7 44
M  V30 46 1 7 45
M  V30 47 1 8 46
M  V30 48 1 8 47
M  V30 49 1 9 48
M  V30 50 1 9 49
M  V30 51 1 10 50
M  V30 52 1 10 51
M  V30 53 1 11 52
M  V30 54 1 11 53
M  V30 55 1 14 54
M  V30 56 1 15 55
M  V30 57 1 18 56
M  V30 58 1 21 57
M  V30 59 1 22 58
M  V30 60 1 23 59
M  V30 61 1 24 60
M  V30 62 1 27 61
M  V30 63 1 27 62
M  V30 64 1 28 63
M  V30 65 1 28 64
M  V30 66 1 28 65
M  V30 END BOND
M  V30 END CTAB
M  END
>  <Dataset>  (878) 
ChEMBL_Kinases

>  <Ligand_Instance>  (878) 
nan

>  <PDB_ID>  (878) 
nan

>  <Standardized_SMILES>  (878) 
CCCCCCCCCCCC(=O)NNC(=O)C1Sc2ccccc2N(CC)C1=O

>  <Name>  (878) 
nan

>  <Pocket>  (878) 
nan

>  <ATP_Site>  (878) 
nan

>  <Peripheral>  (878) 
nan

>  <Num_H_Atoms_ProtBoundConf>  (878) 
nan

>  <Num_Resolved_Atoms>  (878) 
nan

>  <Num_Not_Resolved_Atoms>  (878) 
nan

$$$$
CHEMBL3357949
     RDKit          3D

  0  0  0  0  0  0  0  0  0  0999 V3000
M  V30 BEGIN CTAB
M  V30 COUNTS 54 56 0 0 0
M  V30 BEGIN ATOM
M  V30 1 C 0.696230 0.144568 3.858739 0
M  V30 2 C 1.687748 -0.441280 4.818702 0
M  V30 3 C 1.766207 -1.954237 4.692512 0
M  V30 4 C 3.052604 0.193719 4.754193 0
M  V30 5 N 3.707674 0.104702 3.494735 0
M  V30 6 C 3.313807 0.587868 2.229738 0
M  V30 7 N 3.659231 1.831438 1.827703 0
M  V30 8 C 3.321274 2.356028 0.640656 0
M  V30 9 C 2.576226 1.610271 -0.249798 0
M  V30 10 C 2.220124 0.340085 0.153889 0
M  V30 11 N 2.587860 -0.115192 1.340646 0
M  V30 12 C 1.411917 -0.445700 -0.833238 0
M  V30 13 N 0.320333 0.453321 -1.220223 0
M  V30 14 C -1.104369 0.243097 -1.185848 0
M  V30 15 O -2.026679 1.025489 -1.521845 0
M  V30 16 N -1.583835 -0.993982 -0.719298 0
M  V30 17 C -3.011729 -1.343300 -0.630848 0 CFG=2
M  V30 18 C -3.441889 -1.586157 0.771832 0
M  V30 19 O -4.799391 -1.895101 0.776528 0
M  V30 20 C -3.227285 -2.470420 -1.548290 0
M  V30 21 C -3.880980 -3.672109 -1.397274 0
M  V30 22 C -3.956165 -4.585178 -2.425483 0
M  V30 23 C -3.387546 -4.358758 -3.661419 0
M  V30 24 F -3.545150 -5.349056 -4.570702 0
M  V30 25 C -2.725458 -3.156156 -3.833390 0
M  V30 26 Cl -2.015947 -2.898053 -5.408216 0
M  V30 27 C -2.650369 -2.241801 -2.803408 0
M  V30 28 C 0.664391 1.765402 -1.720268 0
M  V30 29 C 2.130528 2.046805 -1.583135 0
M  V30 30 H 1.094656 1.103936 3.484869 0
M  V30 31 H 0.414140 -0.553865 3.045699 0
M  V30 32 H -0.242215 0.369480 4.401970 0
M  V30 33 H 1.319806 -0.255942 5.847693 0
M  V30 34 H 1.280339 -2.257661 3.733210 0
M  V30 35 H 2.807495 -2.339277 4.753185 0
M  V30 36 H 1.194792 -2.482076 5.493836 0
M  V30 37 H 3.680467 -0.323550 5.508194 0
M  V30 38 H 2.937359 1.246918 5.076256 0
M  V30 39 H 4.618735 -0.318746 3.154240 0
M  V30 40 H 3.603661 3.351653 0.331122 0
M  V30 41 H 0.979935 -1.333993 -0.347980 0
M  V30 42 H 2.042355 -0.738341 -1.690338 0
M  V30 43 H -1.008861 -1.788277 -0.390109 0
M  V30 44 H -3.603575 -0.457079 -0.995932 0
M  V30 45 H -2.841499 -2.359151 1.296335 0
M  V30 46 H -3.313154 -0.645261 1.341563 0
M  V30 47 H -5.327654 -1.114552 1.001566 0
M  V30 48 H -4.302435 -3.799628 -0.418856 0
M  V30 49 H -4.495488 -5.510036 -2.211503 0
M  V30 50 H -2.100196 -1.348280 -3.088920 0
M  V30 51 H 0.100114 2.494911 -1.069270 0
M  V30 52 H 0.294919 1.882620 -2.770373 0
M  V30 53 H 2.352468 3.092475 -1.808002 0
M  V30 54 H 2.645432 1.363958 -2.316946 0
M  V30 END ATOM
M  V30 BEGIN BOND
M  V30 1 1 1 2
M  V30 2 1 2 3
M  V30 3 1 2 4
M  V30 4 1 4 5
M  V30 5 1 5 6
M  V30 6 2 6 7
M  V30 7 1 7 8
M  V30 8 2 8 9
M  V30 9 1 9 10
M  V30 10 2 10 11
M  V30 11 1 10 12
M  V30 12 1 12 13
M  V30 13 1 13 14
M  V30 14 2 14 15
M  V30 15 1 14 16
M  V30 16 1 16 17
M  V30 17 1 17 18
M  V30 18 1 18 19
M  V30 19 1 17 20
M  V30 20 2 20 21
M  V30 21 1 21 22
M  V30 22 2 22 23
M  V30 23 1 23 24
M  V30 24 1 23 25
M  V30 25 1 25 26
M  V30 26 2 25 27
M  V30 27 1 13 28
M  V30 28 1 28 29
M  V30 29 1 11 6
M  V30 30 1 27 20
M  V30 31 1 29 9
M  V30 32 1 1 30
M  V30 33 1 1 31
M  V30 34 1 1 32
M  V30 35 1 2 33
M  V30 36 1 3 34
M  V30 37 1 3 35
M  V30 38 1 3 36
M  V30 39 1 4 37
M  V30 40 1 4 38
M  V30 41 1 5 39
M  V30 42 1 8 40
M  V30 43 1 12 41
M  V30 44 1 12 42
M  V30 45 1 16 43
M  V30 46 1 17 44 CFG=3
M  V30 47 1 18 45
M  V30 48 1 18 46
M  V30 49 1 19 47
M  V30 50 1 21 48
M  V30 51 1 22 49
M  V30 52 1 27 50
M  V30 53 1 28 51
M  V30 54 1 28 52
M  V30 55 1 29 53
M  V30 56 1 29 54
M  V30 END BOND
M  V30 END CTAB
M  END
>  <Dataset>  (879) 
ChEMBL_Kinases

>  <Ligand_Instance>  (879) 
nan

>  <PDB_ID>  (879) 
nan

>  <Standardized_SMILES>  (879) 
CC(C)CNc1ncc2c(n1)CN(C(=O)N[C@H](CO)c1ccc(F)c(Cl)c1)CC2

>  <Name>  (879) 
nan

>  <Pocket>  (879) 
nan

>  <ATP_Site>  (879) 
nan

>  <Peripheral>  (879) 
nan

>  <Num_H_Atoms_ProtBoundConf>  (879) 
nan

>  <Num_Resolved_Atoms>  (879) 
nan

>  <Num_Not_Resolved_Atoms>  (879) 
nan

$$$$
CHEMBL3357948
     RDKit          3D

  0  0  0  0  0  0  0  0  0  0999 V3000
M  V30 BEGIN CTAB
M  V30 COUNTS 52 54 0 0 0
M  V30 BEGIN ATOM
M  V30 1 C 5.078323 -1.964310 3.602876 0
M  V30 2 C 5.845666 -1.283132 2.489532 0 CFG=1
M  V30 3 C 6.517550 -2.348134 1.633711 0
M  V30 4 O 7.200836 -1.774258 0.564444 0
M  V30 5 N 4.891073 -0.511132 1.723223 0
M  V30 6 C 3.767464 -1.111443 1.093172 0
M  V30 7 N 3.486950 -2.423935 1.155633 0
M  V30 8 C 2.429883 -3.011725 0.567664 0
M  V30 9 C 1.550108 -2.237226 -0.160468 0
M  V30 10 C 1.823903 -0.887084 -0.234480 0
M  V30 11 N 2.895677 -0.378796 0.378251 0
M  V30 12 C 0.862849 -0.072125 -1.023541 0
M  V30 13 N -0.429017 -0.727704 -0.822922 0
M  V30 14 C -1.369102 -0.027147 -0.017299 0
M  V30 15 O -0.880558 1.069226 0.382580 0
M  V30 16 N -2.665257 -0.452155 0.313906 0
M  V30 17 C -3.524627 0.365879 1.150214 0 CFG=2
M  V30 18 C -3.899781 -0.245826 2.445356 0
M  V30 19 O -4.702096 0.626119 3.172646 0
M  V30 20 C -4.678995 0.873870 0.376005 0
M  V30 21 C -6.038012 0.921412 0.588906 0
M  V30 22 C -6.881269 1.480680 -0.343781 0
M  V30 23 C -6.423822 2.018389 -1.528747 0
M  V30 24 F -7.331133 2.546921 -2.385568 0
M  V30 25 C -5.064477 1.981191 -1.762952 0
M  V30 26 Cl -4.561821 2.681773 -3.285915 0
M  V30 27 C -4.193028 1.414943 -0.822462 0
M  V30 28 C -0.473510 -2.001594 -1.516326 0
M  V30 29 C 0.411828 -2.970240 -0.774555 0
M  V30 30 H 4.764986 -2.987509 3.288500 0
M  V30 31 H 4.232731 -1.346206 3.949529 0
M  V30 32 H 5.761347 -2.141432 4.475677 0
M  V30 33 H 6.595930 -0.587216 2.920459 0
M  V30 34 H 5.767515 -3.043194 1.214652 0
M  V30 35 H 7.210116 -2.943747 2.260770 0
M  V30 36 H 8.023014 -1.374817 0.956957 0
M  V30 37 H 5.010846 0.522426 1.615725 0
M  V30 38 H 2.390722 -4.085226 0.744406 0
M  V30 39 H 0.886722 0.949099 -0.643875 0
M  V30 40 H 1.138397 -0.083136 -2.103940 0
M  V30 41 H -2.965779 -1.386865 -0.078292 0
M  V30 42 H -2.901956 1.277502 1.391338 0
M  V30 43 H -4.424986 -1.217656 2.356398 0
M  V30 44 H -2.955265 -0.358480 3.047824 0
M  V30 45 H -4.518150 1.569416 2.955952 0
M  V30 46 H -6.292433 0.474141 1.536100 0
M  V30 47 H -7.933159 1.445371 -0.033773 0
M  V30 48 H -3.175847 1.482438 -1.189437 0
M  V30 49 H -0.067816 -1.900527 -2.545535 0
M  V30 50 H -1.502494 -2.412712 -1.552951 0
M  V30 51 H 0.801930 -3.718313 -1.517909 0
M  V30 52 H -0.127632 -3.582338 -0.023992 0
M  V30 END ATOM
M  V30 BEGIN BOND
M  V30 1 1 1 2
M  V30 2 1 2 3
M  V30 3 1 3 4
M  V30 4 1 2 5
M  V30 5 1 5 6
M  V30 6 2 6 7
M  V30 7 1 7 8
M  V30 8 2 8 9
M  V30 9 1 9 10
M  V30 10 2 10 11
M  V30 11 1 10 12
M  V30 12 1 12 13
M  V30 13 1 13 14
M  V30 14 2 14 15
M  V30 15 1 14 16
M  V30 16 1 16 17
M  V30 17 1 17 18
M  V30 18 1 18 19
M  V30 19 1 17 20
M  V30 20 2 20 21
M  V30 21 1 21 22
M  V30 22 2 22 23
M  V30 23 1 23 24
M  V30 24 1 23 25
M  V30 25 1 25 26
M  V30 26 2 25 27
M  V30 27 1 13 28
M  V30 28 1 28 29
M  V30 29 1 11 6
M  V30 30 1 27 20
M  V30 31 1 29 9
M  V30 32 1 1 30
M  V30 33 1 1 31
M  V30 34 1 1 32
M  V30 35 1 2 33 CFG=1
M  V30 36 1 3 34
M  V30 37 1 3 35
M  V30 38 1 4 36
M  V30 39 1 5 37
M  V30 40 1 8 38
M  V30 41 1 12 39
M  V30 42 1 12 40
M  V30 43 1 16 41
M  V30 44 1 17 42 CFG=1
M  V30 45 1 18 43
M  V30 46 1 18 44
M  V30 47 1 19 45
M  V30 48 1 21 46
M  V30 49 1 22 47
M  V30 50 1 27 48
M  V30 51 1 28 49
M  V30 52 1 28 50
M  V30 53 1 29 51
M  V30 54 1 29 52
M  V30 END BOND
M  V30 END CTAB
M  END
>  <Dataset>  (880) 
ChEMBL_Kinases

>  <Ligand_Instance>  (880) 
nan

>  <PDB_ID>  (880) 
nan

>  <Standardized_SMILES>  (880) 
C[C@@H](CO)Nc1ncc2c(n1)CN(C(=O)N[C@H](CO)c1ccc(F)c(Cl)c1)CC2

>  <Name>  (880) 
nan

>  <Pocket>  (880) 
nan

>  <ATP_Site>  (880) 
nan

>  <Peripheral>  (880) 
nan

>  <Num_H_Atoms_ProtBoundConf>  (880) 
nan

>  <Num_Resolved_Atoms>  (880) 
nan

>  <Num_Not_Resolved_Atoms>  (880) 
nan

$$$$
CHEMBL3356462
     RDKit          3D

  0  0  0  0  0  0  0  0  0  0999 V3000
M  V30 BEGIN CTAB
M  V30 COUNTS 42 46 0 0 0
M  V30 BEGIN ATOM
M  V30 1 O -0.979287 -1.895652 4.239543 0
M  V30 2 C -0.483044 -2.424520 3.215758 0
M  V30 3 N -0.406999 -3.836186 3.066318 0
M  V30 4 N -0.047532 -4.459068 1.869244 0
M  V30 5 C 0.226592 -3.709654 0.856995 0
M  V30 6 C 0.592535 -4.462273 -0.351873 0
M  V30 7 O 0.453629 -3.697006 -1.514831 0
M  V30 8 C 0.404652 -2.331925 -1.478885 0
M  V30 9 C 0.500227 -1.694775 -2.694841 0
M  V30 10 C 0.460733 -0.325318 -2.756815 0
M  V30 11 C 0.324386 0.466150 -1.609776 0
M  V30 12 N 0.279380 1.866591 -1.717703 0
M  V30 13 C 0.175099 2.953140 -0.777230 0
M  V30 14 C -1.041757 2.779322 0.085355 0
M  V30 15 N -0.238296 2.892815 1.261978 0
M  V30 16 C 0.957902 2.876449 0.472631 0
M  V30 17 C 0.236364 -0.243556 -0.450566 0
M  V30 18 C 0.268485 -1.613755 -0.310608 0
M  V30 19 N 0.171706 -2.293278 0.933746 0
M  V30 20 C 0.028702 -1.533158 2.151940 0
M  V30 21 C 1.346371 -0.893709 2.542848 0
M  V30 22 C 1.462181 -0.039513 3.725119 0
M  V30 23 C 2.056579 -1.392010 3.770129 0
M  V30 24 H -0.641883 -4.375202 3.925255 0
M  V30 25 H -0.016791 -5.379922 -0.457759 0
M  V30 26 H 1.657195 -4.792257 -0.204506 0
M  V30 27 H 0.607043 -2.238256 -3.620292 0
M  V30 28 H 0.540400 0.145850 -3.749294 0
M  V30 29 H 0.332268 2.229069 -2.719418 0
M  V30 30 H 0.239395 3.965240 -1.257014 0
M  V30 31 H -1.579291 1.814516 -0.063744 0
M  V30 32 H -1.745033 3.669161 0.010590 0
M  V30 33 H -0.346276 2.162913 1.981405 0
M  V30 34 H 1.512411 3.852237 0.647570 0
M  V30 35 H 1.645555 2.010290 0.612476 0
M  V30 36 H 0.122727 0.252652 0.492085 0
M  V30 37 H -0.746534 -0.725736 2.046114 0
M  V30 38 H 1.997909 -0.655267 1.679139 0
M  V30 39 H 0.589437 0.221409 4.384113 0
M  V30 40 H 2.191114 0.807131 3.724847 0
M  V30 41 H 1.601909 -2.217417 4.374200 0
M  V30 42 H 3.154729 -1.528068 3.697472 0
M  V30 END ATOM
M  V30 BEGIN BOND
M  V30 1 2 1 2
M  V30 2 1 2 3
M  V30 3 1 3 4
M  V30 4 2 4 5
M  V30 5 1 5 6
M  V30 6 1 6 7
M  V30 7 1 7 8
M  V30 8 2 8 9
M  V30 9 1 9 10
M  V30 10 2 10 11
M  V30 11 1 11 12
M  V30 12 1 12 13
M  V30 13 1 13 14
M  V30 14 1 14 15
M  V30 15 1 15 16
M  V30 16 1 11 17
M  V30 17 2 17 18
M  V30 18 1 18 19
M  V30 19 1 19 20
M  V30 20 1 20 21
M  V30 21 1 21 22
M  V30 22 1 22 23
M  V30 23 1 20 2
M  V30 24 1 23 21
M  V30 25 1 19 5
M  V30 26 1 18 8
M  V30 27 1 16 13
M  V30 28 1 3 24
M  V30 29 1 6 25
M  V30 30 1 6 26
M  V30 31 1 9 27
M  V30 32 1 10 28
M  V30 33 1 12 29
M  V30 34 1 13 30
M  V30 35 1 14 31
M  V30 36 1 14 32
M  V30 37 1 15 33
M  V30 38 1 16 34
M  V30 39 1 16 35
M  V30 40 1 17 36
M  V30 41 1 20 37
M  V30 42 1 21 38
M  V30 43 1 22 39
M  V30 44 1 22 40
M  V30 45 1 23 41
M  V30 46 1 23 42
M  V30 END BOND
M  V30 END CTAB
M  END
>  <Dataset>  (881) 
ChEMBL_Kinases

>  <Ligand_Instance>  (881) 
nan

>  <PDB_ID>  (881) 
nan

>  <Standardized_SMILES>  (881) 
O=C1NN=C2COc3ccc(NC4CNC4)cc3N2C1C1CC1

>  <Name>  (881) 
nan

>  <Pocket>  (881) 
nan

>  <ATP_Site>  (881) 
nan

>  <Peripheral>  (881) 
nan

>  <Num_H_Atoms_ProtBoundConf>  (881) 
nan

>  <Num_Resolved_Atoms>  (881) 
nan

>  <Num_Not_Resolved_Atoms>  (881) 
nan

$$$$
CHEMBL3356459
     RDKit          3D

  0  0  0  0  0  0  0  0  0  0999 V3000
M  V30 BEGIN CTAB
M  V30 COUNTS 46 49 0 0 0
M  V30 BEGIN ATOM
M  V30 1 C -1.043506 -5.836227 0.812686 0
M  V30 2 N -1.444355 -5.264875 -0.438787 0
M  V30 3 C -0.384481 -4.607403 -1.161755 0
M  V30 4 C -0.875722 -3.372540 -1.877874 0
M  V30 5 C -1.471504 -2.353248 -0.944465 0
M  V30 6 C -0.472288 -1.527589 -0.257227 0
M  V30 7 O -0.341628 -1.473582 1.006664 0
M  V30 8 N 0.473930 -0.685353 -0.920272 0
M  V30 9 C 1.308231 -0.014414 0.054714 0
M  V30 10 C 2.493076 -0.562099 0.508654 0
M  V30 11 C 3.243386 0.128304 1.439399 0
M  V30 12 C 2.818941 1.349634 1.912569 0
M  V30 13 C 1.645087 1.937356 1.490824 0
M  V30 14 C 0.921496 1.218138 0.560093 0
M  V30 15 N 1.160441 3.204439 1.951664 0
M  V30 16 C -0.058529 3.781185 1.492759 0
M  V30 17 C -0.442002 4.872949 2.412649 0
M  V30 18 O -1.650093 5.224556 2.275510 0
M  V30 19 N 0.425090 5.484580 3.360331 0
M  V30 20 N 1.681810 4.914023 3.582200 0
M  V30 21 C 1.989256 3.855627 2.910201 0
M  V30 22 C 3.367782 3.346977 3.246276 0
M  V30 23 O 3.580005 2.027987 2.843029 0
M  V30 24 C -2.250394 -3.101010 0.121253 0
M  V30 25 C -2.646653 -4.479635 -0.353571 0
M  V30 26 H -1.873780 -5.826409 1.561840 0
M  V30 27 H -0.793530 -6.906742 0.607104 0
M  V30 28 H -0.144991 -5.369206 1.263197 0
M  V30 29 H -0.051884 -5.310275 -1.968241 0
M  V30 30 H 0.482407 -4.418983 -0.520975 0
M  V30 31 H -0.045541 -2.892811 -2.401130 0
M  V30 32 H -1.656687 -3.711736 -2.597900 0
M  V30 33 H -2.223375 -1.788033 -1.527705 0
M  V30 34 H 0.441567 -0.664222 -1.983631 0
M  V30 35 H 2.806393 -1.524558 0.121600 0
M  V30 36 H 4.172527 -0.297124 1.797914 0
M  V30 37 H -0.006846 1.607374 0.179398 0
M  V30 38 H -0.879954 3.077538 1.285742 0
M  V30 39 H 0.139564 4.282167 0.502388 0
M  V30 40 H 0.026623 6.340509 3.823504 0
M  V30 41 H 4.124945 4.033021 2.765410 0
M  V30 42 H 3.575807 3.406499 4.335725 0
M  V30 43 H -3.127783 -2.545513 0.491901 0
M  V30 44 H -1.582795 -3.254849 1.019363 0
M  V30 45 H -3.314965 -4.917349 0.405866 0
M  V30 46 H -3.206785 -4.433551 -1.300994 0
M  V30 END ATOM
M  V30 BEGIN BOND
M  V30 1 1 1 2
M  V30 2 1 2 3
M  V30 3 1 3 4
M  V30 4 1 4 5
M  V30 5 1 5 6
M  V30 6 2 6 7
M  V30 7 1 6 8
M  V30 8 1 8 9
M  V30 9 2 9 10
M  V30 10 1 10 11
M  V30 11 2 11 12
M  V30 12 1 12 13
M  V30 13 2 13 14
M  V30 14 1 13 15
M  V30 15 1 15 16
M  V30 16 1 16 17
M  V30 17 2 17 18
M  V30 18 1 17 19
M  V30 19 1 19 20
M  V30 20 2 20 21
M  V30 21 1 21 22
M  V30 22 1 22 23
M  V30 23 1 5 24
M  V30 24 1 24 25
M  V30 25 1 25 2
M  V30 26 1 14 9
M  V30 27 1 21 15
M  V30 28 1 23 12
M  V30 29 1 1 26
M  V30 30 1 1 27
M  V30 31 1 1 28
M  V30 32 1 3 29
M  V30 33 1 3 30
M  V30 34 1 4 31
M  V30 35 1 4 32
M  V30 36 1 5 33
M  V30 37 1 8 34
M  V30 38 1 10 35
M  V30 39 1 11 36
M  V30 40 1 14 37
M  V30 41 1 16 38
M  V30 42 1 16 39
M  V30 43 1 19 40
M  V30 44 1 22 41
M  V30 45 1 22 42
M  V30 46 1 24 43
M  V30 47 1 24 44
M  V30 48 1 25 45
M  V30 49 1 25 46
M  V30 END BOND
M  V30 END CTAB
M  END
>  <Dataset>  (882) 
ChEMBL_Kinases

>  <Ligand_Instance>  (882) 
nan

>  <PDB_ID>  (882) 
nan

>  <Standardized_SMILES>  (882) 
CN1CCC(C(=O)Nc2ccc3c(c2)N2CC(=O)NN=C2CO3)CC1

>  <Name>  (882) 
nan

>  <Pocket>  (882) 
nan

>  <ATP_Site>  (882) 
nan

>  <Peripheral>  (882) 
nan

>  <Num_H_Atoms_ProtBoundConf>  (882) 
nan

>  <Num_Resolved_Atoms>  (882) 
nan

>  <Num_Not_Resolved_Atoms>  (882) 
nan

$$$$
CHEMBL3356458
     RDKit          3D

  0  0  0  0  0  0  0  0  0  0999 V3000
M  V30 BEGIN CTAB
M  V30 COUNTS 43 46 0 0 0
M  V30 BEGIN ATOM
M  V30 1 O -2.528441 -3.895125 -2.305670 0
M  V30 2 C -1.275911 -3.774935 -2.365979 0
M  V30 3 C -0.686426 -2.837875 -1.344076 0
M  V30 4 N 0.606165 -2.409313 -1.824841 0
M  V30 5 C 1.340054 -3.150551 -2.814368 0
M  V30 6 N 0.818927 -4.105795 -3.508156 0
M  V30 7 N -0.515859 -4.484750 -3.336265 0
M  V30 8 C 2.766611 -2.842703 -3.089662 0
M  V30 9 O 3.134752 -1.530397 -2.735842 0
M  V30 10 C 2.472216 -0.782246 -1.785047 0
M  V30 11 C 3.070808 0.366283 -1.316257 0
M  V30 12 C 2.416734 1.123637 -0.363958 0
M  V30 13 C 1.180817 0.726186 0.104713 0
M  V30 14 N 0.482716 1.505588 1.100042 0
M  V30 15 C 0.821236 1.086248 2.421139 0
M  V30 16 O 1.647355 0.138382 2.356197 0
M  V30 17 C 0.160658 1.819223 3.560182 0
M  V30 18 C 0.616440 1.265064 4.881088 0
M  V30 19 C -0.355910 0.391660 5.583864 0
M  V30 20 N -1.224125 -0.238984 4.619827 0
M  V30 21 C -2.071381 0.731664 3.978740 0
M  V30 22 C -1.324495 1.894640 3.403935 0
M  V30 23 C 0.627226 -0.434025 -0.400175 0
M  V30 24 C 1.239529 -1.225818 -1.351921 0
M  V30 25 H -0.591256 -3.457289 -0.425629 0
M  V30 26 H -1.397262 -1.981121 -1.192655 0
M  V30 27 H -1.004964 -5.248770 -3.862515 0
M  V30 28 H 3.014393 -3.072109 -4.127682 0
M  V30 29 H 3.347477 -3.536983 -2.427628 0
M  V30 30 H 4.041573 0.681045 -1.682496 0
M  V30 31 H 2.897840 2.013885 -0.011091 0
M  V30 32 H -0.183196 2.276681 0.845726 0
M  V30 33 H 0.544470 2.861474 3.502174 0
M  V30 34 H 1.560690 0.682653 4.701136 0
M  V30 35 H 0.927479 2.072052 5.606478 0
M  V30 36 H 0.185896 -0.422065 6.106803 0
M  V30 37 H -0.989020 0.915457 6.324825 0
M  V30 38 H -0.716663 -0.867744 3.964061 0
M  V30 39 H -2.790700 1.088131 4.756241 0
M  V30 40 H -2.677574 0.198204 3.218137 0
M  V30 41 H -1.553648 1.939236 2.318615 0
M  V30 42 H -1.736376 2.848681 3.822240 0
M  V30 43 H -0.323891 -0.706856 -0.015463 0
M  V30 END ATOM
M  V30 BEGIN BOND
M  V30 1 2 1 2
M  V30 2 1 2 3
M  V30 3 1 3 4
M  V30 4 1 4 5
M  V30 5 2 5 6
M  V30 6 1 6 7
M  V30 7 1 5 8
M  V30 8 1 8 9
M  V30 9 1 9 10
M  V30 10 2 10 11
M  V30 11 1 11 12
M  V30 12 2 12 13
M  V30 13 1 13 14
M  V30 14 1 14 15
M  V30 15 2 15 16
M  V30 16 1 15 17
M  V30 17 1 17 18
M  V30 18 1 18 19
M  V30 19 1 19 20
M  V30 20 1 20 21
M  V30 21 1 21 22
M  V30 22 1 13 23
M  V30 23 2 23 24
M  V30 24 1 7 2
M  V30 25 1 24 10
M  V30 26 1 24 4
M  V30 27 1 22 17
M  V30 28 1 3 25
M  V30 29 1 3 26
M  V30 30 1 7 27
M  V30 31 1 8 28
M  V30 32 1 8 29
M  V30 33 1 11 30
M  V30 34 1 12 31
M  V30 35 1 14 32
M  V30 36 1 17 33
M  V30 37 1 18 34
M  V30 38 1 18 35
M  V30 39 1 19 36
M  V30 40 1 19 37
M  V30 41 1 20 38
M  V30 42 1 21 39
M  V30 43 1 21 40
M  V30 44 1 22 41
M  V30 45 1 22 42
M  V30 46 1 23 43
M  V30 END BOND
M  V30 END CTAB
M  END
>  <Dataset>  (883) 
ChEMBL_Kinases

>  <Ligand_Instance>  (883) 
nan

>  <PDB_ID>  (883) 
nan

>  <Standardized_SMILES>  (883) 
O=C1CN2C(=NN1)COc1ccc(NC(=O)C3CCNCC3)cc12

>  <Name>  (883) 
nan

>  <Pocket>  (883) 
nan

>  <ATP_Site>  (883) 
nan

>  <Peripheral>  (883) 
nan

>  <Num_H_Atoms_ProtBoundConf>  (883) 
nan

>  <Num_Resolved_Atoms>  (883) 
nan

>  <Num_Not_Resolved_Atoms>  (883) 
nan

$$$$
CHEMBL3356123
     RDKit          3D

  0  0  0  0  0  0  0  0  0  0999 V3000
M  V30 BEGIN CTAB
M  V30 COUNTS 65 69 0 0 0
M  V30 BEGIN ATOM
M  V30 1 O 3.419052 3.336337 1.666543 0
M  V30 2 C 2.279312 2.810885 1.574789 0
M  V30 3 N 2.020118 1.430371 1.861595 0
M  V30 4 C 3.153015 0.638938 2.272418 0
M  V30 5 C 3.479435 0.541249 3.614102 0
M  V30 6 C 4.565878 -0.219566 3.998092 0
M  V30 7 C 5.351432 -0.899135 3.062498 0
M  V30 8 O 6.445789 -1.671001 3.398047 0
M  V30 9 C 5.002393 -0.785124 1.716069 0
M  V30 10 Cl 5.956755 -1.618791 0.510161 0
M  V30 11 C 3.919442 -0.027169 1.330008 0
M  V30 12 C 1.100512 3.595930 1.155517 0 CFG=2
M  V30 13 C 0.016301 3.607475 2.209519 0
M  V30 14 C -1.235603 3.155406 1.472461 0
M  V30 15 N -0.787561 2.446168 0.322059 0
M  V30 16 C -1.685572 2.357907 -0.773874 0
M  V30 17 C -2.837277 1.480725 -0.488282 0
M  V30 18 O -3.555418 1.524981 -1.538913 0
M  V30 19 N -3.575815 0.607750 0.341266 0
M  V30 20 C -4.830613 0.076494 -0.133925 0
M  V30 21 C -4.744682 -1.444245 -0.196928 0
M  V30 22 N -3.513724 -1.919534 0.371676 0
M  V30 23 C -2.548695 -2.713260 -0.290756 0
M  V30 24 C -2.735328 -3.192105 -1.559666 0
M  V30 25 C -1.805946 -3.959549 -2.228628 0
M  V30 26 C -0.596773 -4.288078 -1.613794 0
M  V30 27 C 0.376399 -5.097644 -2.335375 0
M  V30 28 C 1.324545 -6.015997 -1.937199 0
M  V30 29 C 1.966074 -6.469543 -3.081517 0
M  V30 30 O 1.438919 -5.862029 -4.119774 0
M  V30 31 C 0.501732 -5.048464 -3.719938 0
M  V30 32 C -0.409931 -3.806310 -0.337952 0
M  V30 33 C -1.356510 -3.041244 0.306921 0
M  V30 34 C -3.450576 -1.439494 1.717083 0
M  V30 35 C -3.289249 0.080466 1.678799 0
M  V30 36 C 0.445179 3.075951 -0.108147 0
M  V30 37 H 1.074360 0.992561 1.786639 0
M  V30 38 H 2.911762 1.042598 4.392028 0
M  V30 39 H 4.908823 -0.363085 5.024332 0
M  V30 40 H 7.412591 -1.375900 3.196787 0
M  V30 41 H 3.607211 0.093321 0.297727 0
M  V30 42 H 1.404506 4.642962 0.955358 0
M  V30 43 H -0.185649 4.629179 2.584732 0
M  V30 44 H 0.242721 2.960944 3.081588 0
M  V30 45 H -1.802162 4.054896 1.086337 0
M  V30 46 H -1.954535 2.643973 2.124943 0
M  V30 47 H -1.137310 1.967608 -1.678820 0
M  V30 48 H -2.003541 3.382423 -1.065654 0
M  V30 49 H -5.605373 0.341548 0.640682 0
M  V30 50 H -5.070778 0.497470 -1.103119 0
M  V30 51 H -4.901388 -1.744450 -1.229387 0
M  V30 52 H -5.581855 -1.902570 0.395622 0
M  V30 53 H -3.620322 -3.007388 -2.131536 0
M  V30 54 H -1.956828 -4.338618 -3.235334 0
M  V30 55 H 1.468525 -6.271336 -0.898675 0
M  V30 56 H 2.770128 -7.207557 -3.087114 0
M  V30 57 H -0.019140 -4.477861 -4.497196 0
M  V30 58 H 0.554170 -4.082956 0.118145 0
M  V30 59 H -1.069481 -2.743011 1.284960 0
M  V30 60 H -4.382635 -1.724538 2.255067 0
M  V30 61 H -2.582387 -1.868376 2.279069 0
M  V30 62 H -4.032222 0.526277 2.360893 0
M  V30 63 H -2.248318 0.321002 1.994371 0
M  V30 64 H 0.261736 3.869343 -0.855025 0
M  V30 65 H 1.053319 2.284989 -0.587585 0
M  V30 END ATOM
M  V30 BEGIN BOND
M  V30 1 2 1 2
M  V30 2 1 2 3
M  V30 3 1 3 4
M  V30 4 2 4 5
M  V30 5 1 5 6
M  V30 6 2 6 7
M  V30 7 1 7 8
M  V30 8 1 7 9
M  V30 9 1 9 10
M  V30 10 2 9 11
M  V30 11 1 2 12
M  V30 12 1 12 13
M  V30 13 1 13 14
M  V30 14 1 14 15
M  V30 15 1 15 16
M  V30 16 1 16 17
M  V30 17 2 17 18
M  V30 18 1 17 19
M  V30 19 1 19 20
M  V30 20 1 20 21
M  V30 21 1 21 22
M  V30 22 1 22 23
M  V30 23 2 23 24
M  V30 24 1 24 25
M  V30 25 2 25 26
M  V30 26 1 26 27
M  V30 27 1 27 28
M  V30 28 2 28 29
M  V30 29 1 29 30
M  V30 30 1 30 31
M  V30 31 1 26 32
M  V30 32 2 32 33
M  V30 33 1 22 34
M  V30 34 1 34 35
M  V30 35 1 15 36
M  V30 36 1 11 4
M  V30 37 1 36 12
M  V30 38 1 35 19
M  V30 39 1 33 23
M  V30 40 2 31 27
M  V30 41 1 3 37
M  V30 42 1 5 38
M  V30 43 1 6 39
M  V30 44 1 8 40
M  V30 45 1 11 41
M  V30 46 1 12 42 CFG=3
M  V30 47 1 13 43
M  V30 48 1 13 44
M  V30 49 1 14 45
M  V30 50 1 14 46
M  V30 51 1 16 47
M  V30 52 1 16 48
M  V30 53 1 20 49
M  V30 54 1 20 50
M  V30 55 1 21 51
M  V30 56 1 21 52
M  V30 57 1 24 53
M  V30 58 1 25 54
M  V30 59 1 28 55
M  V30 60 1 29 56
M  V30 61 1 31 57
M  V30 62 1 32 58
M  V30 63 1 33 59
M  V30 64 1 34 60
M  V30 65 1 34 61
M  V30 66 1 35 62
M  V30 67 1 35 63
M  V30 68 1 36 64
M  V30 69 1 36 65
M  V30 END BOND
M  V30 END CTAB
M  END
>  <Dataset>  (884) 
ChEMBL_Kinases

>  <Ligand_Instance>  (884) 
nan

>  <PDB_ID>  (884) 
nan

>  <Standardized_SMILES>  (884) 
O=C(Nc1ccc(O)c(Cl)c1)[C@@H]1CCN(CC(=O)N2CCN(c3ccc(-c4ccoc4)cc3)CC2)C1

>  <Name>  (884) 
nan

>  <Pocket>  (884) 
nan

>  <ATP_Site>  (884) 
nan

>  <Peripheral>  (884) 
nan

>  <Num_H_Atoms_ProtBoundConf>  (884) 
nan

>  <Num_Resolved_Atoms>  (884) 
nan

>  <Num_Not_Resolved_Atoms>  (884) 
nan

$$$$
CHEMBL3356124
     RDKit          3D

  0  0  0  0  0  0  0  0  0  0999 V3000
M  V30 BEGIN CTAB
M  V30 COUNTS 60 64 0 0 0
M  V30 BEGIN ATOM
M  V30 1 O 3.020232 1.661970 3.864420 0
M  V30 2 C 2.440485 1.253543 2.824392 0
M  V30 3 N 3.136466 0.229724 2.090555 0
M  V30 4 C 4.398638 -0.298068 2.500067 0
M  V30 5 C 4.501093 -1.388234 3.331984 0
M  V30 6 C 5.779164 -1.836822 3.682091 0
M  V30 7 C 6.935354 -1.219779 3.218982 0
M  V30 8 O 8.190319 -1.708440 3.599577 0
M  V30 9 C 6.790871 -0.122295 2.381321 0
M  V30 10 Cl 8.292308 0.603075 1.838109 0
M  V30 11 C 5.537107 0.331480 2.027323 0
M  V30 12 C 1.139943 1.678927 2.247333 0 CFG=2
M  V30 13 C 0.530558 2.763828 3.109512 0
M  V30 14 C -0.920031 2.663248 2.646058 0
M  V30 15 N -1.149483 1.274100 2.414238 0
M  V30 16 C -2.161322 0.983631 1.464763 0
M  V30 17 C -1.884008 1.335390 0.074125 0
M  V30 18 O -0.883850 1.874079 -0.512854 0
M  V30 19 N -2.990841 0.988404 -0.786192 0
M  V30 20 C -4.250414 0.373858 -0.434103 0
M  V30 21 C -4.640110 -0.739881 -1.372001 0
M  V30 22 N -3.549895 -1.069566 -2.267647 0
M  V30 23 C -3.127265 -2.464469 -2.293516 0
M  V30 24 N -3.357937 -3.519525 -1.815955 0
M  V30 25 C -2.734101 -4.647895 -2.092717 0
M  V30 26 C -2.986583 -5.889627 -1.547659 0
M  V30 27 C -2.247716 -6.979835 -1.938098 0
M  V30 28 C -1.229672 -6.945020 -2.868014 0
M  V30 29 C -0.944248 -5.723867 -3.437641 0
M  V30 30 C -1.724501 -4.629286 -3.010903 0
M  V30 31 S -1.740684 -2.842110 -3.451678 0
M  V30 32 C -2.971608 0.001432 -3.058474 0
M  V30 33 C -2.980163 1.228246 -2.212610 0
M  V30 34 C 0.100307 0.613994 2.270379 0
M  V30 35 H 2.790803 -0.222075 1.196313 0
M  V30 36 H 3.599818 -1.862875 3.688127 0
M  V30 37 H 5.841748 -2.680074 4.325458 0
M  V30 38 H 8.942639 -1.003800 3.610119 0
M  V30 39 H 5.553344 1.181676 1.379201 0
M  V30 40 H 1.234108 2.052899 1.218483 0
M  V30 41 H 0.509870 2.414649 4.171534 0
M  V30 42 H 0.973784 3.748295 2.962042 0
M  V30 43 H -1.626898 3.176422 3.297695 0
M  V30 44 H -0.946344 3.208743 1.661680 0
M  V30 45 H -3.102781 1.478181 1.844960 0
M  V30 46 H -2.402010 -0.114385 1.568164 0
M  V30 47 H -4.202371 -0.059662 0.590114 0
M  V30 48 H -5.040381 1.150953 -0.405122 0
M  V30 49 H -5.442745 -0.326067 -2.052262 0
M  V30 50 H -5.085653 -1.616840 -0.894522 0
M  V30 51 H -3.747665 -6.118010 -0.801105 0
M  V30 52 H -2.426439 -7.985055 -1.520113 0
M  V30 53 H -0.601648 -7.739258 -3.233460 0
M  V30 54 H -0.226528 -5.424353 -4.163176 0
M  V30 55 H -3.624784 0.089865 -3.950757 0
M  V30 56 H -1.937110 -0.242145 -3.339338 0
M  V30 57 H -3.806173 1.941033 -2.479703 0
M  V30 58 H -2.052263 1.806058 -2.428929 0
M  V30 59 H 0.167638 -0.017752 1.351332 0
M  V30 60 H 0.296303 -0.015597 3.182970 0
M  V30 END ATOM
M  V30 BEGIN BOND
M  V30 1 2 1 2
M  V30 2 1 2 3
M  V30 3 1 3 4
M  V30 4 2 4 5
M  V30 5 1 5 6
M  V30 6 2 6 7
M  V30 7 1 7 8
M  V30 8 1 7 9
M  V30 9 1 9 10
M  V30 10 2 9 11
M  V30 11 1 2 12
M  V30 12 1 12 13
M  V30 13 1 13 14
M  V30 14 1 14 15
M  V30 15 1 15 16
M  V30 16 1 16 17
M  V30 17 2 17 18
M  V30 18 1 17 19
M  V30 19 1 19 20
M  V30 20 1 20 21
M  V30 21 1 21 22
M  V30 22 1 22 23
M  V30 23 2 23 24
M  V30 24 1 24 25
M  V30 25 2 25 26
M  V30 26 1 26 27
M  V30 27 2 27 28
M  V30 28 1 28 29
M  V30 29 2 29 30
M  V30 30 1 30 31
M  V30 31 1 22 32
M  V30 32 1 32 33
M  V30 33 1 15 34
M  V30 34 1 11 4
M  V30 35 1 34 12
M  V30 36 1 33 19
M  V30 37 1 31 23
M  V30 38 1 30 25
M  V30 39 1 3 35
M  V30 40 1 5 36
M  V30 41 1 6 37
M  V30 42 1 8 38
M  V30 43 1 11 39
M  V30 44 1 12 40 CFG=3
M  V30 45 1 13 41
M  V30 46 1 13 42
M  V30 47 1 14 43
M  V30 48 1 14 44
M  V30 49 1 16 45
M  V30 50 1 16 46
M  V30 51 1 20 47
M  V30 52 1 20 48
M  V30 53 1 21 49
M  V30 54 1 21 50
M  V30 55 1 26 51
M  V30 56 1 27 52
M  V30 57 1 28 53
M  V30 58 1 29 54
M  V30 59 1 32 55
M  V30 60 1 32 56
M  V30 61 1 33 57
M  V30 62 1 33 58
M  V30 63 1 34 59
M  V30 64 1 34 60
M  V30 END BOND
M  V30 END CTAB
M  END
>  <Dataset>  (885) 
ChEMBL_Kinases

>  <Ligand_Instance>  (885) 
nan

>  <PDB_ID>  (885) 
nan

>  <Standardized_SMILES>  (885) 
O=C(Nc1ccc(O)c(Cl)c1)[C@@H]1CCN(CC(=O)N2CCN(c3nc4ccccc4s3)CC2)C1

>  <Name>  (885) 
nan

>  <Pocket>  (885) 
nan

>  <ATP_Site>  (885) 
nan

>  <Peripheral>  (885) 
nan

>  <Num_H_Atoms_ProtBoundConf>  (885) 
nan

>  <Num_Resolved_Atoms>  (885) 
nan

>  <Num_Not_Resolved_Atoms>  (885) 
nan

$$$$
CHEMBL3356127
     RDKit          3D

  0  0  0  0  0  0  0  0  0  0999 V3000
M  V30 BEGIN CTAB
M  V30 COUNTS 63 66 0 0 0
M  V30 BEGIN ATOM
M  V30 1 C 7.929038 1.820097 5.281852 0
M  V30 2 C 6.573092 1.597504 5.901386 0
M  V30 3 O 6.321077 1.763099 7.130540 0
M  V30 4 C 5.475814 1.164526 5.045154 0
M  V30 5 C 4.236883 0.943721 5.589862 0
M  V30 6 C 3.194545 0.532508 4.772265 0
M  V30 7 C 3.326188 0.325881 3.413332 0
M  V30 8 N 2.229784 -0.103805 2.593970 0
M  V30 9 C 2.560038 -0.170522 1.191540 0
M  V30 10 C 1.473476 -0.592853 0.278028 0
M  V30 11 N 0.241923 -0.749527 1.011879 0
M  V30 12 C -0.964795 -0.477317 0.266993 0
M  V30 13 O -0.573869 -0.144336 -0.902119 0
M  V30 14 C -2.341083 -0.585741 0.819059 0
M  V30 15 N -3.269064 -0.237881 -0.195443 0
M  V30 16 C -3.305261 1.119707 -0.611918 0
M  V30 17 C -4.462894 1.157961 -1.585514 0
M  V30 18 C -5.304565 -0.069826 -1.236440 0 CFG=1
M  V30 19 C -5.228084 -1.102995 -2.298746 0
M  V30 20 O -6.317202 -1.470794 -2.821155 0
M  V30 21 N -4.061970 -1.699119 -2.769018 0
M  V30 22 C -3.852990 -2.677400 -3.757745 0
M  V30 23 C -4.805069 -3.314503 -4.511820 0
M  V30 24 C -4.565592 -4.267415 -5.477766 0
M  V30 25 C -3.259988 -4.621544 -5.718046 0
M  V30 26 O -2.927837 -5.569132 -6.669175 0
M  V30 27 C -2.267391 -4.023389 -5.000305 0
M  V30 28 Br -0.459264 -4.504646 -5.323600 0
M  V30 29 C -2.570379 -3.078569 -4.049083 0
M  V30 30 C -4.623386 -0.612534 -0.003523 0
M  V30 31 C 0.020869 -1.140444 2.387944 0
M  V30 32 C 0.994169 -0.400120 3.278172 0
M  V30 33 C 4.604521 0.571425 2.950058 0
M  V30 34 C 5.676094 0.976464 3.691267 0
M  V30 35 H 7.819900 2.522210 4.434933 0
M  V30 36 H 8.263249 0.825966 4.866141 0
M  V30 37 H 8.648937 2.181979 6.033836 0
M  V30 38 H 4.085454 1.091560 6.644236 0
M  V30 39 H 2.250207 0.378433 5.262396 0
M  V30 40 H 2.901698 0.861749 0.876532 0
M  V30 41 H 3.418816 -0.866662 1.043002 0
M  V30 42 H 1.718346 -1.520975 -0.301555 0
M  V30 43 H 1.305026 0.183723 -0.530654 0
M  V30 44 H -2.421583 0.059352 1.736449 0
M  V30 45 H -2.564751 -1.633557 1.124304 0
M  V30 46 H -2.344129 1.356762 -1.118542 0
M  V30 47 H -3.515135 1.841438 0.205224 0
M  V30 48 H -5.053813 2.094133 -1.492599 0
M  V30 49 H -4.096596 1.072446 -2.628898 0
M  V30 50 H -6.357294 0.222753 -1.033246 0
M  V30 51 H -3.214692 -1.322480 -2.272944 0
M  V30 52 H -5.843879 -3.071186 -4.360123 0
M  V30 53 H -5.359988 -4.727233 -6.032322 0
M  V30 54 H -2.001689 -6.001381 -6.667203 0
M  V30 55 H -1.727900 -2.639931 -3.511018 0
M  V30 56 H -5.081294 -0.238925 0.934190 0
M  V30 57 H -4.653835 -1.737983 -0.015741 0
M  V30 58 H 0.304302 -2.218444 2.467290 0
M  V30 59 H -1.011639 -1.050986 2.706555 0
M  V30 60 H 0.491274 0.494678 3.647816 0
M  V30 61 H 1.258637 -1.029102 4.173643 0
M  V30 62 H 4.787110 0.428890 1.877748 0
M  V30 63 H 6.642970 1.151725 3.278956 0
M  V30 END ATOM
M  V30 BEGIN BOND
M  V30 1 1 1 2
M  V30 2 2 2 3
M  V30 3 1 2 4
M  V30 4 2 4 5
M  V30 5 1 5 6
M  V30 6 2 6 7
M  V30 7 1 7 8
M  V30 8 1 8 9
M  V30 9 1 9 10
M  V30 10 1 10 11
M  V30 11 1 11 12
M  V30 12 2 12 13
M  V30 13 1 12 14
M  V30 14 1 14 15
M  V30 15 1 15 16
M  V30 16 1 16 17
M  V30 17 1 17 18
M  V30 18 1 18 19
M  V30 19 2 19 20
M  V30 20 1 19 21
M  V30 21 1 21 22
M  V30 22 2 22 23
M  V30 23 1 23 24
M  V30 24 2 24 25
M  V30 25 1 25 26
M  V30 26 1 25 27
M  V30 27 1 27 28
M  V30 28 2 27 29
M  V30 29 1 18 30
M  V30 30 1 11 31
M  V30 31 1 31 32
M  V30 32 1 7 33
M  V30 33 2 33 34
M  V30 34 1 34 4
M  V30 35 1 32 8
M  V30 36 1 30 15
M  V30 37 1 29 22
M  V30 38 1 1 35
M  V30 39 1 1 36
M  V30 40 1 1 37
M  V30 41 1 5 38
M  V30 42 1 6 39
M  V30 43 1 9 40
M  V30 44 1 9 41
M  V30 45 1 10 42
M  V30 46 1 10 43
M  V30 47 1 14 44
M  V30 48 1 14 45
M  V30 49 1 16 46
M  V30 50 1 16 47
M  V30 51 1 17 48
M  V30 52 1 17 49
M  V30 53 1 18 50 CFG=1
M  V30 54 1 21 51
M  V30 55 1 23 52
M  V30 56 1 24 53
M  V30 57 1 26 54
M  V30 58 1 29 55
M  V30 59 1 30 56
M  V30 60 1 30 57
M  V30 61 1 31 58
M  V30 62 1 31 59
M  V30 63 1 32 60
M  V30 64 1 32 61
M  V30 65 1 33 62
M  V30 66 1 34 63
M  V30 END BOND
M  V30 END CTAB
M  END
>  <Dataset>  (886) 
ChEMBL_Kinases

>  <Ligand_Instance>  (886) 
nan

>  <PDB_ID>  (886) 
nan

>  <Standardized_SMILES>  (886) 
CC(=O)c1ccc(N2CCN(C(=O)CN3CC[C@@H](C(=O)Nc4ccc(O)c(Br)c4)C3)CC2)cc1

>  <Name>  (886) 
nan

>  <Pocket>  (886) 
nan

>  <ATP_Site>  (886) 
nan

>  <Peripheral>  (886) 
nan

>  <Num_H_Atoms_ProtBoundConf>  (886) 
nan

>  <Num_Resolved_Atoms>  (886) 
nan

>  <Num_Not_Resolved_Atoms>  (886) 
nan

$$$$
CHEMBL3356128
     RDKit          3D

  0  0  0  0  0  0  0  0  0  0999 V3000
M  V30 BEGIN CTAB
M  V30 COUNTS 63 66 0 0 0
M  V30 BEGIN ATOM
M  V30 1 C 7.190818 2.751297 4.933139 0
M  V30 2 C 5.926550 2.392030 5.620841 0
M  V30 3 O 5.596397 2.740449 6.797546 0
M  V30 4 C 4.936310 1.565670 4.931871 0
M  V30 5 C 3.755327 1.217699 5.552197 0
M  V30 6 C 2.869965 0.437613 4.842761 0
M  V30 7 C 3.045148 -0.036654 3.561227 0
M  V30 8 N 2.070674 -0.843751 2.900849 0
M  V30 9 C 2.413319 -1.228873 1.545991 0
M  V30 10 C 1.348438 -2.031026 0.854091 0
M  V30 11 N 0.085121 -1.778812 1.517168 0
M  V30 12 C -1.009872 -1.175580 0.813645 0
M  V30 13 O -0.746822 -0.905094 -0.392890 0
M  V30 14 C -2.242784 -0.972035 1.595537 0
M  V30 15 N -3.324844 -0.377343 0.899456 0
M  V30 16 C -3.176815 0.978640 0.512374 0
M  V30 17 C -3.961094 1.178742 -0.767713 0
M  V30 18 C -4.447693 -0.176992 -1.186386 0 CFG=1
M  V30 19 C -3.945524 -0.546906 -2.532026 0
M  V30 20 O -3.230190 0.308555 -3.062267 0
M  V30 21 N -4.226102 -1.746792 -3.190688 0
M  V30 22 C -3.802958 -2.193520 -4.459580 0
M  V30 23 C -4.211480 -3.430683 -4.904757 0
M  V30 24 C -3.834372 -3.926168 -6.134167 0
M  V30 25 C -3.025135 -3.213835 -6.993630 0
M  V30 26 O -2.666362 -3.744470 -8.223027 0
M  V30 27 C -2.604676 -1.973853 -6.568330 0
M  V30 28 F -1.805798 -1.242345 -7.388383 0
M  V30 29 C -3.000245 -1.515848 -5.340885 0
M  V30 30 C -3.916389 -1.133913 -0.146766 0
M  V30 31 C 0.016149 -2.178825 2.925379 0
M  V30 32 C 0.875421 -1.169763 3.668296 0
M  V30 33 C 4.245620 0.347293 2.998760 0
M  V30 34 C 5.178421 1.126077 3.648814 0
M  V30 35 H 7.032307 3.552700 4.173073 0
M  V30 36 H 7.616251 1.881687 4.386523 0
M  V30 37 H 7.963223 3.109560 5.648666 0
M  V30 38 H 3.542065 1.550704 6.560017 0
M  V30 39 H 1.953138 0.193675 5.382169 0
M  V30 40 H 2.611968 -0.339593 0.905569 0
M  V30 41 H 3.371123 -1.816886 1.645946 0
M  V30 42 H 1.288694 -1.806059 -0.235666 0
M  V30 43 H 1.630889 -3.111789 1.006637 0
M  V30 44 H -2.568135 -1.992014 1.923039 0
M  V30 45 H -2.074937 -0.393241 2.532190 0
M  V30 46 H -2.154742 1.369565 0.461344 0
M  V30 47 H -3.702622 1.595770 1.299188 0
M  V30 48 H -3.365182 1.662946 -1.566038 0
M  V30 49 H -4.869133 1.819866 -0.614474 0
M  V30 50 H -5.561409 -0.257036 -1.158069 0
M  V30 51 H -4.844307 -2.367472 -2.613148 0
M  V30 52 H -4.851793 -4.031274 -4.262736 0
M  V30 53 H -4.205764 -4.908845 -6.396181 0
M  V30 54 H -1.831205 -4.282827 -8.374731 0
M  V30 55 H -2.631229 -0.541628 -5.081214 0
M  V30 56 H -3.216886 -1.832296 -0.634485 0
M  V30 57 H -4.736013 -1.749240 0.311023 0
M  V30 58 H 0.518038 -3.159603 3.030467 0
M  V30 59 H -1.012723 -2.193197 3.292157 0
M  V30 60 H 0.309848 -0.230880 3.823543 0
M  V30 61 H 1.181109 -1.546971 4.661195 0
M  V30 62 H 4.470227 0.012929 1.973972 0
M  V30 63 H 6.107212 1.377898 3.111872 0
M  V30 END ATOM
M  V30 BEGIN BOND
M  V30 1 1 1 2
M  V30 2 2 2 3
M  V30 3 1 2 4
M  V30 4 2 4 5
M  V30 5 1 5 6
M  V30 6 2 6 7
M  V30 7 1 7 8
M  V30 8 1 8 9
M  V30 9 1 9 10
M  V30 10 1 10 11
M  V30 11 1 11 12
M  V30 12 2 12 13
M  V30 13 1 12 14
M  V30 14 1 14 15
M  V30 15 1 15 16
M  V30 16 1 16 17
M  V30 17 1 17 18
M  V30 18 1 18 19
M  V30 19 2 19 20
M  V30 20 1 19 21
M  V30 21 1 21 22
M  V30 22 2 22 23
M  V30 23 1 23 24
M  V30 24 2 24 25
M  V30 25 1 25 26
M  V30 26 1 25 27
M  V30 27 1 27 28
M  V30 28 2 27 29
M  V30 29 1 18 30
M  V30 30 1 11 31
M  V30 31 1 31 32
M  V30 32 1 7 33
M  V30 33 2 33 34
M  V30 34 1 34 4
M  V30 35 1 32 8
M  V30 36 1 30 15
M  V30 37 1 29 22
M  V30 38 1 1 35
M  V30 39 1 1 36
M  V30 40 1 1 37
M  V30 41 1 5 38
M  V30 42 1 6 39
M  V30 43 1 9 40
M  V30 44 1 9 41
M  V30 45 1 10 42
M  V30 46 1 10 43
M  V30 47 1 14 44
M  V30 48 1 14 45
M  V30 49 1 16 46
M  V30 50 1 16 47
M  V30 51 1 17 48
M  V30 52 1 17 49
M  V30 53 1 18 50 CFG=3
M  V30 54 1 21 51
M  V30 55 1 23 52
M  V30 56 1 24 53
M  V30 57 1 26 54
M  V30 58 1 29 55
M  V30 59 1 30 56
M  V30 60 1 30 57
M  V30 61 1 31 58
M  V30 62 1 31 59
M  V30 63 1 32 60
M  V30 64 1 32 61
M  V30 65 1 33 62
M  V30 66 1 34 63
M  V30 END BOND
M  V30 END CTAB
M  END
>  <Dataset>  (887) 
ChEMBL_Kinases

>  <Ligand_Instance>  (887) 
nan

>  <PDB_ID>  (887) 
nan

>  <Standardized_SMILES>  (887) 
CC(=O)c1ccc(N2CCN(C(=O)CN3CC[C@@H](C(=O)Nc4ccc(O)c(F)c4)C3)CC2)cc1

>  <Name>  (887) 
nan

>  <Pocket>  (887) 
nan

>  <ATP_Site>  (887) 
nan

>  <Peripheral>  (887) 
nan

>  <Num_H_Atoms_ProtBoundConf>  (887) 
nan

>  <Num_Resolved_Atoms>  (887) 
nan

>  <Num_Not_Resolved_Atoms>  (887) 
nan

$$$$
CHEMBL3356129
     RDKit          3D

  0  0  0  0  0  0  0  0  0  0999 V3000
M  V30 BEGIN CTAB
M  V30 COUNTS 66 69 0 0 0
M  V30 BEGIN ATOM
M  V30 1 C 3.799806 -2.830010 3.713847 0
M  V30 2 C 3.413863 -1.432699 4.052543 0
M  V30 3 O 3.307663 -1.031595 5.240501 0
M  V30 4 C 3.153627 -0.512570 2.958775 0
M  V30 5 C 2.793222 0.783690 3.227425 0
M  V30 6 C 2.541041 1.675106 2.211563 0
M  V30 7 C 2.627233 1.349234 0.879377 0
M  V30 8 N 2.369578 2.244844 -0.167128 0
M  V30 9 C 2.470802 1.980815 -1.585650 0
M  V30 10 C 1.096576 2.245556 -2.202748 0
M  V30 11 N 0.113258 2.481003 -1.163365 0
M  V30 12 C -0.935212 1.532246 -0.977935 0
M  V30 13 O -0.772051 0.627504 -1.835735 0
M  V30 14 C -1.980869 1.672304 0.064013 0
M  V30 15 N -2.854385 0.549377 -0.048620 0
M  V30 16 C -3.649239 0.544414 -1.245935 0
M  V30 17 C -4.754442 -0.442061 -0.947412 0
M  V30 18 C -4.562867 -0.825554 0.525528 0 CFG=1
M  V30 19 C -3.568828 -1.946652 0.559625 0
M  V30 20 O -3.192749 -2.249141 -0.625058 0
M  V30 21 N -3.011724 -2.681617 1.630041 0
M  V30 22 C -2.113032 -3.631108 1.008554 0
M  V30 23 C -2.716114 -4.847123 0.693036 0
M  V30 24 C -1.956009 -5.839880 0.090711 0
M  V30 25 C -0.635903 -5.512700 -0.143039 0
M  V30 26 O 0.133852 -6.523001 -0.754794 0
M  V30 27 C -0.013075 -4.319572 0.158023 0
M  V30 28 C 1.422525 -4.086758 -0.145998 0
M  V30 29 C -0.786619 -3.344046 0.757180 0
M  V30 30 C -3.846580 0.442107 0.999844 0
M  V30 31 C 0.523030 3.743287 -0.550594 0
M  V30 32 C 1.942015 3.618501 -0.018229 0
M  V30 33 C 2.987193 0.055224 0.637167 0
M  V30 34 C 3.248848 -0.870114 1.642592 0
M  V30 35 H 4.761769 -2.847197 3.167224 0
M  V30 36 H 2.998505 -3.254676 3.071483 0
M  V30 37 H 3.935095 -3.442448 4.633706 0
M  V30 38 H 2.718086 1.068820 4.269138 0
M  V30 39 H 2.268443 2.658208 2.533206 0
M  V30 40 H 3.224621 2.694725 -2.031404 0
M  V30 41 H 2.857960 0.977032 -1.815278 0
M  V30 42 H 1.160116 3.096917 -2.920001 0
M  V30 43 H 0.843040 1.319414 -2.751497 0
M  V30 44 H -2.498425 2.650394 0.009072 0
M  V30 45 H -1.456478 1.570865 1.057722 0
M  V30 46 H -3.059762 0.240781 -2.145324 0
M  V30 47 H -4.123480 1.539429 -1.382260 0
M  V30 48 H -4.581854 -1.331723 -1.586015 0
M  V30 49 H -5.761054 -0.007035 -1.108790 0
M  V30 50 H -5.489797 -1.032753 1.048063 0
M  V30 51 H -3.403644 -2.333682 2.553235 0
M  V30 52 H -3.757050 -5.055890 0.897561 0
M  V30 53 H -2.352060 -6.805904 -0.182802 0
M  V30 54 H 0.087915 -6.617762 -1.778394 0
M  V30 55 H 1.631244 -2.993782 -0.138756 0
M  V30 56 H 1.688900 -4.423491 -1.169504 0
M  V30 57 H 2.050803 -4.609659 0.586212 0
M  V30 58 H -0.386381 -2.383555 1.027368 0
M  V30 59 H -4.562918 1.283382 0.913037 0
M  V30 60 H -3.402013 0.314750 1.998771 0
M  V30 61 H 0.448453 4.546403 -1.317981 0
M  V30 62 H -0.152202 4.025561 0.274958 0
M  V30 63 H 2.633153 4.273262 -0.579565 0
M  V30 64 H 2.001615 3.962309 1.036963 0
M  V30 65 H 3.102538 -0.372212 -0.339606 0
M  V30 66 H 3.537213 -1.903794 1.448589 0
M  V30 END ATOM
M  V30 BEGIN BOND
M  V30 1 1 1 2
M  V30 2 2 2 3
M  V30 3 1 2 4
M  V30 4 2 4 5
M  V30 5 1 5 6
M  V30 6 2 6 7
M  V30 7 1 7 8
M  V30 8 1 8 9
M  V30 9 1 9 10
M  V30 10 1 10 11
M  V30 11 1 11 12
M  V30 12 2 12 13
M  V30 13 1 12 14
M  V30 14 1 14 15
M  V30 15 1 15 16
M  V30 16 1 16 17
M  V30 17 1 17 18
M  V30 18 1 18 19
M  V30 19 2 19 20
M  V30 20 1 19 21
M  V30 21 1 21 22
M  V30 22 2 22 23
M  V30 23 1 23 24
M  V30 24 2 24 25
M  V30 25 1 25 26
M  V30 26 1 25 27
M  V30 27 1 27 28
M  V30 28 2 27 29
M  V30 29 1 18 30
M  V30 30 1 11 31
M  V30 31 1 31 32
M  V30 32 1 7 33
M  V30 33 2 33 34
M  V30 34 1 34 4
M  V30 35 1 32 8
M  V30 36 1 30 15
M  V30 37 1 29 22
M  V30 38 1 1 35
M  V30 39 1 1 36
M  V30 40 1 1 37
M  V30 41 1 5 38
M  V30 42 1 6 39
M  V30 43 1 9 40
M  V30 44 1 9 41
M  V30 45 1 10 42
M  V30 46 1 10 43
M  V30 47 1 14 44
M  V30 48 1 14 45
M  V30 49 1 16 46
M  V30 50 1 16 47
M  V30 51 1 17 48
M  V30 52 1 17 49
M  V30 53 1 18 50 CFG=1
M  V30 54 1 21 51
M  V30 55 1 23 52
M  V30 56 1 24 53
M  V30 57 1 26 54
M  V30 58 1 28 55
M  V30 59 1 28 56
M  V30 60 1 28 57
M  V30 61 1 29 58
M  V30 62 1 30 59
M  V30 63 1 30 60
M  V30 64 1 31 61
M  V30 65 1 31 62
M  V30 66 1 32 63
M  V30 67 1 32 64
M  V30 68 1 33 65
M  V30 69 1 34 66
M  V30 END BOND
M  V30 END CTAB
M  END
>  <Dataset>  (888) 
ChEMBL_Kinases

>  <Ligand_Instance>  (888) 
nan

>  <PDB_ID>  (888) 
nan

>  <Standardized_SMILES>  (888) 
CC(=O)c1ccc(N2CCN(C(=O)CN3CC[C@@H](C(=O)Nc4ccc(O)c(C)c4)C3)CC2)cc1

>  <Name>  (888) 
nan

>  <Pocket>  (888) 
nan

>  <ATP_Site>  (888) 
nan

>  <Peripheral>  (888) 
nan

>  <Num_H_Atoms_ProtBoundConf>  (888) 
nan

>  <Num_Resolved_Atoms>  (888) 
nan

>  <Num_Not_Resolved_Atoms>  (888) 
nan

$$$$
CHEMBL3356289
     RDKit          3D

  0  0  0  0  0  0  0  0  0  0999 V3000
M  V30 BEGIN CTAB
M  V30 COUNTS 48 51 0 0 0
M  V30 BEGIN ATOM
M  V30 1 C 4.370712 -3.278138 -1.169908 0
M  V30 2 C 4.495771 -1.944478 -1.119106 0
M  V30 3 C 4.012671 -1.889848 0.253628 0
M  V30 4 O 3.844801 -3.130493 0.358628 0
M  V30 5 N 3.945168 -0.596247 0.827403 0
M  V30 6 C 4.268865 0.722733 0.293623 0
M  V30 7 C 3.073005 1.644998 0.375190 0
M  V30 8 N 1.922211 0.986125 0.914323 0
M  V30 9 C 0.657072 0.827360 0.289539 0
M  V30 10 C -0.362616 0.114429 0.877041 0
M  V30 11 C -1.595094 -0.049804 0.284098 0
M  V30 12 C -1.893692 0.479491 -0.925623 0
M  V30 13 C -3.082098 0.413005 -1.759972 0
M  V30 14 C -3.751839 -0.643070 -2.164770 0
M  V30 15 C -3.369299 -1.988841 -1.812374 0
M  V30 16 O -2.425759 -2.404910 -1.136771 0
M  V30 17 N -4.309754 -2.870432 -2.400527 0
M  V30 18 C -5.265616 -2.080027 -3.110856 0
M  V30 19 C -6.387669 -2.460502 -3.856536 0
M  V30 20 C -7.190988 -1.494076 -4.474094 0
M  V30 21 C -6.835322 -0.164093 -4.318559 0
M  V30 22 C -5.728743 0.237176 -3.584295 0
M  V30 23 C -4.950625 -0.745238 -2.983051 0
M  V30 24 C -0.857002 1.209083 -1.530944 0
M  V30 25 C 0.399719 1.385720 -0.942408 0
M  V30 26 C 2.259179 0.491776 2.237497 0
M  V30 27 C 3.492909 -0.380836 2.186267 0
M  V30 28 H 4.238324 -4.350164 -1.121200 0
M  V30 29 H 4.397530 -4.307662 -1.551740 0
M  V30 30 H 4.861981 -1.905211 -2.135134 0
M  V30 31 H 4.637672 0.591530 -0.758572 0
M  V30 32 H 5.134047 1.091548 0.879586 0
M  V30 33 H 3.359009 2.455419 1.110691 0
M  V30 34 H 2.909468 2.203073 -0.565691 0
M  V30 35 H -0.273588 -0.360144 1.826409 0
M  V30 36 H -2.402551 -0.592580 0.756287 0
M  V30 37 H -3.475021 1.375281 -2.097249 0
M  V30 38 H -4.326400 -3.922486 -2.341402 0
M  V30 39 H -6.609756 -3.534856 -3.932555 0
M  V30 40 H -8.043903 -1.826584 -5.037474 0
M  V30 41 H -7.478818 0.561174 -4.809935 0
M  V30 42 H -5.462266 1.292652 -3.474179 0
M  V30 43 H -0.972459 1.689989 -2.515187 0
M  V30 44 H 1.140688 1.962549 -1.477348 0
M  V30 45 H 2.502405 1.396837 2.838907 0
M  V30 46 H 1.473076 -0.040039 2.755863 0
M  V30 47 H 3.277570 -1.393857 2.642877 0
M  V30 48 H 4.342075 0.050732 2.758562 0
M  V30 END ATOM
M  V30 BEGIN BOND
M  V30 1 2 1 2
M  V30 2 1 2 3
M  V30 3 2 3 4
M  V30 4 1 3 5
M  V30 5 1 5 6
M  V30 6 1 6 7
M  V30 7 1 7 8
M  V30 8 1 8 9
M  V30 9 2 9 10
M  V30 10 1 10 11
M  V30 11 2 11 12
M  V30 12 1 12 13
M  V30 13 2 13 14
M  V30 14 1 14 15
M  V30 15 2 15 16
M  V30 16 1 15 17
M  V30 17 1 17 18
M  V30 18 2 18 19
M  V30 19 1 19 20
M  V30 20 2 20 21
M  V30 21 1 21 22
M  V30 22 2 22 23
M  V30 23 1 12 24
M  V30 24 2 24 25
M  V30 25 1 8 26
M  V30 26 1 26 27
M  V30 27 1 27 5
M  V30 28 1 25 9
M  V30 29 1 23 14
M  V30 30 1 23 18
M  V30 31 1 1 28
M  V30 32 1 1 29
M  V30 33 1 2 30
M  V30 34 1 6 31
M  V30 35 1 6 32
M  V30 36 1 7 33
M  V30 37 1 7 34
M  V30 38 1 10 35
M  V30 39 1 11 36
M  V30 40 1 13 37
M  V30 41 1 17 38
M  V30 42 1 19 39
M  V30 43 1 20 40
M  V30 44 1 21 41
M  V30 45 1 22 42
M  V30 46 1 24 43
M  V30 47 1 25 44
M  V30 48 1 26 45
M  V30 49 1 26 46
M  V30 50 1 27 47
M  V30 51 1 27 48
M  V30 END BOND
M  V30 END CTAB
M  END
>  <Dataset>  (889) 
ChEMBL_Kinases

>  <Ligand_Instance>  (889) 
nan

>  <PDB_ID>  (889) 
nan

>  <Standardized_SMILES>  (889) 
C=CC(=O)N1CCN(c2ccc(/C=C3\C(=O)Nc4ccccc43)cc2)CC1

>  <Name>  (889) 
nan

>  <Pocket>  (889) 
nan

>  <ATP_Site>  (889) 
nan

>  <Peripheral>  (889) 
nan

>  <Num_H_Atoms_ProtBoundConf>  (889) 
nan

>  <Num_Resolved_Atoms>  (889) 
nan

>  <Num_Not_Resolved_Atoms>  (889) 
nan

$$$$
CHEMBL3356290
     RDKit          3D

  0  0  0  0  0  0  0  0  0  0999 V3000
M  V30 BEGIN CTAB
M  V30 COUNTS 50 53 0 0 0
M  V30 BEGIN ATOM
M  V30 1 O 1.940951 -1.325562 -1.330864 0
M  V30 2 C 2.427983 -0.476839 -2.101624 0
M  V30 3 N 3.165141 -0.819659 -3.263406 0
M  V30 4 C 3.545378 0.416751 -3.873245 0
M  V30 5 C 4.279348 0.570439 -5.032259 0
M  V30 6 C 4.537449 1.873885 -5.446281 0
M  V30 7 C 4.089360 2.980682 -4.745245 0
M  V30 8 C 3.348492 2.788345 -3.575416 0
M  V30 9 C 3.085581 1.497835 -3.153488 0
M  V30 10 C 2.365105 0.953352 -2.010805 0
M  V30 11 C 1.764284 1.595699 -1.029765 0
M  V30 12 C 1.070899 1.066531 0.125791 0
M  V30 13 C -0.217658 1.604977 0.278880 0
M  V30 14 C -1.023248 1.241089 1.337599 0
M  V30 15 C -0.620975 0.342739 2.293425 0
M  V30 16 N -1.381531 -0.100455 3.410645 0
M  V30 17 C -0.959715 -0.920678 4.498592 0
M  V30 18 C -1.758277 -2.212261 4.594499 0
M  V30 19 N -2.801837 -2.267788 3.573880 0
M  V30 20 C -3.114651 -3.221506 2.536150 0
M  V30 21 O -3.999297 -3.294064 1.653741 0
M  V30 22 C -2.089764 -4.321995 2.631702 0
M  V30 23 C -2.369643 -5.391990 1.595430 0
M  V30 24 Cl -1.184017 -6.712681 1.669644 0
M  V30 25 C -3.612864 -1.055609 3.762363 0
M  V30 26 C -2.791232 0.205254 3.655127 0
M  V30 27 C 0.650498 -0.194865 2.152065 0
M  V30 28 C 1.432337 0.188856 1.084327 0
M  V30 29 H 3.373785 -1.801044 -3.585850 0
M  V30 30 H 4.641320 -0.287825 -5.598765 0
M  V30 31 H 5.115330 2.044314 -6.357681 0
M  V30 32 H 4.288226 4.002572 -5.067137 0
M  V30 33 H 2.968893 3.633637 -2.982332 0
M  V30 34 H 1.804673 2.692523 -1.116205 0
M  V30 35 H -0.650009 2.327201 -0.415637 0
M  V30 36 H -2.008731 1.669752 1.432976 0
M  V30 37 H -1.114313 -0.322946 5.448260 0
M  V30 38 H 0.106761 -1.186316 4.528929 0
M  V30 39 H -2.289013 -2.261458 5.579559 0
M  V30 40 H -1.100278 -3.083129 4.569054 0
M  V30 41 H -1.081518 -3.860706 2.518972 0
M  V30 42 H -2.115282 -4.784653 3.622687 0
M  V30 43 H -2.392301 -4.897742 0.619181 0
M  V30 44 H -3.355358 -5.802214 1.830454 0
M  V30 45 H -4.116454 -1.184032 4.739074 0
M  V30 46 H -4.419615 -1.090292 3.000474 0
M  V30 47 H -2.889087 0.874556 4.537153 0
M  V30 48 H -3.182078 0.769524 2.788469 0
M  V30 49 H 1.103679 -0.901329 2.807285 0
M  V30 50 H 2.434795 -0.202316 0.978880 0
M  V30 END ATOM
M  V30 BEGIN BOND
M  V30 1 2 1 2
M  V30 2 1 2 3
M  V30 3 1 3 4
M  V30 4 2 4 5
M  V30 5 1 5 6
M  V30 6 2 6 7
M  V30 7 1 7 8
M  V30 8 2 8 9
M  V30 9 1 9 10
M  V30 10 2 10 11
M  V30 11 1 11 12
M  V30 12 2 12 13
M  V30 13 1 13 14
M  V30 14 2 14 15
M  V30 15 1 15 16
M  V30 16 1 16 17
M  V30 17 1 17 18
M  V30 18 1 18 19
M  V30 19 1 19 20
M  V30 20 2 20 21
M  V30 21 1 20 22
M  V30 22 1 22 23
M  V30 23 1 23 24
M  V30 24 1 19 25
M  V30 25 1 25 26
M  V30 26 1 15 27
M  V30 27 2 27 28
M  V30 28 1 10 2
M  V30 29 1 28 12
M  V30 30 1 9 4
M  V30 31 1 26 16
M  V30 32 1 3 29
M  V30 33 1 5 30
M  V30 34 1 6 31
M  V30 35 1 7 32
M  V30 36 1 8 33
M  V30 37 1 11 34
M  V30 38 1 13 35
M  V30 39 1 14 36
M  V30 40 1 17 37
M  V30 41 1 17 38
M  V30 42 1 18 39
M  V30 43 1 18 40
M  V30 44 1 22 41
M  V30 45 1 22 42
M  V30 46 1 23 43
M  V30 47 1 23 44
M  V30 48 1 25 45
M  V30 49 1 25 46
M  V30 50 1 26 47
M  V30 51 1 26 48
M  V30 52 1 27 49
M  V30 53 1 28 50
M  V30 END BOND
M  V30 END CTAB
M  END
>  <Dataset>  (890) 
ChEMBL_Kinases

>  <Ligand_Instance>  (890) 
nan

>  <PDB_ID>  (890) 
nan

>  <Standardized_SMILES>  (890) 
O=C1Nc2ccccc2/C1=C/c1ccc(N2CCN(C(=O)CCCl)CC2)cc1

>  <Name>  (890) 
nan

>  <Pocket>  (890) 
nan

>  <ATP_Site>  (890) 
nan

>  <Peripheral>  (890) 
nan

>  <Num_H_Atoms_ProtBoundConf>  (890) 
nan

>  <Num_Resolved_Atoms>  (890) 
nan

>  <Num_Not_Resolved_Atoms>  (890) 
nan

$$$$
CHEMBL3356431
     RDKit          3D

  0  0  0  0  0  0  0  0  0  0999 V3000
M  V30 BEGIN CTAB
M  V30 COUNTS 67 71 0 0 0
M  V30 BEGIN ATOM
M  V30 1 C 2.101022 2.309359 3.654252 0
M  V30 2 C 3.551630 2.510102 3.684180 0
M  V30 3 C 4.310804 2.946428 4.776411 0
M  V30 4 N 5.597931 2.994179 4.416924 0
M  V30 5 C 5.776600 2.612341 3.125389 0
M  V30 6 N 6.813491 2.472664 2.280413 0
M  V30 7 C 6.527149 2.043758 1.035672 0
M  V30 8 N 5.290023 1.750444 0.588380 0
M  V30 9 C 4.220472 1.885159 1.428869 0
M  V30 10 N 3.001577 1.555203 0.770247 0
M  V30 11 C 1.852809 2.336055 0.377013 0
M  V30 12 C 0.537908 1.652943 0.577964 0
M  V30 13 C 0.481219 0.195580 0.333940 0
M  V30 14 C 0.385367 -0.698807 1.508336 0
M  V30 15 C -0.753412 -0.530221 2.401117 0
M  V30 16 C -0.723823 -1.435225 3.473198 0
M  V30 17 N -1.796258 -1.216457 4.251714 0
M  V30 18 C -2.458482 -0.206052 3.667482 0
M  V30 19 N -1.836603 0.207312 2.558844 0
M  V30 20 C -0.539407 -0.223760 -0.688362 0
M  V30 21 O -0.303641 -0.995220 -1.670615 0
M  V30 22 N -1.917052 0.119192 -0.798771 0
M  V30 23 C -2.565051 -0.490429 -1.917460 0
M  V30 24 C -2.696055 -0.011461 -3.203885 0
M  V30 25 C -3.368383 -0.773238 -4.137437 0
M  V30 26 C -3.908888 -2.003490 -3.800252 0
M  V30 27 C -3.792146 -2.506470 -2.519797 0
M  V30 28 O -4.339524 -3.744110 -2.192880 0
M  V30 29 C -3.663011 -4.947878 -2.299059 0
M  V30 30 O -2.494988 -5.261244 -2.674711 0
M  V30 31 N -4.290652 -6.175831 -1.945036 0
M  V30 32 C -3.487840 -7.389117 -2.094421 0
M  V30 33 C -5.669615 -6.206447 -1.457968 0
M  V30 34 C -3.117017 -1.734810 -1.594197 0
M  V30 35 C 1.810259 -0.261900 -0.358657 0
M  V30 36 C 2.996080 0.119416 0.452727 0
M  V30 37 C 4.499389 2.322087 2.704500 0
M  V30 38 H 1.759409 2.180760 4.726842 0
M  V30 39 H 1.501227 3.132431 3.269121 0
M  V30 40 H 1.790806 1.367876 3.172863 0
M  V30 41 H 3.892723 3.198821 5.749204 0
M  V30 42 H 6.427810 3.284197 5.013674 0
M  V30 43 H 7.387748 1.943316 0.384272 0
M  V30 44 H 1.907896 3.312449 0.933372 0
M  V30 45 H 2.004472 2.631735 -0.706344 0
M  V30 46 H 0.136208 1.946198 1.574014 0
M  V30 47 H -0.213416 2.126565 -0.139748 0
M  V30 48 H 0.340604 -1.754892 1.088291 0
M  V30 49 H 1.368153 -0.688709 2.031821 0
M  V30 50 H -0.083961 -2.244449 3.834297 0
M  V30 51 H -2.174567 -1.628109 5.121075 0
M  V30 52 H -3.378398 0.282814 3.968806 0
M  V30 53 H -2.260872 0.784743 -0.043682 0
M  V30 54 H -2.236716 0.956328 -3.353554 0
M  V30 55 H -3.431791 -0.327222 -5.137165 0
M  V30 56 H -4.427132 -2.562423 -4.569636 0
M  V30 57 H -3.060454 -7.510689 -3.089872 0
M  V30 58 H -2.672371 -7.290136 -1.326259 0
M  V30 59 H -4.147302 -8.232257 -1.788077 0
M  V30 60 H -6.041964 -7.263627 -1.542627 0
M  V30 61 H -6.315309 -5.518881 -2.059224 0
M  V30 62 H -5.728849 -5.855477 -0.409892 0
M  V30 63 H -3.060451 -2.193059 -0.596073 0
M  V30 64 H 1.731398 -1.367543 -0.378305 0
M  V30 65 H 1.841127 0.065559 -1.395462 0
M  V30 66 H 3.884094 0.015386 -0.246680 0
M  V30 67 H 3.238757 -0.511974 1.305659 0
M  V30 END ATOM
M  V30 BEGIN BOND
M  V30 1 1 1 2
M  V30 2 2 2 3
M  V30 3 1 3 4
M  V30 4 1 4 5
M  V30 5 2 5 6
M  V30 6 1 6 7
M  V30 7 2 7 8
M  V30 8 1 8 9
M  V30 9 1 9 10
M  V30 10 1 10 11
M  V30 11 1 11 12
M  V30 12 1 12 13
M  V30 13 1 13 14
M  V30 14 1 14 15
M  V30 15 2 15 16
M  V30 16 1 16 17
M  V30 17 1 17 18
M  V30 18 2 18 19
M  V30 19 1 13 20
M  V30 20 2 20 21
M  V30 21 1 20 22
M  V30 22 1 22 23
M  V30 23 2 23 24
M  V30 24 1 24 25
M  V30 25 2 25 26
M  V30 26 1 26 27
M  V30 27 1 27 28
M  V30 28 1 28 29
M  V30 29 2 29 30
M  V30 30 1 29 31
M  V30 31 1 31 32
M  V30 32 1 31 33
M  V30 33 2 27 34
M  V30 34 1 13 35
M  V30 35 1 35 36
M  V30 36 2 9 37
M  V30 37 1 37 2
M  V30 38 1 37 5
M  V30 39 1 36 10
M  V30 40 1 19 15
M  V30 41 1 34 23
M  V30 42 1 1 38
M  V30 43 1 1 39
M  V30 44 1 1 40
M  V30 45 1 3 41
M  V30 46 1 4 42
M  V30 47 1 7 43
M  V30 48 1 11 44
M  V30 49 1 11 45
M  V30 50 1 12 46
M  V30 51 1 12 47
M  V30 52 1 14 48
M  V30 53 1 14 49
M  V30 54 1 16 50
M  V30 55 1 17 51
M  V30 56 1 18 52
M  V30 57 1 22 53
M  V30 58 1 24 54
M  V30 59 1 25 55
M  V30 60 1 26 56
M  V30 61 1 32 57
M  V30 62 1 32 58
M  V30 63 1 32 59
M  V30 64 1 33 60
M  V30 65 1 33 61
M  V30 66 1 33 62
M  V30 67 1 34 63
M  V30 68 1 35 64
M  V30 69 1 35 65
M  V30 70 1 36 66
M  V30 71 1 36 67
M  V30 END BOND
M  V30 END CTAB
M  END
>  <Dataset>  (891) 
ChEMBL_Kinases

>  <Ligand_Instance>  (891) 
nan

>  <PDB_ID>  (891) 
nan

>  <Standardized_SMILES>  (891) 
Cc1c[nH]c2ncnc(N3CCC(Cc4c[nH]cn4)(C(=O)Nc4cccc(OC(=O)N(C)C)c4)CC3)c12

>  <Name>  (891) 
nan

>  <Pocket>  (891) 
nan

>  <ATP_Site>  (891) 
nan

>  <Peripheral>  (891) 
nan

>  <Num_H_Atoms_ProtBoundConf>  (891) 
nan

>  <Num_Resolved_Atoms>  (891) 
nan

>  <Num_Not_Resolved_Atoms>  (891) 
nan

$$$$
CHEMBL3356454
     RDKit          3D

  0  0  0  0  0  0  0  0  0  0999 V3000
M  V30 BEGIN CTAB
M  V30 COUNTS 37 39 0 0 0
M  V30 BEGIN ATOM
M  V30 1 C 2.202664 -2.890322 3.933023 0
M  V30 2 C 2.524997 -3.536094 2.602587 0
M  V30 3 N 1.438217 -4.342131 2.151940 0
M  V30 4 C 3.112626 -2.582575 1.619996 0
M  V30 5 N 2.332848 -1.455500 1.255960 0
M  V30 6 C 1.184566 -1.266151 0.449794 0
M  V30 7 C 0.539753 -2.244744 -0.273693 0
M  V30 8 C -0.586650 -2.085718 -1.050455 0
M  V30 9 C -1.129247 -0.819424 -1.115312 0
M  V30 10 C -0.530203 0.205638 -0.413717 0
M  V30 11 C 0.596119 -0.022527 0.345350 0
M  V30 12 N -1.069275 1.529202 -0.461401 0
M  V30 13 C -0.451243 2.588231 0.262919 0
M  V30 14 C -1.155451 3.848432 -0.012066 0
M  V30 15 O -0.678458 4.880036 0.516698 0
M  V30 16 N -2.318972 3.992739 -0.818470 0
M  V30 17 N -2.825202 2.844345 -1.436399 0
M  V30 18 C -2.233786 1.710205 -1.260424 0
M  V30 19 C -2.932015 0.609131 -2.006218 0
M  V30 20 O -2.259776 -0.610672 -1.882123 0
M  V30 21 H 3.115827 -2.499536 4.408522 0
M  V30 22 H 1.729236 -3.680730 4.558812 0
M  V30 23 H 1.438143 -2.093272 3.843444 0
M  V30 24 H 3.357314 -4.265386 2.853876 0
M  V30 25 H 1.806236 -5.197512 1.682965 0
M  V30 26 H 0.791961 -4.649022 2.896713 0
M  V30 27 H 3.313918 -3.135233 0.639400 0
M  V30 28 H 4.132278 -2.275718 1.930558 0
M  V30 29 H 2.702697 -0.568168 1.694675 0
M  V30 30 H 0.927930 -3.250137 -0.271720 0
M  V30 31 H -1.041538 -2.895845 -1.591455 0
M  V30 32 H 1.025631 0.839082 0.881312 0
M  V30 33 H -0.244408 2.381065 1.323345 0
M  V30 34 H 0.573359 2.713612 -0.198346 0
M  V30 35 H -2.762870 4.935160 -0.930464 0
M  V30 36 H -3.967566 0.451740 -1.612386 0
M  V30 37 H -3.062013 0.881374 -3.074269 0
M  V30 END ATOM
M  V30 BEGIN BOND
M  V30 1 1 1 2
M  V30 2 1 2 3
M  V30 3 1 2 4
M  V30 4 1 4 5
M  V30 5 1 5 6
M  V30 6 2 6 7
M  V30 7 1 7 8
M  V30 8 2 8 9
M  V30 9 1 9 10
M  V30 10 2 10 11
M  V30 11 1 10 12
M  V30 12 1 12 13
M  V30 13 1 13 14
M  V30 14 2 14 15
M  V30 15 1 14 16
M  V30 16 1 16 17
M  V30 17 2 17 18
M  V30 18 1 18 19
M  V30 19 1 19 20
M  V30 20 1 11 6
M  V30 21 1 18 12
M  V30 22 1 20 9
M  V30 23 1 1 21
M  V30 24 1 1 22
M  V30 25 1 1 23
M  V30 26 1 2 24
M  V30 27 1 3 25
M  V30 28 1 3 26
M  V30 29 1 4 27
M  V30 30 1 4 28
M  V30 31 1 5 29
M  V30 32 1 7 30
M  V30 33 1 8 31
M  V30 34 1 11 32
M  V30 35 1 13 33
M  V30 36 1 13 34
M  V30 37 1 16 35
M  V30 38 1 19 36
M  V30 39 1 19 37
M  V30 END BOND
M  V30 END CTAB
M  END
>  <Dataset>  (892) 
ChEMBL_Kinases

>  <Ligand_Instance>  (892) 
nan

>  <PDB_ID>  (892) 
nan

>  <Standardized_SMILES>  (892) 
CC(N)CNc1ccc2c(c1)N1CC(=O)NN=C1CO2

>  <Name>  (892) 
nan

>  <Pocket>  (892) 
nan

>  <ATP_Site>  (892) 
nan

>  <Peripheral>  (892) 
nan

>  <Num_H_Atoms_ProtBoundConf>  (892) 
nan

>  <Num_Resolved_Atoms>  (892) 
nan

>  <Num_Not_Resolved_Atoms>  (892) 
nan

$$$$
CHEMBL3356435
     RDKit          3D

  0  0  0  0  0  0  0  0  0  0999 V3000
M  V30 BEGIN CTAB
M  V30 COUNTS 63 66 0 0 0
M  V30 BEGIN ATOM
M  V30 1 C 5.128762 -0.161098 4.525469 0
M  V30 2 C 3.977492 -0.409473 3.621981 0
M  V30 3 O 3.813893 -1.552288 3.121551 0
M  V30 4 O 3.020903 0.543223 3.260614 0
M  V30 5 C 1.947313 0.232765 2.391567 0 CFG=2
M  V30 6 C 2.020556 1.166125 1.191227 0 CFG=1
M  V30 7 O 2.272802 0.350420 0.060872 0
M  V30 8 C 3.377611 0.617594 -0.735234 0
M  V30 9 C 3.805500 -0.121989 -1.955719 0
M  V30 10 O 4.103559 1.604421 -0.380554 0
M  V30 11 C 0.615515 1.753085 0.964618 0 CFG=1
M  V30 12 O 0.550720 2.582518 -0.119697 0
M  V30 13 C -0.321279 0.584046 0.964486 0 CFG=2
M  V30 14 O -1.447903 0.736690 0.122684 0
M  V30 15 C -1.731627 -0.253387 -0.833991 0
M  V30 16 C -2.621856 -1.286939 -0.684361 0
M  V30 17 C -3.415101 -1.475156 0.501742 0
M  V30 18 C -4.075196 -2.675027 0.656855 0
M  V30 19 C -4.906353 -2.978673 1.714708 0
M  V30 20 C -5.125854 -2.056017 2.710300 0
M  V30 21 O -5.947966 -2.298714 3.798753 0
M  V30 22 C -4.499849 -0.848891 2.611340 0
M  V30 23 C -3.686412 -0.617170 1.528555 0
M  V30 24 O -2.775460 -2.154113 -1.655854 0
M  V30 25 C -2.140106 -2.125928 -2.799126 0
M  V30 26 C -2.417871 -3.123649 -3.728997 0
M  V30 27 C -1.764018 -3.120108 -4.943524 0
M  V30 28 O -2.025600 -4.096687 -5.872884 0
M  V30 29 C -0.853075 -2.110880 -5.178044 0
M  V30 30 C -0.592762 -1.138572 -4.252320 0
M  V30 31 O 0.329308 -0.126733 -4.503801 0
M  V30 32 C -1.230054 -1.113962 -3.027651 0
M  V30 33 C -1.028117 -0.171694 -2.032255 0
M  V30 34 O -0.188988 0.671212 -2.375244 0
M  V30 35 C -0.582610 0.246042 2.387008 0
M  V30 36 C 0.682864 0.455475 3.186769 0 CFG=1
M  V30 37 C 0.701265 -0.646296 4.256943 0
M  V30 38 H 5.223716 -1.059787 5.200699 0
M  V30 39 H 6.058678 -0.154771 3.925688 0
M  V30 40 H 5.007189 0.696889 5.184147 0
M  V30 41 H 2.042022 -0.833517 2.100850 0
M  V30 42 H 2.782443 1.949343 1.290582 0
M  V30 43 H 4.906657 -0.058780 -2.045596 0
M  V30 44 H 3.422109 -1.169053 -1.898639 0
M  V30 45 H 3.339488 0.375138 -2.840083 0
M  V30 46 H 0.427075 2.356463 1.905652 0
M  V30 47 H 0.645957 3.530660 0.165431 0
M  V30 48 H 0.234774 -0.308627 0.534932 0
M  V30 49 H -3.969077 -3.484957 -0.083961 0
M  V30 50 H -5.392759 -3.940053 1.775663 0
M  V30 51 H -6.889967 -2.625674 3.726829 0
M  V30 52 H -4.639902 -0.091877 3.366457 0
M  V30 53 H -3.234043 0.357087 1.479831 0
M  V30 54 H -3.147895 -3.884060 -3.470891 0
M  V30 55 H -1.503994 -4.941535 -5.933433 0
M  V30 56 H -0.341188 -2.113179 -6.136344 0
M  V30 57 H -0.019159 0.614131 -5.130779 0
M  V30 58 H -1.326486 0.969463 2.794596 0
M  V30 59 H -0.998715 -0.770118 2.542842 0
M  V30 60 H 0.727058 1.425614 3.687297 0
M  V30 61 H 0.488671 -1.585969 3.703195 0
M  V30 62 H -0.146596 -0.432565 4.936322 0
M  V30 63 H 1.678472 -0.633005 4.740225 0
M  V30 END ATOM
M  V30 BEGIN BOND
M  V30 1 1 1 2
M  V30 2 2 2 3
M  V30 3 1 2 4
M  V30 4 1 4 5
M  V30 5 1 5 6
M  V30 6 1 6 7
M  V30 7 1 7 8
M  V30 8 1 8 9
M  V30 9 2 8 10
M  V30 10 1 6 11
M  V30 11 1 11 12
M  V30 12 1 11 13
M  V30 13 1 13 14
M  V30 14 1 14 15
M  V30 15 2 15 16
M  V30 16 1 16 17
M  V30 17 2 17 18
M  V30 18 1 18 19
M  V30 19 2 19 20
M  V30 20 1 20 21
M  V30 21 1 20 22
M  V30 22 2 22 23
M  V30 23 1 16 24
M  V30 24 1 24 25
M  V30 25 2 25 26
M  V30 26 1 26 27
M  V30 27 1 27 28
M  V30 28 2 27 29
M  V30 29 1 29 30
M  V30 30 1 30 31
M  V30 31 2 30 32
M  V30 32 1 32 33
M  V30 33 2 33 34
M  V30 34 1 13 35
M  V30 35 1 35 36
M  V30 36 1 36 37
M  V30 37 1 36 5
M  V30 38 1 33 15
M  V30 39 1 23 17
M  V30 40 1 32 25
M  V30 41 1 1 38
M  V30 42 1 1 39
M  V30 43 1 1 40
M  V30 44 1 5 41 CFG=3
M  V30 45 1 6 42 CFG=1
M  V30 46 1 9 43
M  V30 47 1 9 44
M  V30 48 1 9 45
M  V30 49 1 11 46 CFG=1
M  V30 50 1 12 47
M  V30 51 1 13 48 CFG=3
M  V30 52 1 18 49
M  V30 53 1 19 50
M  V30 54 1 21 51
M  V30 55 1 22 52
M  V30 56 1 23 53
M  V30 57 1 26 54
M  V30 58 1 28 55
M  V30 59 1 29 56
M  V30 60 1 31 57
M  V30 61 1 35 58
M  V30 62 1 35 59
M  V30 63 1 36 60 CFG=1
M  V30 64 1 37 61
M  V30 65 1 37 62
M  V30 66 1 37 63
M  V30 END BOND
M  V30 END CTAB
M  END
>  <Dataset>  (893) 
ChEMBL_Kinases

>  <Ligand_Instance>  (893) 
nan

>  <PDB_ID>  (893) 
nan

>  <Standardized_SMILES>  (893) 
CC(=O)O[C@@H]1[C@@H](OC(C)=O)[C@@H](O)[C@H](Oc2c(-c3ccc(O)cc3)oc3cc(O)cc(O)c3c2=O)C[C@H]1C

>  <Name>  (893) 
nan

>  <Pocket>  (893) 
nan

>  <ATP_Site>  (893) 
nan

>  <Peripheral>  (893) 
nan

>  <Num_H_Atoms_ProtBoundConf>  (893) 
nan

>  <Num_Resolved_Atoms>  (893) 
nan

>  <Num_Not_Resolved_Atoms>  (893) 
nan

$$$$
CHEMBL3356437
     RDKit          3D

  0  0  0  0  0  0  0  0  0  0999 V3000
M  V30 BEGIN CTAB
M  V30 COUNTS 58 61 0 0 0
M  V30 BEGIN ATOM
M  V30 1 C 6.595915 0.917608 -0.494726 0
M  V30 2 C 5.189963 0.467080 -0.534145 0
M  V30 3 O 4.723133 -0.041330 -1.562889 0
M  V30 4 O 4.419802 0.630605 0.607198 0
M  V30 5 C 3.084876 0.253310 0.716100 0 CFG=2
M  V30 6 C 2.257193 1.480541 1.041569 0 CFG=1
M  V30 7 O 2.553117 2.441798 0.078710 0
M  V30 8 C 0.767691 1.171536 0.983127 0 CFG=1
M  V30 9 O 0.364758 1.312223 -0.355601 0
M  V30 10 C 0.504727 -0.196303 1.510366 0 CFG=2
M  V30 11 O -0.789236 -0.445290 2.033880 0
M  V30 12 C -1.571216 -1.308136 1.285372 0
M  V30 13 C -2.537994 -0.989370 0.376833 0
M  V30 14 C -2.901522 0.380579 0.087981 0
M  V30 15 C -2.586373 1.533613 0.752757 0
M  V30 16 C -2.933506 2.817535 0.405476 0
M  V30 17 C -3.685163 2.991693 -0.737530 0
M  V30 18 O -4.032541 4.289329 -1.083604 0
M  V30 19 C -4.046035 1.878733 -1.465388 0
M  V30 20 C -3.653302 0.626791 -1.043191 0
M  V30 21 O -3.168285 -1.947521 -0.258813 0
M  V30 22 C -2.959110 -3.225837 -0.101490 0
M  V30 23 C -3.714166 -4.103037 -0.852835 0
M  V30 24 C -3.528982 -5.462139 -0.720114 0
M  V30 25 O -4.264872 -6.357150 -1.453649 0
M  V30 26 C -2.573047 -5.870660 0.181245 0
M  V30 27 C -1.815044 -5.003821 0.934954 0
M  V30 28 O -0.859629 -5.413627 1.835685 0
M  V30 29 C -1.996285 -3.650201 0.805916 0
M  V30 30 C -1.312729 -2.637710 1.491018 0
M  V30 31 O -0.473011 -3.187175 2.277704 0
M  V30 32 C 1.579771 -0.534415 2.520461 0
M  V30 33 C 2.877669 -0.816894 1.776803 0 CFG=1
M  V30 34 C 2.726227 -2.166837 1.116447 0
M  V30 35 H 6.748540 1.695222 0.283041 0
M  V30 36 H 6.875934 1.331301 -1.498383 0
M  V30 37 H 7.263723 0.036420 -0.291181 0
M  V30 38 H 2.776175 -0.186120 -0.251895 0
M  V30 39 H 2.491752 1.881043 2.023731 0
M  V30 40 H 3.404572 2.884462 0.233966 0
M  V30 41 H 0.257891 1.907755 1.631419 0
M  V30 42 H 0.184354 2.265217 -0.574392 0
M  V30 43 H 0.596782 -0.890162 0.644615 0
M  V30 44 H -2.021332 1.421877 1.656857 0
M  V30 45 H -2.626150 3.647484 1.006862 0
M  V30 46 H -4.404042 4.973928 -0.438510 0
M  V30 47 H -4.628074 1.994015 -2.353633 0
M  V30 48 H -3.982579 -0.210827 -1.680758 0
M  V30 49 H -4.447667 -3.756053 -1.543424 0
M  V30 50 H -4.780917 -6.018861 -2.259555 0
M  V30 51 H -2.385860 -6.926539 0.326660 0
M  V30 52 H -0.748443 -6.393880 2.091464 0
M  V30 53 H 1.291267 -1.354580 3.199617 0
M  V30 54 H 1.725746 0.384069 3.150891 0
M  V30 55 H 3.701484 -0.889414 2.500224 0
M  V30 56 H 3.730092 -2.649289 0.940527 0
M  V30 57 H 2.259204 -2.124885 0.120016 0
M  V30 58 H 2.219362 -2.895557 1.813481 0
M  V30 END ATOM
M  V30 BEGIN BOND
M  V30 1 1 1 2
M  V30 2 2 2 3
M  V30 3 1 2 4
M  V30 4 1 4 5
M  V30 5 1 5 6
M  V30 6 1 6 7
M  V30 7 1 6 8
M  V30 8 1 8 9
M  V30 9 1 8 10
M  V30 10 1 10 11
M  V30 11 1 11 12
M  V30 12 2 12 13
M  V30 13 1 13 14
M  V30 14 2 14 15
M  V30 15 1 15 16
M  V30 16 2 16 17
M  V30 17 1 17 18
M  V30 18 1 17 19
M  V30 19 2 19 20
M  V30 20 1 13 21
M  V30 21 1 21 22
M  V30 22 2 22 23
M  V30 23 1 23 24
M  V30 24 1 24 25
M  V30 25 2 24 26
M  V30 26 1 26 27
M  V30 27 1 27 28
M  V30 28 2 27 29
M  V30 29 1 29 30
M  V30 30 2 30 31
M  V30 31 1 10 32
M  V30 32 1 32 33
M  V30 33 1 33 34
M  V30 34 1 33 5
M  V30 35 1 30 12
M  V30 36 1 20 14
M  V30 37 1 29 22
M  V30 38 1 1 35
M  V30 39 1 1 36
M  V30 40 1 1 37
M  V30 41 1 5 38 CFG=3
M  V30 42 1 6 39 CFG=1
M  V30 43 1 7 40
M  V30 44 1 8 41 CFG=1
M  V30 45 1 9 42
M  V30 46 1 10 43 CFG=3
M  V30 47 1 15 44
M  V30 48 1 16 45
M  V30 49 1 18 46
M  V30 50 1 19 47
M  V30 51 1 20 48
M  V30 52 1 23 49
M  V30 53 1 25 50
M  V30 54 1 26 51
M  V30 55 1 28 52
M  V30 56 1 32 53
M  V30 57 1 32 54
M  V30 58 1 33 55 CFG=1
M  V30 59 1 34 56
M  V30 60 1 34 57
M  V30 61 1 34 58
M  V30 END BOND
M  V30 END CTAB
M  END
>  <Dataset>  (894) 
ChEMBL_Kinases

>  <Ligand_Instance>  (894) 
nan

>  <PDB_ID>  (894) 
nan

>  <Standardized_SMILES>  (894) 
CC(=O)O[C@@H]1[C@@H](O)[C@@H](O)[C@H](Oc2c(-c3ccc(O)cc3)oc3cc(O)cc(O)c3c2=O)C[C@H]1C

>  <Name>  (894) 
nan

>  <Pocket>  (894) 
nan

>  <ATP_Site>  (894) 
nan

>  <Peripheral>  (894) 
nan

>  <Num_H_Atoms_ProtBoundConf>  (894) 
nan

>  <Num_Resolved_Atoms>  (894) 
nan

>  <Num_Not_Resolved_Atoms>  (894) 
nan

$$$$
CHEMBL3356439
     RDKit          3D

  0  0  0  0  0  0  0  0  0  0999 V3000
M  V30 BEGIN CTAB
M  V30 COUNTS 63 66 0 0 0
M  V30 BEGIN ATOM
M  V30 1 C 4.590015 0.862628 4.982888 0
M  V30 2 C 3.561386 0.393875 4.017767 0
M  V30 3 O 3.205905 -0.815387 4.164230 0
M  V30 4 O 2.997368 1.170638 3.014767 0
M  V30 5 C 2.019386 0.671570 2.121679 0 CFG=2
M  V30 6 C 2.449685 0.784293 0.666704 0 CFG=1
M  V30 7 O 2.802692 -0.489376 0.225748 0
M  V30 8 C 1.222039 1.210380 -0.151490 0 CFG=1
M  V30 9 O 1.487081 1.213793 -1.508848 0
M  V30 10 C 1.481834 2.360214 -2.281447 0
M  V30 11 C 1.772190 2.322981 -3.739984 0
M  V30 12 O 1.216861 3.440489 -1.680067 0
M  V30 13 C 0.077900 0.364573 0.311841 0 CFG=2
M  V30 14 O -0.877020 0.059311 -0.685277 0
M  V30 15 C -1.247174 -1.262342 -0.917884 0
M  V30 16 C -2.343223 -1.936093 -0.430837 0
M  V30 17 C -3.303380 -1.273045 0.420103 0
M  V30 18 C -3.497063 0.030950 0.719452 0
M  V30 19 C -4.417550 0.571257 1.580268 0
M  V30 20 C -5.268780 -0.288026 2.239896 0
M  V30 21 O -6.204711 0.231699 3.112276 0
M  V30 22 C -5.148022 -1.634432 1.998794 0
M  V30 23 C -4.194632 -2.093051 1.117862 0
M  V30 24 O -2.526760 -3.197651 -0.741843 0
M  V30 25 C -1.745633 -3.913855 -1.502337 0
M  V30 26 C -2.129619 -5.238347 -1.702856 0
M  V30 27 C -1.316836 -6.013432 -2.504904 0
M  V30 28 O -1.642776 -7.336226 -2.743146 0
M  V30 29 C -0.185296 -5.449625 -3.058443 0
M  V30 30 C 0.149882 -4.131229 -2.827718 0
M  V30 31 O 1.295877 -3.548837 -3.384447 0
M  V30 32 C -0.624912 -3.309605 -2.034699 0
M  V30 33 C -0.372247 -1.982830 -1.744516 0
M  V30 34 O 0.670054 -1.606114 -2.303904 0
M  V30 35 C -0.429124 0.969728 1.571749 0
M  V30 36 C 0.772165 1.471204 2.359458 0 CFG=1
M  V30 37 C 0.446375 1.358827 3.848724 0
M  V30 38 H 4.171430 0.669771 6.013293 0
M  V30 39 H 5.520806 0.260624 4.916993 0
M  V30 40 H 4.784283 1.952522 4.916251 0
M  V30 41 H 1.840682 -0.396078 2.405947 0
M  V30 42 H 3.272265 1.513317 0.547208 0
M  V30 43 H 3.708466 -0.432500 -0.174237 0
M  V30 44 H 1.012468 2.272639 0.179272 0
M  V30 45 H 1.450276 1.343086 -4.186297 0
M  V30 46 H 2.865345 2.494841 -3.891946 0
M  V30 47 H 1.166115 3.139638 -4.193860 0
M  V30 48 H 0.507004 -0.641249 0.618526 0
M  V30 49 H -2.867538 0.721496 0.204625 0
M  V30 50 H -4.473964 1.623934 1.735403 0
M  V30 51 H -7.144102 0.350843 2.762464 0
M  V30 52 H -5.800589 -2.330164 2.501380 0
M  V30 53 H -4.168517 -3.187512 0.985053 0
M  V30 54 H -3.029472 -5.620843 -1.240095 0
M  V30 55 H -0.927647 -8.031490 -2.989452 0
M  V30 56 H 0.477769 -6.041736 -3.699049 0
M  V30 57 H 1.199606 -3.242878 -4.345149 0
M  V30 58 H -1.036812 0.276857 2.190574 0
M  V30 59 H -1.058400 1.855033 1.352488 0
M  V30 60 H 0.996236 2.535278 2.190136 0
M  V30 61 H 0.003995 0.370597 4.080912 0
M  V30 62 H 1.363089 1.452038 4.465844 0
M  V30 63 H -0.232197 2.190460 4.144453 0
M  V30 END ATOM
M  V30 BEGIN BOND
M  V30 1 1 1 2
M  V30 2 2 2 3
M  V30 3 1 2 4
M  V30 4 1 4 5
M  V30 5 1 5 6
M  V30 6 1 6 7
M  V30 7 1 6 8
M  V30 8 1 8 9
M  V30 9 1 9 10
M  V30 10 1 10 11
M  V30 11 2 10 12
M  V30 12 1 8 13
M  V30 13 1 13 14
M  V30 14 1 14 15
M  V30 15 2 15 16
M  V30 16 1 16 17
M  V30 17 2 17 18
M  V30 18 1 18 19
M  V30 19 2 19 20
M  V30 20 1 20 21
M  V30 21 1 20 22
M  V30 22 2 22 23
M  V30 23 1 16 24
M  V30 24 1 24 25
M  V30 25 2 25 26
M  V30 26 1 26 27
M  V30 27 1 27 28
M  V30 28 2 27 29
M  V30 29 1 29 30
M  V30 30 1 30 31
M  V30 31 2 30 32
M  V30 32 1 32 33
M  V30 33 2 33 34
M  V30 34 1 13 35
M  V30 35 1 35 36
M  V30 36 1 36 37
M  V30 37 1 36 5
M  V30 38 1 33 15
M  V30 39 1 23 17
M  V30 40 1 32 25
M  V30 41 1 1 38
M  V30 42 1 1 39
M  V30 43 1 1 40
M  V30 44 1 5 41 CFG=1
M  V30 45 1 6 42 CFG=1
M  V30 46 1 7 43
M  V30 47 1 8 44 CFG=1
M  V30 48 1 11 45
M  V30 49 1 11 46
M  V30 50 1 11 47
M  V30 51 1 13 48 CFG=1
M  V30 52 1 18 49
M  V30 53 1 19 50
M  V30 54 1 21 51
M  V30 55 1 22 52
M  V30 56 1 23 53
M  V30 57 1 26 54
M  V30 58 1 28 55
M  V30 59 1 29 56
M  V30 60 1 31 57
M  V30 61 1 35 58
M  V30 62 1 35 59
M  V30 63 1 36 60 CFG=3
M  V30 64 1 37 61
M  V30 65 1 37 62
M  V30 66 1 37 63
M  V30 END BOND
M  V30 END CTAB
M  END
>  <Dataset>  (895) 
ChEMBL_Kinases

>  <Ligand_Instance>  (895) 
nan

>  <PDB_ID>  (895) 
nan

>  <Standardized_SMILES>  (895) 
CC(=O)O[C@@H]1[C@@H](O)[C@@H](OC(C)=O)[C@H](Oc2c(-c3ccc(O)cc3)oc3cc(O)cc(O)c3c2=O)C[C@H]1C

>  <Name>  (895) 
nan

>  <Pocket>  (895) 
nan

>  <ATP_Site>  (895) 
nan

>  <Peripheral>  (895) 
nan

>  <Num_H_Atoms_ProtBoundConf>  (895) 
nan

>  <Num_Resolved_Atoms>  (895) 
nan

>  <Num_Not_Resolved_Atoms>  (895) 
nan

$$$$
CHEMBL3356441
     RDKit          3D

  0  0  0  0  0  0  0  0  0  0999 V3000
M  V30 BEGIN CTAB
M  V30 COUNTS 60 63 0 0 0
M  V30 BEGIN ATOM
M  V30 1 C 4.167921 -2.050088 4.730301 0
M  V30 2 C 3.408433 -2.156410 3.433760 0
M  V30 3 O 2.963954 -3.313422 3.173055 0
M  V30 4 O 3.251923 -1.026626 2.642659 0
M  V30 5 C 2.532328 -1.170069 1.434121 0 CFG=1
M  V30 6 C 1.283894 -0.275360 1.442948 0 CFG=1
M  V30 7 O 1.752825 1.050668 1.314850 0
M  V30 8 C 0.436937 -0.687439 0.294152 0 CFG=2
M  V30 9 O -0.786504 -1.255509 0.703731 0
M  V30 10 C -1.983422 -1.207390 0.058687 0
M  V30 11 C -3.027917 -0.317172 0.075563 0
M  V30 12 C -2.917683 0.835920 0.936455 0
M  V30 13 C -2.063351 1.187652 1.942082 0
M  V30 14 C -2.024492 2.353085 2.660344 0
M  V30 15 C -2.950368 3.313218 2.357308 0
M  V30 16 O -2.927354 4.492279 3.068421 0
M  V30 17 C -3.862749 3.064407 1.359795 0
M  V30 18 C -3.831908 1.865550 0.686361 0
M  V30 19 O -4.092615 -0.494712 -0.659551 0
M  V30 20 C -4.304167 -1.486111 -1.465586 0
M  V30 21 C -5.501905 -1.486884 -2.155659 0
M  V30 22 C -5.717512 -2.548904 -3.012485 0
M  V30 23 O -6.888818 -2.606450 -3.726595 0
M  V30 24 C -4.765100 -3.535295 -3.144668 0
M  V30 25 C -3.594017 -3.481262 -2.433219 0
M  V30 26 O -2.627905 -4.466671 -2.556761 0
M  V30 27 C -3.315498 -2.435273 -1.551300 0
M  V30 28 C -2.150063 -2.297858 -0.786995 0
M  V30 29 O -1.396909 -3.284206 -1.029074 0
M  V30 30 C 1.182486 -1.642307 -0.626876 0
M  V30 31 C 2.552443 -1.122201 -0.995301 0
M  V30 32 C 3.309379 -0.769896 0.231279 0 CFG=2
M  V30 33 O 4.636301 -1.251793 0.245323 0
M  V30 34 C 5.746180 -0.423595 0.269144 0
M  V30 35 C 7.128217 -0.999149 0.283272 0
M  V30 36 O 5.529903 0.827045 0.278244 0
M  V30 37 H 4.890886 -2.868175 4.776226 0
M  V30 38 H 3.478123 -2.176366 5.592644 0
M  V30 39 H 4.734293 -1.098136 4.762097 0
M  V30 40 H 2.224491 -2.228878 1.370482 0
M  V30 41 H 0.810831 -0.314227 2.442900 0
M  V30 42 H 2.017199 1.401292 2.201235 0
M  V30 43 H 0.156746 0.164337 -0.379619 0
M  V30 44 H -1.368777 0.409077 2.183079 0
M  V30 45 H -1.285004 2.461842 3.414575 0
M  V30 46 H -2.075022 5.037717 3.043038 0
M  V30 47 H -4.581040 3.808559 1.123402 0
M  V30 48 H -4.602424 1.759755 -0.095128 0
M  V30 49 H -6.235498 -0.719764 -2.048673 0
M  V30 50 H -6.885068 -3.045633 -4.653478 0
M  V30 51 H -4.913495 -4.373779 -3.808507 0
M  V30 52 H -2.577523 -5.254649 -1.911223 0
M  V30 53 H 1.165091 -2.682072 -0.276144 0
M  V30 54 H 0.609091 -1.642707 -1.586106 0
M  V30 55 H 2.415747 -0.245277 -1.663928 0
M  V30 56 H 3.025322 -1.979455 -1.564208 0
M  V30 57 H 3.422661 0.357891 0.243589 0
M  V30 58 H 7.234150 -1.499541 -0.719845 0
M  V30 59 H 7.315575 -1.695778 1.095169 0
M  V30 60 H 7.827454 -0.118771 0.245503 0
M  V30 END ATOM
M  V30 BEGIN BOND
M  V30 1 1 1 2
M  V30 2 2 2 3
M  V30 3 1 2 4
M  V30 4 1 4 5
M  V30 5 1 5 6
M  V30 6 1 6 7
M  V30 7 1 6 8
M  V30 8 1 8 9
M  V30 9 1 9 10
M  V30 10 2 10 11
M  V30 11 1 11 12
M  V30 12 2 12 13
M  V30 13 1 13 14
M  V30 14 2 14 15
M  V30 15 1 15 16
M  V30 16 1 15 17
M  V30 17 2 17 18
M  V30 18 1 11 19
M  V30 19 1 19 20
M  V30 20 2 20 21
M  V30 21 1 21 22
M  V30 22 1 22 23
M  V30 23 2 22 24
M  V30 24 1 24 25
M  V30 25 1 25 26
M  V30 26 2 25 27
M  V30 27 1 27 28
M  V30 28 2 28 29
M  V30 29 1 8 30
M  V30 30 1 30 31
M  V30 31 1 31 32
M  V30 32 1 32 33
M  V30 33 1 33 34
M  V30 34 1 34 35
M  V30 35 2 34 36
M  V30 36 1 32 5
M  V30 37 1 28 10
M  V30 38 1 18 12
M  V30 39 1 27 20
M  V30 40 1 1 37
M  V30 41 1 1 38
M  V30 42 1 1 39
M  V30 43 1 5 40 CFG=3
M  V30 44 1 6 41 CFG=1
M  V30 45 1 7 42
M  V30 46 1 8 43 CFG=3
M  V30 47 1 13 44
M  V30 48 1 14 45
M  V30 49 1 16 46
M  V30 50 1 17 47
M  V30 51 1 18 48
M  V30 52 1 21 49
M  V30 53 1 23 50
M  V30 54 1 24 51
M  V30 55 1 26 52
M  V30 56 1 30 53
M  V30 57 1 30 54
M  V30 58 1 31 55
M  V30 59 1 31 56
M  V30 60 1 32 57 CFG=1
M  V30 61 1 35 58
M  V30 62 1 35 59
M  V30 63 1 35 60
M  V30 END BOND
M  V30 END CTAB
M  END
>  <Dataset>  (896) 
ChEMBL_Kinases

>  <Ligand_Instance>  (896) 
nan

>  <PDB_ID>  (896) 
nan

>  <Standardized_SMILES>  (896) 
CC(=O)O[C@H]1[C@@H](O)[C@H](Oc2c(-c3ccc(O)cc3)oc3cc(O)cc(O)c3c2=O)CC[C@@H]1OC(C)=O

>  <Name>  (896) 
nan

>  <Pocket>  (896) 
nan

>  <ATP_Site>  (896) 
nan

>  <Peripheral>  (896) 
nan

>  <Num_H_Atoms_ProtBoundConf>  (896) 
nan

>  <Num_Resolved_Atoms>  (896) 
nan

>  <Num_Not_Resolved_Atoms>  (896) 
nan

$$$$
CHEMBL3356447
     RDKit          3D

  0  0  0  0  0  0  0  0  0  0999 V3000
M  V30 BEGIN CTAB
M  V30 COUNTS 38 41 0 0 0
M  V30 BEGIN ATOM
M  V30 1 O -1.467673 -4.308587 3.569398 0
M  V30 2 C -0.642185 -4.201889 2.599902 0
M  V30 3 C -0.533141 -2.951047 1.803362 0
M  V30 4 N 0.728259 -2.968201 1.128434 0
M  V30 5 C 1.484887 -4.140807 0.908841 0
M  V30 6 N 1.237506 -5.269947 1.464399 0
M  V30 7 N 0.153745 -5.351716 2.342223 0
M  V30 8 C 2.673970 -4.211569 -0.004495 0
M  V30 9 O 3.200856 -2.914834 -0.207058 0
M  V30 10 C 2.463119 -1.780275 0.008078 0
M  V30 11 C 3.042585 -0.631043 -0.486172 0
M  V30 12 C 2.449689 0.606659 -0.365416 0
M  V30 13 C 1.213778 0.658991 0.289444 0
M  V30 14 N 0.519452 1.910982 0.468477 0
M  V30 15 C -0.754542 2.158912 1.097578 0
M  V30 16 C -1.090848 3.657556 1.127497 0
M  V30 17 C -1.927259 3.874461 -0.093262 0
M  V30 18 N -1.914511 2.641324 -0.845878 0
M  V30 19 C -1.908980 1.665379 0.250778 0
M  V30 20 C 0.643329 -0.506155 0.781565 0
M  V30 21 C 1.241853 -1.743985 0.657779 0
M  V30 22 H -0.674577 -2.118885 2.518971 0
M  V30 23 H -1.352498 -3.008356 1.048358 0
M  V30 24 H -0.077899 -6.272236 2.818710 0
M  V30 25 H 2.236533 -4.561120 -0.984706 0
M  V30 26 H 3.429379 -4.931143 0.314393 0
M  V30 27 H 4.001160 -0.605834 -1.004590 0
M  V30 28 H 2.891140 1.508628 -0.746159 0
M  V30 29 H 1.017793 2.767526 0.082455 0
M  V30 30 H -0.739008 1.715428 2.112924 0
M  V30 31 H -0.146188 4.250870 1.062732 0
M  V30 32 H -1.625885 3.846317 2.072193 0
M  V30 33 H -1.515094 4.723471 -0.667123 0
M  V30 34 H -2.962115 4.132923 0.237767 0
M  V30 35 H -2.868623 2.532590 -1.298250 0
M  V30 36 H -2.829948 1.894022 0.829699 0
M  V30 37 H -1.817763 0.645051 -0.109296 0
M  V30 38 H -0.305576 -0.534595 1.298625 0
M  V30 END ATOM
M  V30 BEGIN BOND
M  V30 1 2 1 2
M  V30 2 1 2 3
M  V30 3 1 3 4
M  V30 4 1 4 5
M  V30 5 2 5 6
M  V30 6 1 6 7
M  V30 7 1 5 8
M  V30 8 1 8 9
M  V30 9 1 9 10
M  V30 10 2 10 11
M  V30 11 1 11 12
M  V30 12 2 12 13
M  V30 13 1 13 14
M  V30 14 1 14 15
M  V30 15 1 15 16
M  V30 16 1 16 17
M  V30 17 1 17 18
M  V30 18 1 18 19
M  V30 19 1 13 20
M  V30 20 2 20 21
M  V30 21 1 7 2
M  V30 22 1 21 10
M  V30 23 1 21 4
M  V30 24 1 19 15
M  V30 25 1 3 22
M  V30 26 1 3 23
M  V30 27 1 7 24
M  V30 28 1 8 25
M  V30 29 1 8 26
M  V30 30 1 11 27
M  V30 31 1 12 28
M  V30 32 1 14 29
M  V30 33 1 15 30
M  V30 34 1 16 31
M  V30 35 1 16 32
M  V30 36 1 17 33
M  V30 37 1 17 34
M  V30 38 1 18 35
M  V30 39 1 19 36
M  V30 40 1 19 37
M  V30 41 1 20 38
M  V30 END BOND
M  V30 END CTAB
M  END
>  <Dataset>  (897) 
ChEMBL_Kinases

>  <Ligand_Instance>  (897) 
nan

>  <PDB_ID>  (897) 
nan

>  <Standardized_SMILES>  (897) 
O=C1CN2C(=NN1)COc1ccc(NC3CCNC3)cc12

>  <Name>  (897) 
nan

>  <Pocket>  (897) 
nan

>  <ATP_Site>  (897) 
nan

>  <Peripheral>  (897) 
nan

>  <Num_H_Atoms_ProtBoundConf>  (897) 
nan

>  <Num_Resolved_Atoms>  (897) 
nan

>  <Num_Not_Resolved_Atoms>  (897) 
nan

$$$$
CHEMBL3356448
     RDKit          3D

  0  0  0  0  0  0  0  0  0  0999 V3000
M  V30 BEGIN CTAB
M  V30 COUNTS 41 44 0 0 0
M  V30 BEGIN ATOM
M  V30 1 O 1.072830 -5.775605 2.727508 0
M  V30 2 C 1.779144 -5.228337 1.821574 0
M  V30 3 C 1.314306 -3.844435 1.655751 0
M  V30 4 N 2.145825 -3.190047 0.699198 0
M  V30 5 C 3.202046 -3.824061 -0.021312 0
M  V30 6 N 3.519672 -5.062082 0.166459 0
M  V30 7 N 2.834439 -5.852468 1.098006 0
M  V30 8 C 4.044001 -3.146877 -1.052790 0
M  V30 9 O 3.749364 -1.786261 -1.194058 0
M  V30 10 C 2.737819 -1.119492 -0.524134 0
M  V30 11 C 2.512084 0.216349 -0.775651 0
M  V30 12 C 1.488916 0.821250 -0.074753 0
M  V30 13 C 0.672869 0.211463 0.852854 0
M  V30 14 N -0.366672 0.844504 1.548208 0
M  V30 15 C -0.831337 2.176609 1.461828 0
M  V30 16 C -1.454345 2.625361 0.193088 0
M  V30 17 C -2.883436 2.209745 0.002130 0
M  V30 18 C -3.665010 1.905130 1.211300 0
M  V30 19 N -2.960072 1.773802 2.449138 0
M  V30 20 C -1.785095 2.569979 2.561730 0
M  V30 21 C 0.958938 -1.125819 1.051803 0
M  V30 22 C 1.963484 -1.801384 0.391479 0
M  V30 23 H 1.518187 -3.333132 2.642345 0
M  V30 24 H 0.234401 -3.719333 1.486068 0
M  V30 25 H 3.007143 -6.854528 1.327117 0
M  V30 26 H 3.921998 -3.612743 -2.062158 0
M  V30 27 H 5.122991 -3.283017 -0.785863 0
M  V30 28 H 3.117428 0.752984 -1.492594 0
M  V30 29 H 1.355613 1.862595 -0.299378 0
M  V30 30 H -0.901616 0.251920 2.252746 0
M  V30 31 H 0.076399 2.838922 1.621790 0
M  V30 32 H -1.456110 3.755901 0.251674 0
M  V30 33 H -0.895148 2.413069 -0.732679 0
M  V30 34 H -2.878522 1.347839 -0.725288 0
M  V30 35 H -3.410987 3.006399 -0.566713 0
M  V30 36 H -4.546662 2.598918 1.347993 0
M  V30 37 H -4.174992 0.908340 1.062497 0
M  V30 38 H -3.611906 2.034895 3.224411 0
M  V30 39 H -1.323759 2.355964 3.542675 0
M  V30 40 H -1.998402 3.658213 2.431889 0
M  V30 41 H 0.347010 -1.676580 1.779194 0
M  V30 END ATOM
M  V30 BEGIN BOND
M  V30 1 2 1 2
M  V30 2 1 2 3
M  V30 3 1 3 4
M  V30 4 1 4 5
M  V30 5 2 5 6
M  V30 6 1 6 7
M  V30 7 1 5 8
M  V30 8 1 8 9
M  V30 9 1 9 10
M  V30 10 2 10 11
M  V30 11 1 11 12
M  V30 12 2 12 13
M  V30 13 1 13 14
M  V30 14 1 14 15
M  V30 15 1 15 16
M  V30 16 1 16 17
M  V30 17 1 17 18
M  V30 18 1 18 19
M  V30 19 1 19 20
M  V30 20 1 13 21
M  V30 21 2 21 22
M  V30 22 1 7 2
M  V30 23 1 22 10
M  V30 24 1 22 4
M  V30 25 1 20 15
M  V30 26 1 3 23
M  V30 27 1 3 24
M  V30 28 1 7 25
M  V30 29 1 8 26
M  V30 30 1 8 27
M  V30 31 1 11 28
M  V30 32 1 12 29
M  V30 33 1 14 30
M  V30 34 1 15 31
M  V30 35 1 16 32
M  V30 36 1 16 33
M  V30 37 1 17 34
M  V30 38 1 17 35
M  V30 39 1 18 36
M  V30 40 1 18 37
M  V30 41 1 19 38
M  V30 42 1 20 39
M  V30 43 1 20 40
M  V30 44 1 21 41
M  V30 END BOND
M  V30 END CTAB
M  END
>  <Dataset>  (898) 
ChEMBL_Kinases

>  <Ligand_Instance>  (898) 
nan

>  <PDB_ID>  (898) 
nan

>  <Standardized_SMILES>  (898) 
O=C1CN2C(=NN1)COc1ccc(NC3CCCNC3)cc12

>  <Name>  (898) 
nan

>  <Pocket>  (898) 
nan

>  <ATP_Site>  (898) 
nan

>  <Peripheral>  (898) 
nan

>  <Num_H_Atoms_ProtBoundConf>  (898) 
nan

>  <Num_Resolved_Atoms>  (898) 
nan

>  <Num_Not_Resolved_Atoms>  (898) 
nan

$$$$
CHEMBL3356450
     RDKit          3D

  0  0  0  0  0  0  0  0  0  0999 V3000
M  V30 BEGIN CTAB
M  V30 COUNTS 44 47 0 0 0
M  V30 BEGIN ATOM
M  V30 1 O -0.365908 -6.271820 -1.154382 0
M  V30 2 C 0.580324 -5.461468 -1.313760 0
M  V30 3 C 0.566498 -4.152925 -0.595488 0
M  V30 4 N 1.496444 -3.222039 -1.188727 0
M  V30 5 C 2.557866 -3.642750 -2.066995 0
M  V30 6 N 2.636157 -4.850405 -2.531035 0
M  V30 7 N 1.658720 -5.781299 -2.169582 0
M  V30 8 C 3.664285 -2.764924 -2.535690 0
M  V30 9 O 3.313889 -1.406159 -2.348794 0
M  V30 10 C 2.300236 -0.973868 -1.505888 0
M  V30 11 C 2.209694 0.384434 -1.251697 0
M  V30 12 C 1.209247 0.843821 -0.415317 0
M  V30 13 C 0.276566 0.032171 0.196366 0
M  V30 14 N -0.743598 0.508662 1.051610 0
M  V30 15 C -0.924830 1.890999 1.385257 0
M  V30 16 C 0.236585 2.535104 2.076557 0
M  V30 17 C -0.093438 3.090896 3.445780 0
M  V30 18 C -0.526455 2.031669 4.428261 0
M  V30 19 N -1.983744 2.067781 4.470747 0
M  V30 20 C -2.416598 1.271457 3.326527 0
M  V30 21 C -2.227718 2.091498 2.092238 0
M  V30 22 C 0.423570 -1.307297 -0.098992 0
M  V30 23 C 1.394846 -1.831882 -0.921670 0
M  V30 24 H 0.803763 -4.308260 0.475426 0
M  V30 25 H -0.491653 -3.785869 -0.613333 0
M  V30 26 H 1.690411 -6.764360 -2.525117 0
M  V30 27 H 3.893170 -2.924954 -3.607792 0
M  V30 28 H 4.545699 -2.965526 -1.892649 0
M  V30 29 H 2.922176 1.067575 -1.710387 0
M  V30 30 H 1.189437 1.898221 -0.258126 0
M  V30 31 H -1.394854 -0.205474 1.453864 0
M  V30 32 H -1.028558 2.426864 0.394752 0
M  V30 33 H 1.057973 1.819895 2.205156 0
M  V30 34 H 0.658614 3.412843 1.512338 0
M  V30 35 H 0.897121 3.463224 3.841034 0
M  V30 36 H -0.753693 3.959850 3.439469 0
M  V30 37 H -0.121431 2.200439 5.440549 0
M  V30 38 H -0.239441 1.012073 4.143616 0
M  V30 39 H -2.308998 1.711043 5.374302 0
M  V30 40 H -3.510323 1.031320 3.469864 0
M  V30 41 H -1.880715 0.316569 3.355450 0
M  V30 42 H -2.463940 3.144635 2.277499 0
M  V30 43 H -3.021365 1.740865 1.369014 0
M  V30 44 H -0.288142 -2.003449 0.357335 0
M  V30 END ATOM
M  V30 BEGIN BOND
M  V30 1 2 1 2
M  V30 2 1 2 3
M  V30 3 1 3 4
M  V30 4 1 4 5
M  V30 5 2 5 6
M  V30 6 1 6 7
M  V30 7 1 5 8
M  V30 8 1 8 9
M  V30 9 1 9 10
M  V30 10 2 10 11
M  V30 11 1 11 12
M  V30 12 2 12 13
M  V30 13 1 13 14
M  V30 14 1 14 15
M  V30 15 1 15 16
M  V30 16 1 16 17
M  V30 17 1 17 18
M  V30 18 1 18 19
M  V30 19 1 19 20
M  V30 20 1 20 21
M  V30 21 1 13 22
M  V30 22 2 22 23
M  V30 23 1 7 2
M  V30 24 1 23 10
M  V30 25 1 23 4
M  V30 26 1 21 15
M  V30 27 1 3 24
M  V30 28 1 3 25
M  V30 29 1 7 26
M  V30 30 1 8 27
M  V30 31 1 8 28
M  V30 32 1 11 29
M  V30 33 1 12 30
M  V30 34 1 14 31
M  V30 35 1 15 32
M  V30 36 1 16 33
M  V30 37 1 16 34
M  V30 38 1 17 35
M  V30 39 1 17 36
M  V30 40 1 18 37
M  V30 41 1 18 38
M  V30 42 1 19 39
M  V30 43 1 20 40
M  V30 44 1 20 41
M  V30 45 1 21 42
M  V30 46 1 21 43
M  V30 47 1 22 44
M  V30 END BOND
M  V30 END CTAB
M  END
>  <Dataset>  (899) 
ChEMBL_Kinases

>  <Ligand_Instance>  (899) 
nan

>  <PDB_ID>  (899) 
nan

>  <Standardized_SMILES>  (899) 
O=C1CN2C(=NN1)COc1ccc(NC3CCCNCC3)cc12

>  <Name>  (899) 
nan

>  <Pocket>  (899) 
nan

>  <ATP_Site>  (899) 
nan

>  <Peripheral>  (899) 
nan

>  <Num_H_Atoms_ProtBoundConf>  (899) 
nan

>  <Num_Resolved_Atoms>  (899) 
nan

>  <Num_Not_Resolved_Atoms>  (899) 
nan

$$$$
CHEMBL3356451
     RDKit          3D

  0  0  0  0  0  0  0  0  0  0999 V3000
M  V30 BEGIN CTAB
M  V30 COUNTS 38 41 0 0 0
M  V30 BEGIN ATOM
M  V30 1 O 3.766892 -1.805973 4.893120 0
M  V30 2 C 3.196244 -2.425133 3.932666 0
M  V30 3 C 1.930913 -1.871202 3.324066 0
M  V30 4 N 1.980313 -2.196939 1.917647 0
M  V30 5 C 2.640013 -3.413465 1.537545 0
M  V30 6 N 3.477434 -4.085361 2.229024 0
M  V30 7 N 3.814969 -3.619270 3.501495 0
M  V30 8 C 2.335016 -3.990174 0.202200 0
M  V30 9 O 2.183908 -2.982466 -0.776338 0
M  V30 10 C 1.543125 -1.806976 -0.419551 0
M  V30 11 C 1.007231 -1.033400 -1.428359 0
M  V30 12 C 0.374582 0.130758 -1.047938 0
M  V30 13 C 0.227452 0.592047 0.242973 0
M  V30 14 N -0.447075 1.784203 0.597485 0
M  V30 15 C -1.177277 2.777761 -0.097989 0
M  V30 16 C -2.548321 2.498608 -0.532458 0
M  V30 17 C -2.924522 1.421019 -1.453556 0
M  V30 18 N -3.253002 0.541262 -0.329754 0
M  V30 19 C -3.425786 1.753103 0.469935 0
M  V30 20 C 0.781413 -0.218579 1.210847 0
M  V30 21 C 1.424072 -1.389829 0.887911 0
M  V30 22 H 1.932791 -0.806435 3.551624 0
M  V30 23 H 1.117574 -2.430655 3.863391 0
M  V30 24 H 4.493013 -4.107512 4.135793 0
M  V30 25 H 1.310863 -4.455141 0.308959 0
M  V30 26 H 3.055734 -4.766838 -0.120114 0
M  V30 27 H 1.086360 -1.336525 -2.462396 0
M  V30 28 H -0.013387 0.711307 -1.866466 0
M  V30 29 H -0.415552 2.012409 1.642511 0
M  V30 30 H -1.180559 3.750740 0.463753 0
M  V30 31 H -0.575696 2.977635 -1.053252 0
M  V30 32 H -3.077082 3.467203 -0.784185 0
M  V30 33 H -2.264898 1.037626 -2.215199 0
M  V30 34 H -3.922315 1.633870 -1.965584 0
M  V30 35 H -4.121550 -0.024281 -0.451189 0
M  V30 36 H -4.489825 2.062530 0.435768 0
M  V30 37 H -3.074191 1.720011 1.498858 0
M  V30 38 H 0.705847 0.072930 2.238938 0
M  V30 END ATOM
M  V30 BEGIN BOND
M  V30 1 2 1 2
M  V30 2 1 2 3
M  V30 3 1 3 4
M  V30 4 1 4 5
M  V30 5 2 5 6
M  V30 6 1 6 7
M  V30 7 1 5 8
M  V30 8 1 8 9
M  V30 9 1 9 10
M  V30 10 2 10 11
M  V30 11 1 11 12
M  V30 12 2 12 13
M  V30 13 1 13 14
M  V30 14 1 14 15
M  V30 15 1 15 16
M  V30 16 1 16 17
M  V30 17 1 17 18
M  V30 18 1 18 19
M  V30 19 1 13 20
M  V30 20 2 20 21
M  V30 21 1 7 2
M  V30 22 1 21 10
M  V30 23 1 21 4
M  V30 24 1 19 16
M  V30 25 1 3 22
M  V30 26 1 3 23
M  V30 27 1 7 24
M  V30 28 1 8 25
M  V30 29 1 8 26
M  V30 30 1 11 27
M  V30 31 1 12 28
M  V30 32 1 14 29
M  V30 33 1 15 30
M  V30 34 1 15 31
M  V30 35 1 16 32
M  V30 36 1 17 33
M  V30 37 1 17 34
M  V30 38 1 18 35
M  V30 39 1 19 36
M  V30 40 1 19 37
M  V30 41 1 20 38
M  V30 END BOND
M  V30 END CTAB
M  END
>  <Dataset>  (900) 
ChEMBL_Kinases

>  <Ligand_Instance>  (900) 
nan

>  <PDB_ID>  (900) 
nan

>  <Standardized_SMILES>  (900) 
O=C1CN2C(=NN1)COc1ccc(NCC3CNC3)cc12

>  <Name>  (900) 
nan

>  <Pocket>  (900) 
nan

>  <ATP_Site>  (900) 
nan

>  <Peripheral>  (900) 
nan

>  <Num_H_Atoms_ProtBoundConf>  (900) 
nan

>  <Num_Resolved_Atoms>  (900) 
nan

>  <Num_Not_Resolved_Atoms>  (900) 
nan

$$$$
CHEMBL3356432
     RDKit          3D

  0  0  0  0  0  0  0  0  0  0999 V3000
M  V30 BEGIN CTAB
M  V30 COUNTS 71 74 0 0 0
M  V30 BEGIN ATOM
M  V30 1 C 3.160985 0.389829 1.578367 0
M  V30 2 C 4.457145 0.228642 0.876310 0
M  V30 3 C 5.706170 0.026911 1.482153 0
M  V30 4 N 6.632146 -0.087415 0.507805 0
M  V30 5 C 6.077404 0.025861 -0.713720 0
M  V30 6 N 6.471089 -0.006800 -2.002208 0
M  V30 7 C 5.573108 0.147604 -3.005747 0
M  V30 8 N 4.252694 0.340001 -2.744427 0
M  V30 9 C 3.815696 0.379457 -1.450617 0
M  V30 10 N 2.415210 0.621426 -1.431590 0
M  V30 11 C 1.689348 1.790648 -0.997585 0
M  V30 12 C 0.378194 1.486604 -0.355896 0
M  V30 13 C -0.455673 0.443252 -1.090559 0
M  V30 14 C -1.699962 1.151014 -1.532308 0
M  V30 15 C -2.709490 0.354651 -2.274285 0
M  V30 16 N -2.291259 -0.228264 -3.509302 0
M  V30 17 C -3.444843 -1.001137 -4.014554 0
M  V30 18 C -2.087568 0.795854 -4.547327 0
M  V30 19 C -0.750503 -0.609949 -0.070418 0
M  V30 20 O -0.408576 -0.381963 1.134414 0
M  V30 21 N -1.376058 -1.872094 -0.255093 0
M  V30 22 C -1.544300 -2.704439 0.909597 0
M  V30 23 C -0.530034 -3.594644 1.280662 0
M  V30 24 C -0.660255 -4.414055 2.396302 0
M  V30 25 C -1.815649 -4.341898 3.147154 0
M  V30 26 C -2.822769 -3.459025 2.779738 0
M  V30 27 O -3.947760 -3.460794 3.600298 0
M  V30 28 C -4.145862 -2.620942 4.671535 0
M  V30 29 O -3.964198 -3.390687 3.689648 0
M  V30 30 N -4.151578 -1.665544 5.724864 0
M  V30 31 C -5.385251 -1.849786 6.454903 0
M  V30 32 C -3.093571 -0.703684 5.980457 0
M  V30 33 C -2.683256 -2.649352 1.669508 0
M  V30 34 C 0.260090 -0.111012 -2.276289 0
M  V30 35 C 1.686614 -0.522829 -1.943867 0
M  V30 36 C 4.742512 0.219721 -0.449675 0
M  V30 37 H 2.914711 1.441088 1.775838 0
M  V30 38 H 2.355548 -0.201243 1.101508 0
M  V30 39 H 3.290662 -0.071688 2.605020 0
M  V30 40 H 5.884536 -0.026417 2.552956 0
M  V30 41 H 7.668637 -0.245712 0.618065 0
M  V30 42 H 6.026572 0.098704 -3.984637 0
M  V30 43 H 2.268492 2.421427 -0.288754 0
M  V30 44 H 1.464032 2.387925 -1.918840 0
M  V30 45 H -0.165948 2.485072 -0.304627 0
M  V30 46 H 0.525934 1.240262 0.722015 0
M  V30 47 H -2.247775 1.609916 -0.656145 0
M  V30 48 H -1.459310 2.042672 -2.178872 0
M  V30 49 H -3.243337 -0.399705 -1.652068 0
M  V30 50 H -3.515394 1.110467 -2.569065 0
M  V30 51 H -3.927522 -1.555195 -3.194968 0
M  V30 52 H -3.126565 -1.675557 -4.835684 0
M  V30 53 H -4.203059 -0.310933 -4.460479 0
M  V30 54 H -1.537683 0.269235 -5.351497 0
M  V30 55 H -1.528522 1.659505 -4.177593 0
M  V30 56 H -3.043833 1.152969 -4.954830 0
M  V30 57 H -1.656356 -2.088048 -1.234952 0
M  V30 58 H 0.349274 -3.602775 0.651574 0
M  V30 59 H 0.201247 -5.053728 2.567044 0
M  V30 60 H -1.797643 -5.022472 3.982453 0
M  V30 61 H -5.544777 -2.892513 6.801201 0
M  V30 62 H -5.523716 -1.118861 7.259287 0
M  V30 63 H -6.219646 -1.633111 5.727375 0
M  V30 64 H -2.384282 -0.816553 5.130633 0
M  V30 65 H -3.495766 0.330904 5.985979 0
M  V30 66 H -2.530694 -0.942773 6.904409 0
M  V30 67 H -3.504658 -1.966701 1.416433 0
M  V30 68 H -0.246197 -0.983811 -2.677542 0
M  V30 69 H 0.338725 0.692579 -3.024819 0
M  V30 70 H 2.141398 -0.764085 -2.947252 0
M  V30 71 H 1.760199 -1.425432 -1.337815 0
M  V30 END ATOM
M  V30 BEGIN BOND
M  V30 1 1 1 2
M  V30 2 2 2 3
M  V30 3 1 3 4
M  V30 4 1 4 5
M  V30 5 2 5 6
M  V30 6 1 6 7
M  V30 7 2 7 8
M  V30 8 1 8 9
M  V30 9 1 9 10
M  V30 10 1 10 11
M  V30 11 1 11 12
M  V30 12 1 12 13
M  V30 13 1 13 14
M  V30 14 1 14 15
M  V30 15 1 15 16
M  V30 16 1 16 17
M  V30 17 1 16 18
M  V30 18 1 13 19
M  V30 19 2 19 20
M  V30 20 1 19 21
M  V30 21 1 21 22
M  V30 22 2 22 23
M  V30 23 1 23 24
M  V30 24 2 24 25
M  V30 25 1 25 26
M  V30 26 1 26 27
M  V30 27 1 27 28
M  V30 28 2 28 29
M  V30 29 1 28 30
M  V30 30 1 30 31
M  V30 31 1 30 32
M  V30 32 2 26 33
M  V30 33 1 13 34
M  V30 34 1 34 35
M  V30 35 2 9 36
M  V30 36 1 36 2
M  V30 37 1 36 5
M  V30 38 1 35 10
M  V30 39 1 33 22
M  V30 40 1 1 37
M  V30 41 1 1 38
M  V30 42 1 1 39
M  V30 43 1 3 40
M  V30 44 1 4 41
M  V30 45 1 7 42
M  V30 46 1 11 43
M  V30 47 1 11 44
M  V30 48 1 12 45
M  V30 49 1 12 46
M  V30 50 1 14 47
M  V30 51 1 14 48
M  V30 52 1 15 49
M  V30 53 1 15 50
M  V30 54 1 17 51
M  V30 55 1 17 52
M  V30 56 1 17 53
M  V30 57 1 18 54
M  V30 58 1 18 55
M  V30 59 1 18 56
M  V30 60 1 21 57
M  V30 61 1 23 58
M  V30 62 1 24 59
M  V30 63 1 25 60
M  V30 64 1 31 61
M  V30 65 1 31 62
M  V30 66 1 31 63
M  V30 67 1 32 64
M  V30 68 1 32 65
M  V30 69 1 32 66
M  V30 70 1 33 67
M  V30 71 1 34 68
M  V30 72 1 34 69
M  V30 73 1 35 70
M  V30 74 1 35 71
M  V30 END BOND
M  V30 END CTAB
M  END
>  <Dataset>  (901) 
ChEMBL_Kinases

>  <Ligand_Instance>  (901) 
nan

>  <PDB_ID>  (901) 
nan

>  <Standardized_SMILES>  (901) 
Cc1c[nH]c2ncnc(N3CCC(CCN(C)C)(C(=O)Nc4cccc(OC(=O)N(C)C)c4)CC3)c12

>  <Name>  (901) 
nan

>  <Pocket>  (901) 
nan

>  <ATP_Site>  (901) 
nan

>  <Peripheral>  (901) 
nan

>  <Num_H_Atoms_ProtBoundConf>  (901) 
nan

>  <Num_Resolved_Atoms>  (901) 
nan

>  <Num_Not_Resolved_Atoms>  (901) 
nan

$$$$
CHEMBL3356005
     RDKit          3D

  0  0  0  0  0  0  0  0  0  0999 V3000
M  V30 BEGIN CTAB
M  V30 COUNTS 78 83 0 0 0
M  V30 BEGIN ATOM
M  V30 1 C 3.606014 3.391401 6.307400 0
M  V30 2 O 3.585734 2.818539 5.030234 0
M  V30 3 C 3.561003 1.439677 4.843533 0
M  V30 4 C 3.554389 0.520548 5.892859 0
M  V30 5 C 3.529266 -0.825096 5.612677 0
M  V30 6 C 3.511459 -1.220477 4.312586 0
M  V30 7 C 3.516695 -0.362418 3.217491 0
M  V30 8 C 3.542194 0.982924 3.542891 0
M  V30 9 S 3.553302 2.099382 2.171178 0
M  V30 10 O 4.873206 2.854166 2.240962 0
M  V30 11 O 2.468325 3.123591 2.312308 0
M  V30 12 N 3.508677 1.276151 0.665703 0
M  V30 13 C 2.362872 0.465392 0.402665 0
M  V30 14 C 1.210157 0.556624 1.155477 0
M  V30 15 C 0.064113 -0.183355 0.962277 0
M  V30 16 C -1.152423 -0.067081 1.778032 0
M  V30 17 C 0.080761 -1.102418 -0.088838 0
M  V30 18 O -1.054248 -1.895049 -0.347862 0
M  V30 19 C -1.193821 -3.131485 0.315867 0
M  V30 20 N -0.177901 -3.429851 1.175432 0
M  V30 21 C -0.155943 -4.578684 1.893752 0
M  V30 22 C -1.224379 -5.431243 1.704401 0
M  V30 23 C -2.225657 -5.095646 0.831531 0
M  V30 24 C -2.263138 -3.935922 0.095796 0
M  V30 25 C -3.323567 -3.577710 -0.833666 0
M  V30 26 C -4.368486 -4.474437 -0.954066 0
M  V30 27 C -5.421718 -4.229064 -1.807201 0
M  V30 28 N -5.369027 -3.080844 -2.503902 0
M  V30 29 C -4.346812 -2.210144 -2.382090 0
M  V30 30 N -4.416506 -1.022271 -3.190013 0
M  V30 31 C -3.428538 0.033837 -3.211525 0 CFG=1
M  V30 32 C -3.249144 0.687511 -1.855621 0
M  V30 33 C -2.060088 1.600881 -1.853457 0
M  V30 34 C -1.541496 1.885053 -3.239397 0 CFG=2
M  V30 35 N -2.413532 2.768514 -3.992029 0
M  V30 36 C -1.205637 0.667620 -4.038385 0
M  V30 37 C -2.092336 -0.486810 -3.676890 0
M  V30 38 N -3.326612 -2.445908 -1.556449 0
M  V30 39 C 1.198087 -1.248877 -0.884323 0
M  V30 40 C 1.172625 -2.162847 -1.905657 0
M  V30 41 C 2.280091 -2.326477 -2.714059 0
M  V30 42 C 3.419332 -1.554321 -2.480108 0
M  V30 43 C 3.370891 -0.655716 -1.434978 0
M  V30 44 C 2.297297 -0.463155 -0.612896 0
M  V30 45 H 2.971335 2.819628 7.024058 0
M  V30 46 H 4.627233 3.410545 6.754359 0
M  V30 47 H 3.222569 4.421750 6.264065 0
M  V30 48 H 3.569007 0.877742 6.890875 0
M  V30 49 H 3.524815 -1.506382 6.449054 0
M  V30 50 H 3.491050 -2.303303 4.169776 0
M  V30 51 H 3.503071 -0.817911 2.240772 0
M  V30 52 H 4.278753 1.378782 -0.000101 0
M  V30 53 H 1.135599 1.248083 1.982454 0
M  V30 54 H -1.094866 -0.506143 2.779103 0
M  V30 55 H -1.342709 1.036767 1.909173 0
M  V30 56 H -2.034456 -0.431475 1.217348 0
M  V30 57 H 0.691741 -4.724136 2.548441 0
M  V30 58 H -1.212921 -6.340636 2.268867 0
M  V30 59 H -3.009618 -5.826171 0.756992 0
M  V30 60 H -4.527279 -5.426766 -0.452122 0
M  V30 61 H -6.291438 -4.842093 -1.991773 0
M  V30 62 H -5.255816 -0.896160 -3.828958 0
M  V30 63 H -3.744805 0.814229 -3.939966 0
M  V30 64 H -4.144358 1.272552 -1.571040 0
M  V30 65 H -3.070355 -0.106643 -1.086719 0
M  V30 66 H -1.225811 1.209803 -1.225838 0
M  V30 67 H -2.352384 2.585099 -1.411139 0
M  V30 68 H -0.580384 2.466876 -3.119016 0
M  V30 69 H -2.780974 3.505301 -3.351068 0
M  V30 70 H -1.833434 3.223026 -4.728916 0
M  V30 71 H -0.151328 0.327436 -3.880497 0
M  V30 72 H -1.314064 0.863525 -5.126552 0
M  V30 73 H -2.287745 -1.099757 -4.605164 0
M  V30 74 H -1.675481 -1.138370 -2.902478 0
M  V30 75 H 0.315792 -2.786617 -2.130694 0
M  V30 76 H 2.301158 -3.046492 -3.543540 0
M  V30 77 H 4.289075 -1.688848 -3.121253 0
M  V30 78 H 4.288403 -0.098213 -1.318229 0
M  V30 END ATOM
M  V30 BEGIN BOND
M  V30 1 1 1 2
M  V30 2 1 2 3
M  V30 3 2 3 4
M  V30 4 1 4 5
M  V30 5 2 5 6
M  V30 6 1 6 7
M  V30 7 2 7 8
M  V30 8 1 8 9
M  V30 9 2 9 10
M  V30 10 2 9 11
M  V30 11 1 9 12
M  V30 12 1 12 13
M  V30 13 2 13 14
M  V30 14 1 14 15
M  V30 15 1 15 16
M  V30 16 2 15 17
M  V30 17 1 17 18
M  V30 18 1 18 19
M  V30 19 2 19 20
M  V30 20 1 20 21
M  V30 21 2 21 22
M  V30 22 1 22 23
M  V30 23 2 23 24
M  V30 24 1 24 25
M  V30 25 2 25 26
M  V30 26 1 26 27
M  V30 27 2 27 28
M  V30 28 1 28 29
M  V30 29 1 29 30
M  V30 30 1 30 31
M  V30 31 1 31 32
M  V30 32 1 32 33
M  V30 33 1 33 34
M  V30 34 1 34 35
M  V30 35 1 34 36
M  V30 36 1 36 37
M  V30 37 2 29 38
M  V30 38 1 17 39
M  V30 39 2 39 40
M  V30 40 1 40 41
M  V30 41 2 41 42
M  V30 42 1 42 43
M  V30 43 2 43 44
M  V30 44 1 8 3
M  V30 45 1 44 13
M  V30 46 1 24 19
M  V30 47 1 38 25
M  V30 48 1 44 39
M  V30 49 1 37 31
M  V30 50 1 1 45
M  V30 51 1 1 46
M  V30 52 1 1 47
M  V30 53 1 4 48
M  V30 54 1 5 49
M  V30 55 1 6 50
M  V30 56 1 7 51
M  V30 57 1 12 52
M  V30 58 1 14 53
M  V30 59 1 16 54
M  V30 60 1 16 55
M  V30 61 1 16 56
M  V30 62 1 21 57
M  V30 63 1 22 58
M  V30 64 1 23 59
M  V30 65 1 26 60
M  V30 66 1 27 61
M  V30 67 1 30 62
M  V30 68 1 31 63 CFG=3
M  V30 69 1 32 64
M  V30 70 1 32 65
M  V30 71 1 33 66
M  V30 72 1 33 67
M  V30 73 1 34 68 CFG=1
M  V30 74 1 35 69
M  V30 75 1 35 70
M  V30 76 1 36 71
M  V30 77 1 36 72
M  V30 78 1 37 73
M  V30 79 1 37 74
M  V30 80 1 40 75
M  V30 81 1 41 76
M  V30 82 1 42 77
M  V30 83 1 43 78
M  V30 END BOND
M  V30 END CTAB
M  END
>  <Dataset>  (902) 
ChEMBL_Kinases

>  <Ligand_Instance>  (902) 
nan

>  <PDB_ID>  (902) 
nan

>  <Standardized_SMILES>  (902) 
COc1ccccc1S(=O)(=O)Nc1cc(C)c(Oc2ncccc2-c2ccnc(N[C@H]3CC[C@H](N)CC3)n2)c2ccccc12

>  <Name>  (902) 
nan

>  <Pocket>  (902) 
nan

>  <ATP_Site>  (902) 
nan

>  <Peripheral>  (902) 
nan

>  <Num_H_Atoms_ProtBoundConf>  (902) 
nan

>  <Num_Resolved_Atoms>  (902) 
nan

>  <Num_Not_Resolved_Atoms>  (902) 
nan

$$$$
CHEMBL3356004
     RDKit          3D

  0  0  0  0  0  0  0  0  0  0999 V3000
M  V30 BEGIN CTAB
M  V30 COUNTS 74 79 0 0 0
M  V30 BEGIN ATOM
M  V30 1 C -0.321548 -2.933221 1.895514 0
M  V30 2 C 0.712652 -2.097159 1.255617 0
M  V30 3 C 1.975892 -1.966341 1.778758 0
M  V30 4 C 2.998376 -1.210101 1.247949 0
M  V30 5 N 4.270816 -1.088867 1.812135 0
M  V30 6 S 4.928458 -2.260362 2.919011 0
M  V30 7 O 4.021338 -2.408251 4.106364 0
M  V30 8 O 6.295300 -1.884472 3.394788 0
M  V30 9 C 5.055504 -3.819551 2.106446 0
M  V30 10 C 4.124450 -4.835993 2.085461 0
M  V30 11 C 4.404919 -5.987381 1.385150 0
M  V30 12 C 5.582397 -6.202399 0.684295 0
M  V30 13 C 6.521099 -5.193270 0.697798 0
M  V30 14 C 6.228864 -4.044488 1.402795 0
M  V30 15 C 2.627145 -0.559516 0.083422 0
M  V30 16 C 3.517954 0.244392 -0.594839 0
M  V30 17 C 3.253864 0.933807 -1.759172 0
M  V30 18 C 1.993616 0.821008 -2.306890 0
M  V30 19 C 1.054316 0.019937 -1.660225 0
M  V30 20 C 1.379386 -0.645531 -0.496791 0
M  V30 21 C 0.403942 -1.418163 0.084791 0
M  V30 22 O -0.847337 -1.530828 -0.458220 0
M  V30 23 C -1.220663 -2.507100 -1.373256 0
M  V30 24 N -0.290385 -3.387061 -1.736293 0
M  V30 25 C -0.548393 -4.385339 -2.626144 0
M  V30 26 C -1.833198 -4.439697 -3.137097 0
M  V30 27 C -2.803414 -3.514116 -2.752727 0
M  V30 28 C -2.513601 -2.515173 -1.850613 0
M  V30 29 C -3.471679 -1.516025 -1.400803 0
M  V30 30 C -4.775926 -1.508596 -1.843493 0
M  V30 31 C -5.623298 -0.529648 -1.368629 0
M  V30 32 N -5.217749 0.391925 -0.507753 0
M  V30 33 C -3.964493 0.392634 -0.077002 0
M  V30 34 N -3.482607 1.358563 0.844948 0
M  V30 35 C -4.229754 2.428749 1.428480 0 CFG=1
M  V30 36 C -3.417887 3.274521 2.397649 0
M  V30 37 C -2.537433 4.241779 1.673052 0
M  V30 38 C -2.535768 4.106582 0.184658 0 CFG=2
M  V30 39 N -1.856196 5.296126 -0.347460 0
M  V30 40 C -3.937564 4.155381 -0.354795 0
M  V30 41 C -4.912847 3.331018 0.414408 0
M  V30 42 N -3.127351 -0.553933 -0.529937 0
M  V30 43 H -0.509538 -2.579243 2.928933 0
M  V30 44 H -1.271191 -2.865508 1.346320 0
M  V30 45 H 0.015223 -3.999774 2.015836 0
M  V30 46 H 2.141924 -2.520421 2.690746 0
M  V30 47 H 4.905788 -0.295933 1.613546 0
M  V30 48 H 3.231380 -4.636230 2.636525 0
M  V30 49 H 3.621286 -6.750973 1.411205 0
M  V30 50 H 5.719687 -7.143720 0.157474 0
M  V30 51 H 7.451068 -5.322630 0.162614 0
M  V30 52 H 7.019870 -3.283456 1.372256 0
M  V30 53 H 4.523901 0.379576 -0.227096 0
M  V30 54 H 3.987374 1.550072 -2.251112 0
M  V30 55 H 1.672811 1.307681 -3.204330 0
M  V30 56 H 0.063096 -0.075008 -2.082652 0
M  V30 57 H 0.183647 -5.125662 -2.950804 0
M  V30 58 H -2.115093 -5.207891 -3.851514 0
M  V30 59 H -3.794897 -3.587820 -3.171977 0
M  V30 60 H -5.155913 -2.226845 -2.535754 0
M  V30 61 H -6.651944 -0.481890 -1.684967 0
M  V30 62 H -2.466661 1.312676 1.156043 0
M  V30 63 H -5.062729 1.974040 2.011390 0
M  V30 64 H -4.144452 3.798735 3.083904 0
M  V30 65 H -2.796494 2.598306 3.003965 0
M  V30 66 H -2.915068 5.282919 1.895423 0
M  V30 67 H -1.498938 4.252931 2.072757 0
M  V30 68 H -1.964953 3.233919 -0.191927 0
M  V30 69 H -1.127160 5.628236 0.344623 0
M  V30 70 H -1.384889 5.078470 -1.259049 0
M  V30 71 H -4.247614 5.236235 -0.348479 0
M  V30 72 H -3.946485 3.873849 -1.436276 0
M  V30 73 H -5.545678 2.706924 -0.224615 0
M  V30 74 H -5.582346 4.019387 1.007107 0
M  V30 END ATOM
M  V30 BEGIN BOND
M  V30 1 1 1 2
M  V30 2 2 2 3
M  V30 3 1 3 4
M  V30 4 1 4 5
M  V30 5 1 5 6
M  V30 6 2 6 7
M  V30 7 2 6 8
M  V30 8 1 6 9
M  V30 9 2 9 10
M  V30 10 1 10 11
M  V30 11 2 11 12
M  V30 12 1 12 13
M  V30 13 2 13 14
M  V30 14 2 4 15
M  V30 15 1 15 16
M  V30 16 2 16 17
M  V30 17 1 17 18
M  V30 18 2 18 19
M  V30 19 1 19 20
M  V30 20 2 20 21
M  V30 21 1 21 22
M  V30 22 1 22 23
M  V30 23 2 23 24
M  V30 24 1 24 25
M  V30 25 2 25 26
M  V30 26 1 26 27
M  V30 27 2 27 28
M  V30 28 1 28 29
M  V30 29 2 29 30
M  V30 30 1 30 31
M  V30 31 2 31 32
M  V30 32 1 32 33
M  V30 33 1 33 34
M  V30 34 1 34 35
M  V30 35 1 35 36
M  V30 36 1 36 37
M  V30 37 1 37 38
M  V30 38 1 38 39
M  V30 39 1 38 40
M  V30 40 1 40 41
M  V30 41 2 33 42
M  V30 42 1 21 2
M  V30 43 1 28 23
M  V30 44 1 42 29
M  V30 45 1 14 9
M  V30 46 1 20 15
M  V30 47 1 41 35
M  V30 48 1 1 43
M  V30 49 1 1 44
M  V30 50 1 1 45
M  V30 51 1 3 46
M  V30 52 1 5 47
M  V30 53 1 10 48
M  V30 54 1 11 49
M  V30 55 1 12 50
M  V30 56 1 13 51
M  V30 57 1 14 52
M  V30 58 1 16 53
M  V30 59 1 17 54
M  V30 60 1 18 55
M  V30 61 1 19 56
M  V30 62 1 25 57
M  V30 63 1 26 58
M  V30 64 1 27 59
M  V30 65 1 30 60
M  V30 66 1 31 61
M  V30 67 1 34 62
M  V30 68 1 35 63 CFG=1
M  V30 69 1 36 64
M  V30 70 1 36 65
M  V30 71 1 37 66
M  V30 72 1 37 67
M  V30 73 1 38 68 CFG=1
M  V30 74 1 39 69
M  V30 75 1 39 70
M  V30 76 1 40 71
M  V30 77 1 40 72
M  V30 78 1 41 73
M  V30 79 1 41 74
M  V30 END BOND
M  V30 END CTAB
M  END
>  <Dataset>  (903) 
ChEMBL_Kinases

>  <Ligand_Instance>  (903) 
nan

>  <PDB_ID>  (903) 
nan

>  <Standardized_SMILES>  (903) 
Cc1cc(NS(=O)(=O)c2ccccc2)c2ccccc2c1Oc1ncccc1-c1ccnc(N[C@H]2CC[C@H](N)CC2)n1

>  <Name>  (903) 
nan

>  <Pocket>  (903) 
nan

>  <ATP_Site>  (903) 
nan

>  <Peripheral>  (903) 
nan

>  <Num_H_Atoms_ProtBoundConf>  (903) 
nan

>  <Num_Resolved_Atoms>  (903) 
nan

>  <Num_Not_Resolved_Atoms>  (903) 
nan

$$$$
CHEMBL3356003
     RDKit          3D

  0  0  0  0  0  0  0  0  0  0999 V3000
M  V30 BEGIN CTAB
M  V30 COUNTS 73 79 0 0 0
M  V30 BEGIN ATOM
M  V30 1 C -0.968319 -0.778462 3.228746 0
M  V30 2 C 0.093410 -1.207136 2.282827 0
M  V30 3 C 1.432483 -0.896334 2.388590 0
M  V30 4 C 2.354892 -1.344307 1.451255 0
M  V30 5 N 3.668569 -0.912684 1.746627 0
M  V30 6 C 4.656611 -0.112823 1.068649 0
M  V30 7 N 5.701282 -0.170554 0.224911 0
M  V30 8 C 6.130964 1.082309 0.056455 0
M  V30 9 C 7.192852 1.489685 -0.736194 0
M  V30 10 C 7.504803 2.850735 -0.795569 0
M  V30 11 C 6.730422 3.690396 -0.058614 0
M  V30 12 C 5.668760 3.271936 0.732346 0
M  V30 13 C 5.348791 1.927474 0.800363 0
M  V30 14 O 4.480164 1.157056 1.387521 0
M  V30 15 C 1.907499 -2.111285 0.404227 0
M  V30 16 C 2.886405 -2.510172 -0.473665 0
M  V30 17 C 2.512047 -3.286849 -1.555976 0
M  V30 18 C 1.198337 -3.628454 -1.715909 0
M  V30 19 C 0.213231 -3.219954 -0.821523 0
M  V30 20 C 0.581747 -2.441494 0.265083 0
M  V30 21 C -0.317752 -1.980414 1.216049 0
M  V30 22 O -1.652708 -2.328437 1.052917 0
M  V30 23 C -2.175475 -3.501832 1.602683 0
M  V30 24 N -1.297151 -4.233154 2.276484 0
M  V30 25 C -1.680998 -5.375126 2.845567 0
M  V30 26 C -3.009823 -5.769766 2.712971 0
M  V30 27 C -3.876017 -4.970727 2.002489 0
M  V30 28 C -3.507121 -3.804287 1.414987 0
M  V30 29 C -4.428624 -2.965204 0.666386 0
M  V30 30 C -5.734151 -3.381345 0.541659 0
M  V30 31 C -6.646847 -2.622795 -0.157013 0
M  V30 32 N -6.257576 -1.469121 -0.719589 0
M  V30 33 C -4.967834 -1.030093 -0.612671 0
M  V30 34 N -4.583977 0.196470 -1.216267 0
M  V30 35 C -3.286830 0.814482 -1.210730 0 CFG=1
M  V30 36 C -2.207273 -0.023350 -1.855378 0
M  V30 37 C -0.867221 0.595459 -1.655704 0
M  V30 38 C -0.895698 2.049289 -1.260605 0 CFG=2
M  V30 39 N -0.942720 2.232842 0.196600 0
M  V30 40 C -1.992386 2.822008 -1.910336 0
M  V30 41 C -3.316867 2.140280 -1.900659 0
M  V30 42 N -4.106338 -1.800898 0.078584 0
M  V30 43 H -0.565401 -0.219268 4.087934 0
M  V30 44 H -1.759045 -0.174704 2.748371 0
M  V30 45 H -1.495927 -1.712928 3.572404 0
M  V30 46 H 1.655968 -0.284894 3.259846 0
M  V30 47 H 4.059626 -1.228856 2.676290 0
M  V30 48 H 7.777202 0.798962 -1.300510 0
M  V30 49 H 8.311037 3.244772 -1.385590 0
M  V30 50 H 6.908626 4.769435 -0.050564 0
M  V30 51 H 5.054043 3.945905 1.318314 0
M  V30 52 H 3.923715 -2.246078 -0.354648 0
M  V30 53 H 3.274539 -3.611821 -2.261384 0
M  V30 54 H 0.891957 -4.233647 -2.555501 0
M  V30 55 H -0.848845 -3.465369 -0.903962 0
M  V30 56 H -0.978100 -5.993586 3.404563 0
M  V30 57 H -3.289957 -6.700669 3.185719 0
M  V30 58 H -4.861321 -5.363706 1.963538 0
M  V30 59 H -6.180961 -4.279147 0.939031 0
M  V30 60 H -7.701112 -2.855574 -0.317790 0
M  V30 61 H -5.353046 0.718615 -1.735384 0
M  V30 62 H -3.025106 1.002983 -0.146137 0
M  V30 63 H -2.275429 -1.090300 -1.532556 0
M  V30 64 H -2.419865 0.011190 -2.961834 0
M  V30 65 H -0.190869 0.445756 -2.546033 0
M  V30 66 H -0.353251 0.065310 -0.828970 0
M  V30 67 H 0.075155 2.478887 -1.584453 0
M  V30 68 H 0.003765 2.156425 0.623308 0
M  V30 69 H -1.399450 3.173653 0.395360 0
M  V30 70 H -1.692993 3.176623 -2.940195 0
M  V30 71 H -2.113588 3.782885 -1.340750 0
M  V30 72 H -4.134426 2.765296 -1.484552 0
M  V30 73 H -3.599769 1.974856 -2.969313 0
M  V30 END ATOM
M  V30 BEGIN BOND
M  V30 1 1 1 2
M  V30 2 2 2 3
M  V30 3 1 3 4
M  V30 4 1 4 5
M  V30 5 1 5 6
M  V30 6 2 6 7
M  V30 7 1 7 8
M  V30 8 2 8 9
M  V30 9 1 9 10
M  V30 10 2 10 11
M  V30 11 1 11 12
M  V30 12 2 12 13
M  V30 13 1 13 14
M  V30 14 2 4 15
M  V30 15 1 15 16
M  V30 16 2 16 17
M  V30 17 1 17 18
M  V30 18 2 18 19
M  V30 19 1 19 20
M  V30 20 2 20 21
M  V30 21 1 21 22
M  V30 22 1 22 23
M  V30 23 2 23 24
M  V30 24 1 24 25
M  V30 25 2 25 26
M  V30 26 1 26 27
M  V30 27 2 27 28
M  V30 28 1 28 29
M  V30 29 2 29 30
M  V30 30 1 30 31
M  V30 31 2 31 32
M  V30 32 1 32 33
M  V30 33 1 33 34
M  V30 34 1 34 35
M  V30 35 1 35 36
M  V30 36 1 36 37
M  V30 37 1 37 38
M  V30 38 1 38 39
M  V30 39 1 38 40
M  V30 40 1 40 41
M  V30 41 2 33 42
M  V30 42 1 21 2
M  V30 43 1 28 23
M  V30 44 1 42 29
M  V30 45 1 14 6
M  V30 46 1 20 15
M  V30 47 1 41 35
M  V30 48 1 13 8
M  V30 49 1 1 43
M  V30 50 1 1 44
M  V30 51 1 1 45
M  V30 52 1 3 46
M  V30 53 1 5 47
M  V30 54 1 9 48
M  V30 55 1 10 49
M  V30 56 1 11 50
M  V30 57 1 12 51
M  V30 58 1 16 52
M  V30 59 1 17 53
M  V30 60 1 18 54
M  V30 61 1 19 55
M  V30 62 1 25 56
M  V30 63 1 26 57
M  V30 64 1 27 58
M  V30 65 1 30 59
M  V30 66 1 31 60
M  V30 67 1 34 61
M  V30 68 1 35 62 CFG=1
M  V30 69 1 36 63
M  V30 70 1 36 64
M  V30 71 1 37 65
M  V30 72 1 37 66
M  V30 73 1 38 67 CFG=3
M  V30 74 1 39 68
M  V30 75 1 39 69
M  V30 76 1 40 70
M  V30 77 1 40 71
M  V30 78 1 41 72
M  V30 79 1 41 73
M  V30 END BOND
M  V30 END CTAB
M  END
>  <Dataset>  (904) 
ChEMBL_Kinases

>  <Ligand_Instance>  (904) 
nan

>  <PDB_ID>  (904) 
nan

>  <Standardized_SMILES>  (904) 
Cc1cc(Nc2nc3ccccc3o2)c2ccccc2c1Oc1ncccc1-c1ccnc(N[C@H]2CC[C@H](N)CC2)n1

>  <Name>  (904) 
nan

>  <Pocket>  (904) 
nan

>  <ATP_Site>  (904) 
nan

>  <Peripheral>  (904) 
nan

>  <Num_H_Atoms_ProtBoundConf>  (904) 
nan

>  <Num_Resolved_Atoms>  (904) 
nan

>  <Num_Not_Resolved_Atoms>  (904) 
nan

$$$$
CHEMBL3356002
     RDKit          3D

  0  0  0  0  0  0  0  0  0  0999 V3000
M  V30 BEGIN CTAB
M  V30 COUNTS 71 77 0 0 0
M  V30 BEGIN ATOM
M  V30 1 C 0.163403 -0.661161 2.832469 0
M  V30 2 C 0.789305 -1.015440 1.543118 0
M  V30 3 C 2.063917 -0.659594 1.160952 0
M  V30 4 C 2.689684 -0.954628 -0.004805 0
M  V30 5 N 3.996766 -0.574673 -0.363369 0
M  V30 6 C 4.903499 0.187215 0.422502 0
M  V30 7 N 4.700174 0.690873 1.638958 0
M  V30 8 C 5.747154 1.360343 2.112803 0
M  V30 9 C 6.053788 2.050731 3.271138 0
M  V30 10 C 7.291341 2.660928 3.456458 0
M  V30 11 C 8.208757 2.539497 2.409783 0
M  V30 12 C 7.936928 1.860677 1.245029 0
M  V30 13 C 6.687383 1.282206 1.135823 0
M  V30 14 N 6.155184 0.572672 0.132739 0
M  V30 15 C 1.931170 -1.697371 -0.882749 0
M  V30 16 C 2.361858 -2.111437 -2.122372 0
M  V30 17 C 1.609016 -2.855311 -3.005405 0
M  V30 18 C 0.343663 -3.230941 -2.672606 0
M  V30 19 C -0.135216 -2.840838 -1.440161 0
M  V30 20 C 0.644390 -2.094850 -0.576197 0
M  V30 21 C 0.042861 -1.769087 0.631855 0
M  V30 22 O -1.250363 -2.180365 0.914849 0
M  V30 23 C -1.596108 -3.365724 1.522878 0
M  V30 24 N -0.625498 -4.234969 1.897082 0
M  V30 25 C -0.942479 -5.402201 2.493761 0
M  V30 26 C -2.278852 -5.714474 2.726139 0
M  V30 27 C -3.245210 -4.809549 2.334151 0
M  V30 28 C -2.949068 -3.602342 1.718838 0
M  V30 29 C -3.921724 -2.617738 1.285304 0
M  V30 30 C -5.273114 -2.808107 1.438342 0
M  V30 31 C -6.210005 -1.889722 1.033126 0
M  V30 32 N -5.748455 -0.754922 0.460279 0
M  V30 33 C -4.408948 -0.551096 0.301472 0
M  V30 34 N -3.992299 0.656141 -0.301784 0
M  V30 35 C -4.954710 1.638603 -0.736697 0 CFG=1
M  V30 36 C -4.210846 2.842010 -1.333216 0
M  V30 37 C -3.225907 2.399174 -2.379620 0
M  V30 38 C -3.554169 1.117831 -3.047570 0
M  V30 39 N -4.803416 0.518558 -2.829881 0
M  V30 40 C -5.732787 1.126737 -1.956839 0
M  V30 41 N -3.509333 -1.466555 0.706678 0
M  V30 42 H -0.449518 0.254823 2.737012 0
M  V30 43 H 0.948208 -0.440934 3.593888 0
M  V30 44 H -0.486858 -1.465639 3.216972 0
M  V30 45 H 2.551838 -0.082720 1.930855 0
M  V30 46 H 4.406072 -0.834147 -1.263785 0
M  V30 47 H 5.297286 2.106707 4.044835 0
M  V30 48 H 7.541295 3.209866 4.372432 0
M  V30 49 H 9.189713 3.006503 2.521063 0
M  V30 50 H 8.684573 1.804760 0.482489 0
M  V30 51 H 6.666988 0.349911 -0.771839 0
M  V30 52 H 3.334755 -1.865968 -2.466418 0
M  V30 53 H 1.983950 -3.164181 -3.977002 0
M  V30 54 H -0.266989 -3.810772 -3.341221 0
M  V30 55 H -1.146376 -3.151694 -1.197013 0
M  V30 56 H -0.174578 -6.099745 2.794583 0
M  V30 57 H -2.604686 -6.636091 3.201216 0
M  V30 58 H -4.287234 -5.039299 2.508629 0
M  V30 59 H -5.680995 -3.700090 1.890440 0
M  V30 60 H -7.284485 -1.982872 1.126028 0
M  V30 61 H -2.955062 0.836604 -0.434414 0
M  V30 62 H -5.631404 2.004018 0.041991 0
M  V30 63 H -5.016680 3.436341 -1.825772 0
M  V30 64 H -3.766026 3.481971 -0.558257 0
M  V30 65 H -3.079614 3.222403 -3.110925 0
M  V30 66 H -2.250865 2.315482 -1.841145 0
M  V30 67 H -2.768213 0.346617 -2.799666 0
M  V30 68 H -3.432290 1.247517 -4.153169 0
M  V30 69 H -4.759215 -0.517095 -2.608042 0
M  V30 70 H -6.216627 2.004947 -2.436502 0
M  V30 71 H -6.461425 0.392246 -1.580917 0
M  V30 END ATOM
M  V30 BEGIN BOND
M  V30 1 1 1 2
M  V30 2 2 2 3
M  V30 3 1 3 4
M  V30 4 1 4 5
M  V30 5 1 5 6
M  V30 6 2 6 7
M  V30 7 1 7 8
M  V30 8 2 8 9
M  V30 9 1 9 10
M  V30 10 2 10 11
M  V30 11 1 11 12
M  V30 12 2 12 13
M  V30 13 1 13 14
M  V30 14 2 4 15
M  V30 15 1 15 16
M  V30 16 2 16 17
M  V30 17 1 17 18
M  V30 18 2 18 19
M  V30 19 1 19 20
M  V30 20 2 20 21
M  V30 21 1 21 22
M  V30 22 1 22 23
M  V30 23 2 23 24
M  V30 24 1 24 25
M  V30 25 2 25 26
M  V30 26 1 26 27
M  V30 27 2 27 28
M  V30 28 1 28 29
M  V30 29 2 29 30
M  V30 30 1 30 31
M  V30 31 2 31 32
M  V30 32 1 32 33
M  V30 33 1 33 34
M  V30 34 1 34 35
M  V30 35 1 35 36
M  V30 36 1 36 37
M  V30 37 1 37 38
M  V30 38 1 38 39
M  V30 39 1 39 40
M  V30 40 2 33 41
M  V30 41 1 21 2
M  V30 42 1 28 23
M  V30 43 1 41 29
M  V30 44 1 14 6
M  V30 45 1 20 15
M  V30 46 1 40 35
M  V30 47 1 13 8
M  V30 48 1 1 42
M  V30 49 1 1 43
M  V30 50 1 1 44
M  V30 51 1 3 45
M  V30 52 1 5 46
M  V30 53 1 9 47
M  V30 54 1 10 48
M  V30 55 1 11 49
M  V30 56 1 12 50
M  V30 57 1 14 51
M  V30 58 1 16 52
M  V30 59 1 17 53
M  V30 60 1 18 54
M  V30 61 1 19 55
M  V30 62 1 25 56
M  V30 63 1 26 57
M  V30 64 1 27 58
M  V30 65 1 30 59
M  V30 66 1 31 60
M  V30 67 1 34 61
M  V30 68 1 35 62 CFG=1
M  V30 69 1 36 63
M  V30 70 1 36 64
M  V30 71 1 37 65
M  V30 72 1 37 66
M  V30 73 1 38 67
M  V30 74 1 38 68
M  V30 75 1 39 69
M  V30 76 1 40 70
M  V30 77 1 40 71
M  V30 END BOND
M  V30 END CTAB
M  END
>  <Dataset>  (905) 
ChEMBL_Kinases

>  <Ligand_Instance>  (905) 
nan

>  <PDB_ID>  (905) 
nan

>  <Standardized_SMILES>  (905) 
Cc1cc(Nc2nc3ccccc3[nH]2)c2ccccc2c1Oc1ncccc1-c1ccnc(N[C@H]2CCCNC2)n1

>  <Name>  (905) 
nan

>  <Pocket>  (905) 
nan

>  <ATP_Site>  (905) 
nan

>  <Peripheral>  (905) 
nan

>  <Num_H_Atoms_ProtBoundConf>  (905) 
nan

>  <Num_Resolved_Atoms>  (905) 
nan

>  <Num_Not_Resolved_Atoms>  (905) 
nan

$$$$
CHEMBL3356001
     RDKit          3D

  0  0  0  0  0  0  0  0  0  0999 V3000
M  V30 BEGIN CTAB
M  V30 COUNTS 74 80 0 0 0
M  V30 BEGIN ATOM
M  V30 1 C -2.794380 0.086321 1.916616 0
M  V30 2 C -2.995975 -0.011452 0.427319 0
M  V30 3 C -3.133161 1.154774 -0.339484 0
M  V30 4 C -3.319552 1.133748 -1.695378 0
M  V30 5 N -3.437212 2.301743 -2.483818 0
M  V30 6 C -3.411843 3.661003 -2.017311 0
M  V30 7 N -3.315514 4.081134 -0.749241 0
M  V30 8 C -3.316041 5.417155 -0.726050 0
M  V30 9 C -3.234623 6.299119 0.320110 0
M  V30 10 C -3.247291 7.663965 0.171535 0
M  V30 11 C -3.347475 8.164485 -1.115404 0
M  V30 12 C -3.428091 7.234072 -2.156573 0
M  V30 13 C -3.416392 5.868920 -2.019775 0
M  V30 14 N -3.472601 4.771375 -2.777445 0
M  V30 15 C -3.374736 -0.081575 -2.336875 0
M  V30 16 C -3.558597 -0.277227 -3.692167 0
M  V30 17 C -3.601220 -1.531073 -4.234529 0
M  V30 18 C -3.471027 -2.684155 -3.521737 0
M  V30 19 C -3.282740 -2.506257 -2.140847 0
M  V30 20 C -3.242370 -1.233161 -1.607854 0
M  V30 21 C -3.053913 -1.247603 -0.246448 0
M  V30 22 O -2.914285 -2.275532 0.508388 0
M  V30 23 C -2.661405 -3.281373 1.236981 0
M  V30 24 N -3.797895 -3.853951 1.739603 0
M  V30 25 C -3.791333 -4.929934 2.546528 0
M  V30 26 C -2.573981 -5.477586 2.880016 0
M  V30 27 C -1.424184 -4.909980 2.379838 0
M  V30 28 C -1.400089 -3.788048 1.534224 0
M  V30 29 C -0.136486 -3.269490 1.108625 0
M  V30 30 C 0.166469 -2.516585 0.007811 0
M  V30 31 C 1.414588 -2.077113 -0.366637 0
M  V30 32 N 2.404899 -2.453680 0.469202 0
M  V30 33 C 2.152154 -3.200122 1.570320 0
M  V30 34 N 3.267266 -3.534080 2.404791 0
M  V30 35 C 4.588289 -3.051012 1.972255 0 CFG=1
M  V30 36 C 5.559233 -3.359617 3.099396 0
M  V30 37 C 6.984129 -3.143472 2.676968 0
M  V30 38 C 7.122115 -2.457532 1.338753 0 CFG=2
M  V30 39 N 6.721810 -1.081100 1.444021 0
M  V30 40 C 6.340320 -3.176321 0.286835 0
M  V30 41 C 5.055912 -3.787339 0.734829 0
M  V30 42 N 0.913983 -3.593008 1.874006 0
M  V30 43 H -1.742244 0.169101 2.200335 0
M  V30 44 H -3.289995 1.049410 2.235786 0
M  V30 45 H -3.340725 -0.706306 2.460474 0
M  V30 46 H -3.081758 2.065511 0.225857 0
M  V30 47 H -3.556192 2.253013 -3.511989 0
M  V30 48 H -3.152739 5.882849 1.330318 0
M  V30 49 H -3.178459 8.322623 1.027045 0
M  V30 50 H -3.365727 9.217292 -1.344121 0
M  V30 51 H -3.507444 7.590214 -3.195120 0
M  V30 52 H -3.550613 4.811657 -3.810240 0
M  V30 53 H -3.670110 0.555726 -4.333676 0
M  V30 54 H -3.744248 -1.647977 -5.318896 0
M  V30 55 H -3.512521 -3.639549 -3.999326 0
M  V30 56 H -3.179099 -3.428199 -1.576519 0
M  V30 57 H -4.637927 -5.438239 2.982173 0
M  V30 58 H -2.487903 -6.343257 3.527189 0
M  V30 59 H -0.474563 -5.366552 2.659953 0
M  V30 60 H -0.604102 -2.242463 -0.663195 0
M  V30 61 H 1.576145 -1.475851 -1.262615 0
M  V30 62 H 3.117084 -4.102039 3.287715 0
M  V30 63 H 4.570995 -1.978403 1.761541 0
M  V30 64 H 5.455477 -4.408872 3.449371 0
M  V30 65 H 5.326664 -2.698234 3.975938 0
M  V30 66 H 7.529399 -4.122614 2.657824 0
M  V30 67 H 7.466389 -2.477573 3.439591 0
M  V30 68 H 8.228059 -2.456129 1.109587 0
M  V30 69 H 7.481583 -0.433567 1.741057 0
M  V30 70 H 6.275877 -0.728955 0.558331 0
M  V30 71 H 7.013168 -3.996975 -0.090701 0
M  V30 72 H 6.192106 -2.513290 -0.608956 0
M  V30 73 H 5.227443 -4.868915 0.945791 0
M  V30 74 H 4.315439 -3.707080 -0.090451 0
M  V30 END ATOM
M  V30 BEGIN BOND
M  V30 1 1 1 2
M  V30 2 2 2 3
M  V30 3 1 3 4
M  V30 4 1 4 5
M  V30 5 1 5 6
M  V30 6 2 6 7
M  V30 7 1 7 8
M  V30 8 2 8 9
M  V30 9 1 9 10
M  V30 10 2 10 11
M  V30 11 1 11 12
M  V30 12 2 12 13
M  V30 13 1 13 14
M  V30 14 2 4 15
M  V30 15 1 15 16
M  V30 16 2 16 17
M  V30 17 1 17 18
M  V30 18 2 18 19
M  V30 19 1 19 20
M  V30 20 2 20 21
M  V30 21 1 21 22
M  V30 22 1 22 23
M  V30 23 2 23 24
M  V30 24 1 24 25
M  V30 25 2 25 26
M  V30 26 1 26 27
M  V30 27 2 27 28
M  V30 28 1 28 29
M  V30 29 2 29 30
M  V30 30 1 30 31
M  V30 31 2 31 32
M  V30 32 1 32 33
M  V30 33 1 33 34
M  V30 34 1 34 35
M  V30 35 1 35 36
M  V30 36 1 36 37
M  V30 37 1 37 38
M  V30 38 1 38 39
M  V30 39 1 38 40
M  V30 40 1 40 41
M  V30 41 2 33 42
M  V30 42 1 21 2
M  V30 43 1 28 23
M  V30 44 1 42 29
M  V30 45 1 14 6
M  V30 46 1 20 15
M  V30 47 1 41 35
M  V30 48 1 13 8
M  V30 49 1 1 43
M  V30 50 1 1 44
M  V30 51 1 1 45
M  V30 52 1 3 46
M  V30 53 1 5 47
M  V30 54 1 9 48
M  V30 55 1 10 49
M  V30 56 1 11 50
M  V30 57 1 12 51
M  V30 58 1 14 52
M  V30 59 1 16 53
M  V30 60 1 17 54
M  V30 61 1 18 55
M  V30 62 1 19 56
M  V30 63 1 25 57
M  V30 64 1 26 58
M  V30 65 1 27 59
M  V30 66 1 30 60
M  V30 67 1 31 61
M  V30 68 1 34 62
M  V30 69 1 35 63 CFG=3
M  V30 70 1 36 64
M  V30 71 1 36 65
M  V30 72 1 37 66
M  V30 73 1 37 67
M  V30 74 1 38 68 CFG=3
M  V30 75 1 39 69
M  V30 76 1 39 70
M  V30 77 1 40 71
M  V30 78 1 40 72
M  V30 79 1 41 73
M  V30 80 1 41 74
M  V30 END BOND
M  V30 END CTAB
M  END
>  <Dataset>  (906) 
ChEMBL_Kinases

>  <Ligand_Instance>  (906) 
nan

>  <PDB_ID>  (906) 
nan

>  <Standardized_SMILES>  (906) 
Cc1cc(Nc2nc3ccccc3[nH]2)c2ccccc2c1Oc1ncccc1-c1ccnc(N[C@H]2CC[C@H](N)CC2)n1

>  <Name>  (906) 
nan

>  <Pocket>  (906) 
nan

>  <ATP_Site>  (906) 
nan

>  <Peripheral>  (906) 
nan

>  <Num_H_Atoms_ProtBoundConf>  (906) 
nan

>  <Num_Resolved_Atoms>  (906) 
nan

>  <Num_Not_Resolved_Atoms>  (906) 
nan

$$$$
CHEMBL3356000
     RDKit          3D

  0  0  0  0  0  0  0  0  0  0999 V3000
M  V30 BEGIN CTAB
M  V30 COUNTS 71 77 0 0 0
M  V30 BEGIN ATOM
M  V30 1 N 2.678709 -4.817980 0.839180 0
M  V30 2 C 1.418535 -4.247271 0.461436 0 CFG=1
M  V30 3 C 1.446317 -2.745363 0.654151 0
M  V30 4 C 2.532720 -2.166694 -0.186731 0
M  V30 5 C 2.232596 -2.457044 -1.634894 0 CFG=1
M  V30 6 N 3.223092 -1.928103 -2.547261 0
M  V30 7 C 3.530791 -0.547750 -2.750450 0
M  V30 8 N 4.510289 -0.185508 -3.631796 0
M  V30 9 C 4.793491 1.111607 -3.828190 0
M  V30 10 C 4.080973 2.058371 -3.128032 0
M  V30 11 C 3.088080 1.738097 -2.232701 0
M  V30 12 C 2.360835 2.781306 -1.528910 0
M  V30 13 C 2.664619 4.116394 -1.687181 0
M  V30 14 C 1.994409 5.133480 -1.041060 0
M  V30 15 C 0.966455 4.788148 -0.192806 0
M  V30 16 N 0.635074 3.501535 -0.007525 0
M  V30 17 C 1.307719 2.504757 -0.654341 0
M  V30 18 O 1.040931 1.143152 -0.534062 0
M  V30 19 C 0.032975 0.766621 0.340075 0
M  V30 20 C -1.072775 0.142063 -0.249168 0
M  V30 21 C -2.111691 -0.256509 0.566177 0
M  V30 22 C -2.172860 -0.100846 1.919005 0
M  V30 23 N -3.245383 -0.513426 2.741451 0
M  V30 24 C -4.439144 -1.159283 2.317619 0
M  V30 25 N -4.792492 -1.506400 1.077393 0
M  V30 26 C -5.986516 -2.101506 1.017643 0
M  V30 27 C -6.755854 -2.621691 0.001649 0
M  V30 28 C -7.995162 -3.188146 0.305903 0
M  V30 29 C -8.432601 -3.219467 1.618716 0
M  V30 30 C -7.641422 -2.691182 2.615868 0
M  V30 31 C -6.417510 -2.130772 2.322582 0
M  V30 32 N -5.470708 -1.559896 3.077546 0
M  V30 33 C -1.073986 0.513496 2.467814 0
M  V30 34 C -0.925006 0.757222 3.811899 0
M  V30 35 C 0.158017 1.357606 4.416835 0
M  V30 36 C 1.211122 1.762166 3.605451 0
M  V30 37 C 1.103758 1.537958 2.253601 0
M  V30 38 C -0.007716 0.932709 1.707113 0
M  V30 39 N 2.888134 0.435260 -2.112656 0
M  V30 40 C 2.004626 -3.902717 -1.913595 0
M  V30 41 C 1.016237 -4.526342 -0.952491 0
M  V30 42 H 3.263115 -4.213694 1.432544 0
M  V30 43 H 3.227540 -5.223059 0.071091 0
M  V30 44 H 0.644042 -4.657073 1.148442 0
M  V30 45 H 0.490536 -2.284810 0.390061 0
M  V30 46 H 1.616360 -2.536647 1.737040 0
M  V30 47 H 2.550737 -1.070936 -0.049713 0
M  V30 48 H 3.541055 -2.531479 0.103487 0
M  V30 49 H 1.255182 -1.937367 -1.844634 0
M  V30 50 H 3.782785 -2.623034 -3.127590 0
M  V30 51 H 5.573492 1.329080 -4.533312 0
M  V30 52 H 4.390241 3.060909 -3.363358 0
M  V30 53 H 3.451808 4.478387 -2.328759 0
M  V30 54 H 2.223827 6.174732 -1.158114 0
M  V30 55 H 0.373281 5.479431 0.363489 0
M  V30 56 H -1.091604 -0.017089 -1.339332 0
M  V30 57 H -2.917198 -0.726613 0.024606 0
M  V30 58 H -3.226465 -0.360786 3.767463 0
M  V30 59 H -6.390461 -2.585113 -1.020543 0
M  V30 60 H -8.596487 -3.597619 -0.508940 0
M  V30 61 H -9.404446 -3.666493 1.837079 0
M  V30 62 H -7.990963 -2.718447 3.648812 0
M  V30 63 H -5.567461 -1.463046 4.109745 0
M  V30 64 H -1.692575 0.475974 4.513063 0
M  V30 65 H 0.229093 1.528306 5.481653 0
M  V30 66 H 2.066586 2.233131 4.062398 0
M  V30 67 H 1.966840 1.866559 1.696593 0
M  V30 68 H 2.957237 -4.485982 -1.939189 0
M  V30 69 H 1.561665 -3.998949 -2.928979 0
M  V30 70 H 0.915859 -5.591206 -1.183003 0
M  V30 71 H 0.053976 -3.974551 -1.117755 0
M  V30 END ATOM
M  V30 BEGIN BOND
M  V30 1 1 1 2
M  V30 2 1 2 3
M  V30 3 1 3 4
M  V30 4 1 4 5
M  V30 5 1 5 6
M  V30 6 1 6 7
M  V30 7 2 7 8
M  V30 8 1 8 9
M  V30 9 2 9 10
M  V30 10 1 10 11
M  V30 11 1 11 12
M  V30 12 2 12 13
M  V30 13 1 13 14
M  V30 14 2 14 15
M  V30 15 1 15 16
M  V30 16 2 16 17
M  V30 17 1 17 18
M  V30 18 1 18 19
M  V30 19 2 19 20
M  V30 20 1 20 21
M  V30 21 2 21 22
M  V30 22 1 22 23
M  V30 23 1 23 24
M  V30 24 2 24 25
M  V30 25 1 25 26
M  V30 26 2 26 27
M  V30 27 1 27 28
M  V30 28 2 28 29
M  V30 29 1 29 30
M  V30 30 2 30 31
M  V30 31 1 31 32
M  V30 32 1 22 33
M  V30 33 2 33 34
M  V30 34 1 34 35
M  V30 35 2 35 36
M  V30 36 1 36 37
M  V30 37 2 37 38
M  V30 38 2 11 39
M  V30 39 1 5 40
M  V30 40 1 40 41
M  V30 41 1 41 2
M  V30 42 1 39 7
M  V30 43 1 17 12
M  V30 44 1 38 19
M  V30 45 1 32 24
M  V30 46 1 38 33
M  V30 47 1 31 26
M  V30 48 1 1 42
M  V30 49 1 1 43
M  V30 50 1 2 44 CFG=1
M  V30 51 1 3 45
M  V30 52 1 3 46
M  V30 53 1 4 47
M  V30 54 1 4 48
M  V30 55 1 5 49 CFG=3
M  V30 56 1 6 50
M  V30 57 1 9 51
M  V30 58 1 10 52
M  V30 59 1 13 53
M  V30 60 1 14 54
M  V30 61 1 15 55
M  V30 62 1 20 56
M  V30 63 1 21 57
M  V30 64 1 23 58
M  V30 65 1 27 59
M  V30 66 1 28 60
M  V30 67 1 29 61
M  V30 68 1 30 62
M  V30 69 1 32 63
M  V30 70 1 34 64
M  V30 71 1 35 65
M  V30 72 1 36 66
M  V30 73 1 37 67
M  V30 74 1 40 68
M  V30 75 1 40 69
M  V30 76 1 41 70
M  V30 77 1 41 71
M  V30 END BOND
M  V30 END CTAB
M  END
>  <Dataset>  (907) 
ChEMBL_Kinases

>  <Ligand_Instance>  (907) 
nan

>  <PDB_ID>  (907) 
nan

>  <Standardized_SMILES>  (907) 
N[C@H]1CC[C@@H](Nc2nccc(-c3cccnc3Oc3ccc(Nc4nc5ccccc5[nH]4)c4ccccc34)n2)CC1

>  <Name>  (907) 
nan

>  <Pocket>  (907) 
nan

>  <ATP_Site>  (907) 
nan

>  <Peripheral>  (907) 
nan

>  <Num_H_Atoms_ProtBoundConf>  (907) 
nan

>  <Num_Resolved_Atoms>  (907) 
nan

>  <Num_Not_Resolved_Atoms>  (907) 
nan

$$$$
CHEMBL3355999
     RDKit          3D

  0  0  0  0  0  0  0  0  0  0999 V3000
M  V30 BEGIN CTAB
M  V30 COUNTS 71 77 0 0 0
M  V30 BEGIN ATOM
M  V30 1 N 1.989967 -5.045125 0.455814 0
M  V30 2 C 1.219023 -3.811398 0.380117 0 CFG=1
M  V30 3 C 1.870447 -2.668877 1.088940 0
M  V30 4 C 3.056366 -2.118816 0.322723 0
M  V30 5 C 3.136470 -2.695495 -1.064553 0 CFG=2
M  V30 6 N 4.144837 -2.025718 -1.807370 0
M  V30 7 C 4.217145 -0.637636 -2.116671 0
M  V30 8 N 5.274061 -0.174277 -2.850125 0
M  V30 9 C 5.419422 1.112670 -3.182453 0
M  V30 10 C 4.452939 1.999092 -2.759638 0
M  V30 11 C 3.380256 1.554231 -2.020065 0
M  V30 12 C 2.406247 2.540456 -1.610951 0
M  V30 13 C 2.501640 3.881351 -1.911869 0
M  V30 14 C 1.601096 4.857712 -1.544361 0
M  V30 15 C 0.495916 4.486452 -0.808644 0
M  V30 16 N 0.356077 3.192373 -0.489412 0
M  V30 17 C 1.265212 2.244605 -0.867377 0
M  V30 18 O 1.114989 0.879721 -0.533301 0
M  V30 19 C 0.003025 0.577873 0.245455 0
M  V30 20 C -0.971815 -0.221217 -0.291835 0
M  V30 21 C -2.076587 -0.529003 0.461141 0
M  V30 22 C -2.314007 -0.101889 1.747414 0
M  V30 23 N -3.460223 -0.429740 2.505278 0
M  V30 24 C -4.555312 -1.240104 2.101431 0
M  V30 25 N -4.728778 -1.857872 0.927893 0
M  V30 26 C -5.870624 -2.549483 0.854540 0
M  V30 27 C -6.442387 -3.317566 -0.138419 0
M  V30 28 C -7.672390 -3.890515 0.172639 0
M  V30 29 C -8.279971 -3.696963 1.406768 0
M  V30 30 C -7.675881 -2.921461 2.374233 0
M  V30 31 C -6.457664 -2.347568 2.080737 0
M  V30 32 N -5.651112 -1.562130 2.805717 0
M  V30 33 C -1.333753 0.691308 2.267614 0
M  V30 34 C -1.368556 1.211586 3.537721 0
M  V30 35 C -0.407584 2.006598 4.125675 0
M  V30 36 C 0.723241 2.324926 3.366937 0
M  V30 37 C 0.793240 1.820699 2.086444 0
M  V30 38 C -0.203652 1.030424 1.553617 0
M  V30 39 N 3.301179 0.267008 -1.728256 0
M  V30 40 C 1.798891 -2.641295 -1.774658 0
M  V30 41 C 0.785008 -3.473510 -1.011363 0
M  V30 42 H 1.994851 -5.297325 1.480025 0
M  V30 43 H 1.357008 -5.775260 0.011988 0
M  V30 44 H 0.273818 -4.045547 0.956169 0
M  V30 45 H 2.193105 -3.041536 2.101176 0
M  V30 46 H 1.151858 -1.870213 1.262903 0
M  V30 47 H 3.971568 -2.450771 0.851846 0
M  V30 48 H 3.069276 -1.023268 0.334346 0
M  V30 49 H 3.385189 -3.780314 -0.990503 0
M  V30 50 H 4.941998 -2.618523 -2.180289 0
M  V30 51 H 6.303370 1.337169 -3.765037 0
M  V30 52 H 4.683126 2.999582 -3.089709 0
M  V30 53 H 3.321244 4.289466 -2.481406 0
M  V30 54 H 1.682433 5.891919 -1.781141 0
M  V30 55 H -0.301842 5.107415 -0.438771 0
M  V30 56 H -0.831906 -0.587910 -1.311335 0
M  V30 57 H -2.781672 -1.162206 -0.054023 0
M  V30 58 H -3.578117 -0.071660 3.471352 0
M  V30 59 H -5.953016 -3.456210 -1.093337 0
M  V30 60 H -8.147572 -4.502133 -0.592031 0
M  V30 61 H -9.244449 -4.172798 1.590460 0
M  V30 62 H -8.137130 -2.761343 3.341025 0
M  V30 63 H -5.873153 -1.260379 3.780500 0
M  V30 64 H -2.198234 1.018983 4.191876 0
M  V30 65 H -0.479820 2.393728 5.131780 0
M  V30 66 H 1.481121 2.944783 3.815476 0
M  V30 67 H 1.707074 2.105406 1.585314 0
M  V30 68 H 1.933429 -3.122377 -2.764760 0
M  V30 69 H 1.478866 -1.604246 -1.939282 0
M  V30 70 H 0.556487 -4.426345 -1.547848 0
M  V30 71 H -0.158038 -2.908943 -0.964696 0
M  V30 END ATOM
M  V30 BEGIN BOND
M  V30 1 1 1 2
M  V30 2 1 2 3
M  V30 3 1 3 4
M  V30 4 1 4 5
M  V30 5 1 5 6
M  V30 6 1 6 7
M  V30 7 2 7 8
M  V30 8 1 8 9
M  V30 9 2 9 10
M  V30 10 1 10 11
M  V30 11 1 11 12
M  V30 12 2 12 13
M  V30 13 1 13 14
M  V30 14 2 14 15
M  V30 15 1 15 16
M  V30 16 2 16 17
M  V30 17 1 17 18
M  V30 18 1 18 19
M  V30 19 2 19 20
M  V30 20 1 20 21
M  V30 21 2 21 22
M  V30 22 1 22 23
M  V30 23 1 23 24
M  V30 24 2 24 25
M  V30 25 1 25 26
M  V30 26 2 26 27
M  V30 27 1 27 28
M  V30 28 2 28 29
M  V30 29 1 29 30
M  V30 30 2 30 31
M  V30 31 1 31 32
M  V30 32 1 22 33
M  V30 33 2 33 34
M  V30 34 1 34 35
M  V30 35 2 35 36
M  V30 36 1 36 37
M  V30 37 2 37 38
M  V30 38 2 11 39
M  V30 39 1 5 40
M  V30 40 1 40 41
M  V30 41 1 41 2
M  V30 42 1 39 7
M  V30 43 1 17 12
M  V30 44 1 38 19
M  V30 45 1 32 24
M  V30 46 1 38 33
M  V30 47 1 31 26
M  V30 48 1 1 42
M  V30 49 1 1 43
M  V30 50 1 2 44 CFG=1
M  V30 51 1 3 45
M  V30 52 1 3 46
M  V30 53 1 4 47
M  V30 54 1 4 48
M  V30 55 1 5 49 CFG=1
M  V30 56 1 6 50
M  V30 57 1 9 51
M  V30 58 1 10 52
M  V30 59 1 13 53
M  V30 60 1 14 54
M  V30 61 1 15 55
M  V30 62 1 20 56
M  V30 63 1 21 57
M  V30 64 1 23 58
M  V30 65 1 27 59
M  V30 66 1 28 60
M  V30 67 1 29 61
M  V30 68 1 30 62
M  V30 69 1 32 63
M  V30 70 1 34 64
M  V30 71 1 35 65
M  V30 72 1 36 66
M  V30 73 1 37 67
M  V30 74 1 40 68
M  V30 75 1 40 69
M  V30 76 1 41 70
M  V30 77 1 41 71
M  V30 END BOND
M  V30 END CTAB
M  END
>  <Dataset>  (908) 
ChEMBL_Kinases

>  <Ligand_Instance>  (908) 
nan

>  <PDB_ID>  (908) 
nan

>  <Standardized_SMILES>  (908) 
N[C@H]1CC[C@H](Nc2nccc(-c3cccnc3Oc3ccc(Nc4nc5ccccc5[nH]4)c4ccccc34)n2)CC1

>  <Name>  (908) 
nan

>  <Pocket>  (908) 
nan

>  <ATP_Site>  (908) 
nan

>  <Peripheral>  (908) 
nan

>  <Num_H_Atoms_ProtBoundConf>  (908) 
nan

>  <Num_Resolved_Atoms>  (908) 
nan

>  <Num_Not_Resolved_Atoms>  (908) 
nan

$$$$
CHEMBL3355998
     RDKit          3D

  0  0  0  0  0  0  0  0  0  0999 V3000
M  V30 BEGIN CTAB
M  V30 COUNTS 68 74 0 0 0
M  V30 BEGIN ATOM
M  V30 1 C 5.310767 -2.524146 -0.975426 0
M  V30 2 C 4.647391 -1.441212 -1.505483 0
M  V30 3 N 3.371748 -1.290585 -1.162739 0
M  V30 4 C 2.668101 -2.084760 -0.355096 0
M  V30 5 O 1.350234 -1.853211 -0.064789 0
M  V30 6 C 0.572346 -0.795385 -0.484748 0
M  V30 7 C 0.980269 0.300109 -1.191313 0
M  V30 8 C 0.158161 1.319468 -1.584389 0
M  V30 9 C -1.175303 1.317715 -1.289879 0
M  V30 10 N -2.058125 2.355816 -1.676189 0
M  V30 11 C -1.719343 3.519793 -2.427806 0
M  V30 12 N -0.540841 3.893432 -2.934682 0
M  V30 13 C -0.584045 5.055129 -3.592427 0
M  V30 14 C 0.342316 5.823107 -4.263382 0
M  V30 15 C -0.025218 7.003482 -4.851592 0
M  V30 16 C -1.341455 7.375421 -4.739967 0
M  V30 17 C -2.290578 6.627248 -4.074543 0
M  V30 18 C -1.897243 5.442257 -3.490086 0
M  V30 19 N -2.540405 4.506813 -2.792369 0
M  V30 20 C -1.629521 0.233997 -0.580340 0
M  V30 21 C -2.958797 0.105799 -0.240246 0
M  V30 22 C -3.509736 -0.952536 0.450932 0
M  V30 23 C -2.643907 -1.975112 0.835058 0
M  V30 24 C -1.301955 -1.873741 0.508195 0
M  V30 25 C -0.787492 -0.789870 -0.189364 0
M  V30 26 C 3.262827 -3.185843 0.215524 0
M  V30 27 C 2.679265 -4.162988 1.108974 0
M  V30 28 C 3.308018 -5.403108 1.190934 0
M  V30 29 C 2.909032 -6.471359 1.953261 0
M  V30 30 N 1.802691 -6.303268 2.694204 0
M  V30 31 C 1.149451 -5.100118 2.647103 0
M  V30 32 N 0.007992 -4.990799 3.486946 0
M  V30 33 C -0.917152 -3.898307 3.749712 0 CFG=1
M  V30 34 C -1.982692 -4.257292 4.737507 0
M  V30 35 C -2.757755 -3.058424 5.148463 0
M  V30 36 C -2.249357 -1.748162 4.651119 0
M  V30 37 N -0.829485 -1.619299 4.684064 0
M  V30 38 C -0.077198 -2.720321 4.185905 0
M  V30 39 N 1.602625 -4.096216 1.870563 0
M  V30 40 C 4.608352 -3.356344 -0.139383 0
M  V30 41 H 6.342336 -2.624193 -1.269422 0
M  V30 42 H 5.089890 -0.702276 -2.182319 0
M  V30 43 H 2.009097 0.417287 -1.477619 0
M  V30 44 H 0.606200 2.115542 -2.130673 0
M  V30 45 H -3.063576 2.330480 -1.419527 0
M  V30 46 H 1.366712 5.467708 -4.312222 0
M  V30 47 H 0.669379 7.638895 -5.389175 0
M  V30 48 H -1.713172 8.294703 -5.176734 0
M  V30 49 H -3.333691 6.947671 -4.001159 0
M  V30 50 H -3.566834 4.593968 -2.588472 0
M  V30 51 H -3.711039 0.836525 -0.488442 0
M  V30 52 H -4.549813 -1.045680 0.713159 0
M  V30 53 H -3.088302 -2.816566 1.381075 0
M  V30 54 H -0.640224 -2.649648 0.795692 0
M  V30 55 H 4.212629 -5.718840 0.653439 0
M  V30 56 H 3.362389 -7.430137 2.039627 0
M  V30 57 H -0.266815 -5.843976 4.054259 0
M  V30 58 H -1.395857 -3.680336 2.780936 0
M  V30 59 H -1.535477 -4.820703 5.585471 0
M  V30 60 H -2.679680 -4.954620 4.205415 0
M  V30 61 H -2.732579 -3.028636 6.271506 0
M  V30 62 H -3.839588 -3.145178 4.904569 0
M  V30 63 H -2.663693 -1.447883 3.668769 0
M  V30 64 H -2.645481 -0.968886 5.369652 0
M  V30 65 H -0.456840 -1.214469 5.572246 0
M  V30 66 H 0.535102 -2.389420 3.328845 0
M  V30 67 H 0.670871 -3.109622 4.935309 0
M  V30 68 H 5.286851 -4.159752 0.198336 0
M  V30 END ATOM
M  V30 BEGIN BOND
M  V30 1 2 1 2
M  V30 2 1 2 3
M  V30 3 2 3 4
M  V30 4 1 4 5
M  V30 5 1 5 6
M  V30 6 2 6 7
M  V30 7 1 7 8
M  V30 8 2 8 9
M  V30 9 1 9 10
M  V30 10 1 10 11
M  V30 11 2 11 12
M  V30 12 1 12 13
M  V30 13 2 13 14
M  V30 14 1 14 15
M  V30 15 2 15 16
M  V30 16 1 16 17
M  V30 17 2 17 18
M  V30 18 1 18 19
M  V30 19 1 9 20
M  V30 20 2 20 21
M  V30 21 1 21 22
M  V30 22 2 22 23
M  V30 23 1 23 24
M  V30 24 2 24 25
M  V30 25 1 4 26
M  V30 26 1 26 27
M  V30 27 2 27 28
M  V30 28 1 28 29
M  V30 29 2 29 30
M  V30 30 1 30 31
M  V30 31 1 31 32
M  V30 32 1 32 33
M  V30 33 1 33 34
M  V30 34 1 34 35
M  V30 35 1 35 36
M  V30 36 1 36 37
M  V30 37 1 37 38
M  V30 38 2 31 39
M  V30 39 2 26 40
M  V30 40 1 40 1
M  V30 41 1 25 6
M  V30 42 1 39 27
M  V30 43 1 19 11
M  V30 44 1 25 20
M  V30 45 1 38 33
M  V30 46 1 18 13
M  V30 47 1 1 41
M  V30 48 1 2 42
M  V30 49 1 7 43
M  V30 50 1 8 44
M  V30 51 1 10 45
M  V30 52 1 14 46
M  V30 53 1 15 47
M  V30 54 1 16 48
M  V30 55 1 17 49
M  V30 56 1 19 50
M  V30 57 1 21 51
M  V30 58 1 22 52
M  V30 59 1 23 53
M  V30 60 1 24 54
M  V30 61 1 28 55
M  V30 62 1 29 56
M  V30 63 1 32 57
M  V30 64 1 33 58 CFG=3
M  V30 65 1 34 59
M  V30 66 1 34 60
M  V30 67 1 35 61
M  V30 68 1 35 62
M  V30 69 1 36 63
M  V30 70 1 36 64
M  V30 71 1 37 65
M  V30 72 1 38 66
M  V30 73 1 38 67
M  V30 74 1 40 68
M  V30 END BOND
M  V30 END CTAB
M  END
>  <Dataset>  (909) 
ChEMBL_Kinases

>  <Ligand_Instance>  (909) 
nan

>  <PDB_ID>  (909) 
nan

>  <Standardized_SMILES>  (909) 
c1cnc(Oc2ccc(Nc3nc4ccccc4[nH]3)c3ccccc23)c(-c2ccnc(N[C@H]3CCCNC3)n2)c1

>  <Name>  (909) 
nan

>  <Pocket>  (909) 
nan

>  <ATP_Site>  (909) 
nan

>  <Peripheral>  (909) 
nan

>  <Num_H_Atoms_ProtBoundConf>  (909) 
nan

>  <Num_Resolved_Atoms>  (909) 
nan

>  <Num_Not_Resolved_Atoms>  (909) 
nan

$$$$
CHEMBL3355997
     RDKit          3D

  0  0  0  0  0  0  0  0  0  0999 V3000
M  V30 BEGIN CTAB
M  V30 COUNTS 68 74 0 0 0
M  V30 BEGIN ATOM
M  V30 1 C 3.883379 -3.938630 1.510178 0
M  V30 2 C 3.503637 -4.378833 0.270328 0
M  V30 3 N 2.402243 -3.863313 -0.260216 0
M  V30 4 C 1.596356 -2.947433 0.274009 0
M  V30 5 O 0.620994 -2.640045 -0.475358 0
M  V30 6 C -0.377318 -2.273612 -1.176614 0
M  V30 7 C -1.179027 -1.151783 -0.935008 0
M  V30 8 C -2.256649 -0.709291 -1.643961 0
M  V30 9 C -2.583344 -1.485268 -2.744613 0
M  V30 10 N -3.675417 -1.071528 -3.532561 0
M  V30 11 C -4.545955 0.047231 -3.302217 0
M  V30 12 N -4.588986 0.920287 -2.308400 0
M  V30 13 C -5.541784 1.832798 -2.448972 0
M  V30 14 C -5.940235 2.919364 -1.660787 0
M  V30 15 C -7.009737 3.691234 -2.124784 0
M  V30 16 C -7.634288 3.386511 -3.303728 0
M  V30 17 C -7.209581 2.291887 -4.067447 0
M  V30 18 C -6.162081 1.523452 -3.627487 0
M  V30 19 N -5.538798 0.449151 -4.109312 0
M  V30 20 C -1.886596 -2.608832 -3.099276 0
M  V30 21 C -2.206213 -3.393285 -4.192394 0
M  V30 22 C -1.506577 -4.533069 -4.549581 0
M  V30 23 C -0.429395 -4.882841 -3.747790 0
M  V30 24 C -0.115949 -4.083157 -2.646417 0
M  V30 25 C -0.815197 -2.952707 -2.298268 0
M  V30 26 C 2.007953 -2.537495 1.515922 0
M  V30 27 C 1.270922 -1.570481 2.298982 0
M  V30 28 C -0.100754 -1.458504 2.327171 0
M  V30 29 C -0.832108 -0.625354 3.111102 0
M  V30 30 N -0.128945 0.158121 3.932895 0
M  V30 31 C 1.238824 0.099316 3.956803 0
M  V30 32 N 1.942174 0.973876 4.841375 0
M  V30 33 C 3.339545 1.123584 5.035017 0 CFG=2
M  V30 34 C 4.098170 1.466143 3.767664 0
M  V30 35 C 5.505989 1.818966 4.278166 0
M  V30 36 C 6.095648 0.598760 4.927254 0
M  V30 37 N 5.309419 0.033499 5.971922 0
M  V30 38 C 3.938750 -0.170630 5.529244 0
M  V30 39 N 1.885859 -0.752285 3.150221 0
M  V30 40 C 3.130247 -2.994771 2.167098 0
M  V30 41 H 4.774184 -4.341854 1.957032 0
M  V30 42 H 4.152567 -5.140192 -0.200165 0
M  V30 43 H -0.922529 -0.515337 -0.086628 0
M  V30 44 H -2.736745 0.170049 -1.301882 0
M  V30 45 H -3.923807 -1.587652 -4.381569 0
M  V30 46 H -5.425241 3.136291 -0.728939 0
M  V30 47 H -7.326787 4.532752 -1.523509 0
M  V30 48 H -8.462632 3.993156 -3.650953 0
M  V30 49 H -7.701319 2.061240 -4.983653 0
M  V30 50 H -5.833747 0.017389 -5.014129 0
M  V30 51 H -3.023936 -3.157469 -4.826634 0
M  V30 52 H -1.798509 -5.118090 -5.420751 0
M  V30 53 H 0.097732 -5.784007 -4.062906 0
M  V30 54 H 0.726802 -4.516317 -2.163319 0
M  V30 55 H -0.688348 -2.099826 1.680123 0
M  V30 56 H -1.891528 -0.522535 3.146960 0
M  V30 57 H 1.324399 1.608467 5.444771 0
M  V30 58 H 3.535151 1.962652 5.739894 0
M  V30 59 H 4.235478 0.561327 3.128612 0
M  V30 60 H 3.675323 2.281978 3.191443 0
M  V30 61 H 6.147470 2.171977 3.473772 0
M  V30 62 H 5.353645 2.584601 5.073344 0
M  V30 63 H 7.072228 0.917754 5.399145 0
M  V30 64 H 6.295453 -0.142174 4.142697 0
M  V30 65 H 5.279122 0.637527 6.826114 0
M  V30 66 H 3.311942 -0.650776 6.282101 0
M  V30 67 H 3.960733 -0.868679 4.646217 0
M  V30 68 H 3.470503 -2.684151 3.137422 0
M  V30 END ATOM
M  V30 BEGIN BOND
M  V30 1 2 1 2
M  V30 2 1 2 3
M  V30 3 2 3 4
M  V30 4 1 4 5
M  V30 5 1 5 6
M  V30 6 2 6 7
M  V30 7 1 7 8
M  V30 8 2 8 9
M  V30 9 1 9 10
M  V30 10 1 10 11
M  V30 11 2 11 12
M  V30 12 1 12 13
M  V30 13 2 13 14
M  V30 14 1 14 15
M  V30 15 2 15 16
M  V30 16 1 16 17
M  V30 17 2 17 18
M  V30 18 1 18 19
M  V30 19 1 9 20
M  V30 20 2 20 21
M  V30 21 1 21 22
M  V30 22 2 22 23
M  V30 23 1 23 24
M  V30 24 2 24 25
M  V30 25 1 4 26
M  V30 26 1 26 27
M  V30 27 2 27 28
M  V30 28 1 28 29
M  V30 29 2 29 30
M  V30 30 1 30 31
M  V30 31 1 31 32
M  V30 32 1 32 33
M  V30 33 1 33 34
M  V30 34 1 34 35
M  V30 35 1 35 36
M  V30 36 1 36 37
M  V30 37 1 37 38
M  V30 38 2 31 39
M  V30 39 2 26 40
M  V30 40 1 40 1
M  V30 41 1 25 6
M  V30 42 1 39 27
M  V30 43 1 19 11
M  V30 44 1 25 20
M  V30 45 1 38 33
M  V30 46 1 18 13
M  V30 47 1 1 41
M  V30 48 1 2 42
M  V30 49 1 7 43
M  V30 50 1 8 44
M  V30 51 1 10 45
M  V30 52 1 14 46
M  V30 53 1 15 47
M  V30 54 1 16 48
M  V30 55 1 17 49
M  V30 56 1 19 50
M  V30 57 1 21 51
M  V30 58 1 22 52
M  V30 59 1 23 53
M  V30 60 1 24 54
M  V30 61 1 28 55
M  V30 62 1 29 56
M  V30 63 1 32 57
M  V30 64 1 33 58 CFG=1
M  V30 65 1 34 59
M  V30 66 1 34 60
M  V30 67 1 35 61
M  V30 68 1 35 62
M  V30 69 1 36 63
M  V30 70 1 36 64
M  V30 71 1 37 65
M  V30 72 1 38 66
M  V30 73 1 38 67
M  V30 74 1 40 68
M  V30 END BOND
M  V30 END CTAB
M  END
>  <Dataset>  (910) 
ChEMBL_Kinases

>  <Ligand_Instance>  (910) 
nan

>  <PDB_ID>  (910) 
nan

>  <Standardized_SMILES>  (910) 
c1cnc(Oc2ccc(Nc3nc4ccccc4[nH]3)c3ccccc23)c(-c2ccnc(N[C@@H]3CCCNC3)n2)c1

>  <Name>  (910) 
nan

>  <Pocket>  (910) 
nan

>  <ATP_Site>  (910) 
nan

>  <Peripheral>  (910) 
nan

>  <Num_H_Atoms_ProtBoundConf>  (910) 
nan

>  <Num_Resolved_Atoms>  (910) 
nan

>  <Num_Not_Resolved_Atoms>  (910) 
nan

$$$$
CHEMBL3355996
     RDKit          3D

  0  0  0  0  0  0  0  0  0  0999 V3000
M  V30 BEGIN CTAB
M  V30 COUNTS 71 77 0 0 0
M  V30 BEGIN ATOM
M  V30 1 C 3.831757 -6.978453 -0.317705 0
M  V30 2 N 4.513105 -5.961063 0.414102 0
M  V30 3 C 5.915761 -6.262840 0.546568 0
M  V30 4 C 6.649614 -4.926548 0.698122 0
M  V30 5 C 5.895784 -4.129051 1.733936 0
M  V30 6 C 4.532597 -3.734989 1.236414 0
M  V30 7 N 4.492858 -2.329113 0.870258 0
M  V30 8 C 3.231958 -1.764640 0.493938 0
M  V30 9 N 2.151280 -2.572642 0.529435 0
M  V30 10 C 0.974513 -2.014630 0.177819 0
M  V30 11 C 0.965001 -0.693553 -0.182045 0
M  V30 12 C 2.030858 0.159086 -0.232127 0
M  V30 13 C 2.178313 1.542295 -0.620216 0
M  V30 14 C 3.436575 2.004108 -0.977296 0
M  V30 15 C 3.694563 3.301137 -1.333713 0
M  V30 16 C 2.651989 4.197555 -1.339866 0
M  V30 17 N 1.404911 3.787116 -0.995827 0
M  V30 18 C 1.166921 2.473199 -0.637839 0
M  V30 19 O -0.057522 2.295541 -0.346378 0
M  V30 20 C -1.278423 2.065709 -0.043152 0
M  V30 21 C -2.415082 2.227674 -0.851662 0
M  V30 22 C -3.663561 1.922224 -0.345944 0
M  V30 23 C -3.791488 1.461600 0.944257 0
M  V30 24 N -5.113139 1.154232 1.369703 0
M  V30 25 C -6.283708 1.303920 0.584420 0
M  V30 26 N -6.579045 0.301320 -0.265422 0
M  V30 27 C -7.704919 0.528729 -0.951691 0
M  V30 28 C -8.457176 -0.112868 -1.909905 0
M  V30 29 C -9.623157 0.388834 -2.449447 0
M  V30 30 C -9.986801 1.640396 -1.925965 0
M  V30 31 C -9.289411 2.340558 -0.972334 0
M  V30 32 C -8.144558 1.771147 -0.490063 0
M  V30 33 N -7.281369 2.223137 0.430208 0
M  V30 34 C -2.710121 1.277073 1.804786 0
M  V30 35 C -2.898044 0.811283 3.085517 0
M  V30 36 C -1.789889 0.640177 3.906896 0
M  V30 37 C -0.513513 0.938954 3.428983 0
M  V30 38 C -0.418583 1.393145 2.153286 0
M  V30 39 C -1.474933 1.598005 1.249807 0
M  V30 40 N 3.191560 -0.474493 0.136845 0
M  V30 41 C 4.239098 -4.615106 0.031204 0
M  V30 42 H 4.508988 -7.497748 -1.035647 0
M  V30 43 H 2.907599 -6.616214 -0.813950 0
M  V30 44 H 3.510135 -7.756973 0.418626 0
M  V30 45 H 6.084384 -6.880172 1.456049 0
M  V30 46 H 6.361727 -6.727060 -0.352267 0
M  V30 47 H 6.760055 -4.443421 -0.271941 0
M  V30 48 H 7.680150 -5.136788 1.123354 0
M  V30 49 H 6.441367 -3.217706 2.061923 0
M  V30 50 H 5.760163 -4.850512 2.595517 0
M  V30 51 H 3.762109 -3.937025 2.014190 0
M  V30 52 H 5.365663 -1.735258 0.882677 0
M  V30 53 H 0.027755 -2.552438 0.164186 0
M  V30 54 H 0.025790 -0.265046 -0.481507 0
M  V30 55 H 4.268126 1.306188 -0.975284 0
M  V30 56 H 4.734965 3.545493 -1.593232 0
M  V30 57 H 2.933297 5.208432 -1.631574 0
M  V30 58 H -2.261527 2.597338 -1.868260 0
M  V30 59 H -4.486603 2.071063 -1.031845 0
M  V30 60 H -5.498908 0.788050 2.258078 0
M  V30 61 H -8.092043 -1.078686 -2.249203 0
M  V30 62 H -10.211077 -0.118428 -3.201370 0
M  V30 63 H -10.904596 2.066161 -2.332450 0
M  V30 64 H -9.649416 3.302482 -0.631362 0
M  V30 65 H -7.249523 3.104712 1.005358 0
M  V30 66 H -3.880298 0.577145 3.460448 0
M  V30 67 H -1.848721 0.283667 4.923360 0
M  V30 68 H 0.367191 0.815567 4.046442 0
M  V30 69 H 0.580533 1.618719 1.798688 0
M  V30 70 H 3.167438 -4.535699 -0.256473 0
M  V30 71 H 4.797974 -4.243440 -0.850839 0
M  V30 END ATOM
M  V30 BEGIN BOND
M  V30 1 1 1 2
M  V30 2 1 2 3
M  V30 3 1 3 4
M  V30 4 1 4 5
M  V30 5 1 5 6
M  V30 6 1 6 7
M  V30 7 1 7 8
M  V30 8 2 8 9
M  V30 9 1 9 10
M  V30 10 2 10 11
M  V30 11 1 11 12
M  V30 12 1 12 13
M  V30 13 2 13 14
M  V30 14 1 14 15
M  V30 15 2 15 16
M  V30 16 1 16 17
M  V30 17 2 17 18
M  V30 18 1 18 19
M  V30 19 1 19 20
M  V30 20 2 20 21
M  V30 21 1 21 22
M  V30 22 2 22 23
M  V30 23 1 23 24
M  V30 24 1 24 25
M  V30 25 2 25 26
M  V30 26 1 26 27
M  V30 27 2 27 28
M  V30 28 1 28 29
M  V30 29 2 29 30
M  V30 30 1 30 31
M  V30 31 2 31 32
M  V30 32 1 32 33
M  V30 33 1 23 34
M  V30 34 2 34 35
M  V30 35 1 35 36
M  V30 36 2 36 37
M  V30 37 1 37 38
M  V30 38 2 38 39
M  V30 39 2 12 40
M  V30 40 1 6 41
M  V30 41 1 41 2
M  V30 42 1 40 8
M  V30 43 1 18 13
M  V30 44 1 39 20
M  V30 45 1 33 25
M  V30 46 1 39 34
M  V30 47 1 32 27
M  V30 48 1 1 42
M  V30 49 1 1 43
M  V30 50 1 1 44
M  V30 51 1 3 45
M  V30 52 1 3 46
M  V30 53 1 4 47
M  V30 54 1 4 48
M  V30 55 1 5 49
M  V30 56 1 5 50
M  V30 57 1 6 51
M  V30 58 1 7 52
M  V30 59 1 10 53
M  V30 60 1 11 54
M  V30 61 1 14 55
M  V30 62 1 15 56
M  V30 63 1 16 57
M  V30 64 1 21 58
M  V30 65 1 22 59
M  V30 66 1 24 60
M  V30 67 1 28 61
M  V30 68 1 29 62
M  V30 69 1 30 63
M  V30 70 1 31 64
M  V30 71 1 33 65
M  V30 72 1 35 66
M  V30 73 1 36 67
M  V30 74 1 37 68
M  V30 75 1 38 69
M  V30 76 1 41 70
M  V30 77 1 41 71
M  V30 END BOND
M  V30 END CTAB
M  END
>  <Dataset>  (911) 
ChEMBL_Kinases

>  <Ligand_Instance>  (911) 
nan

>  <PDB_ID>  (911) 
nan

>  <Standardized_SMILES>  (911) 
CN1CCCC(Nc2nccc(-c3cccnc3Oc3ccc(Nc4nc5ccccc5[nH]4)c4ccccc34)n2)C1

>  <Name>  (911) 
nan

>  <Pocket>  (911) 
nan

>  <ATP_Site>  (911) 
nan

>  <Peripheral>  (911) 
nan

>  <Num_H_Atoms_ProtBoundConf>  (911) 
nan

>  <Num_Resolved_Atoms>  (911) 
nan

>  <Num_Not_Resolved_Atoms>  (911) 
nan

$$$$
CHEMBL3355995
     RDKit          3D

  0  0  0  0  0  0  0  0  0  0999 V3000
M  V30 BEGIN CTAB
M  V30 COUNTS 60 65 0 0 0
M  V30 BEGIN ATOM
M  V30 1 O 1.541624 -3.530576 3.662538 0
M  V30 2 C 1.948225 -2.216525 3.808904 0
M  V30 3 C 2.452239 -1.671470 2.478540 0
M  V30 4 N 2.856072 -0.298945 2.697995 0
M  V30 5 C 3.448615 0.817881 2.075003 0
M  V30 6 N 4.732561 1.205952 2.238552 0
M  V30 7 C 5.169895 2.317665 1.579172 0
M  V30 8 C 4.303038 3.021107 0.762248 0
M  V30 9 C 2.999115 2.624784 0.596351 0
M  V30 10 C 1.996827 3.299011 -0.264164 0
M  V30 11 C 2.337509 4.519979 -0.830270 0
M  V30 12 C 1.428566 5.181220 -1.627719 0
M  V30 13 C 0.206420 4.588109 -1.826911 0
M  V30 14 N -0.132829 3.411955 -1.286757 0
M  V30 15 C 0.736285 2.722959 -0.492362 0
M  V30 16 O 0.627460 1.532923 0.147675 0
M  V30 17 C -0.408802 0.658242 0.227516 0
M  V30 18 C -0.080924 -0.553923 -0.372186 0
M  V30 19 C -0.996839 -1.590620 -0.398840 0
M  V30 20 C -2.240203 -1.424598 0.171859 0
M  V30 21 N -3.136161 -2.527384 0.136759 0
M  V30 22 C -2.839162 -3.759823 -0.512065 0
M  V30 23 N -3.451388 -4.314992 -1.602849 0
M  V30 24 C -2.828459 -5.496670 -1.876465 0
M  V30 25 C -3.073966 -6.442498 -2.883419 0
M  V30 26 C -2.268100 -7.591389 -2.935563 0
M  V30 27 C -1.245083 -7.770432 -1.991070 0
M  V30 28 C -1.023061 -6.827504 -1.012187 0
M  V30 29 C -1.816995 -5.701884 -0.966372 0
M  V30 30 N -1.861999 -4.608044 -0.146461 0
M  V30 31 C -2.562732 -0.194149 0.776305 0
M  V30 32 C -3.804584 -0.030277 1.355378 0
M  V30 33 C -4.052791 1.185610 1.931620 0
M  V30 34 C -3.133961 2.228623 1.955473 0
M  V30 35 C -1.880594 2.051249 1.367315 0
M  V30 36 C -1.646080 0.818333 0.791631 0
M  V30 37 N 2.638035 1.521323 1.277826 0
M  V30 38 H 0.695202 -3.678850 4.165009 0
M  V30 39 H 2.841841 -2.139397 4.493076 0
M  V30 40 H 1.188971 -1.529886 4.205834 0
M  V30 41 H 3.263390 -2.281932 2.053499 0
M  V30 42 H 1.581635 -1.724154 1.770058 0
M  V30 43 H 2.707188 0.170895 3.643632 0
M  V30 44 H 6.199085 2.667853 1.681994 0
M  V30 45 H 4.630465 3.887393 0.239085 0
M  V30 46 H 3.282910 5.031088 -0.705797 0
M  V30 47 H 1.607740 6.136438 -2.109323 0
M  V30 48 H -0.544693 5.051177 -2.440740 0
M  V30 49 H 0.881336 -0.807538 -0.861542 0
M  V30 50 H -0.754721 -2.561817 -0.869152 0
M  V30 51 H -4.082084 -2.642828 0.531638 0
M  V30 52 H -3.869335 -6.273233 -3.594856 0
M  V30 53 H -2.530355 -8.264048 -3.743502 0
M  V30 54 H -0.670339 -8.669342 -2.096776 0
M  V30 55 H -0.240424 -6.964767 -0.294546 0
M  V30 56 H -1.179286 -4.520844 0.649690 0
M  V30 57 H -4.513086 -0.827451 1.341195 0
M  V30 58 H -5.005253 1.398607 2.411705 0
M  V30 59 H -3.355900 3.200867 2.425294 0
M  V30 60 H -1.115386 2.841583 1.356395 0
M  V30 END ATOM
M  V30 BEGIN BOND
M  V30 1 1 1 2
M  V30 2 1 2 3
M  V30 3 1 3 4
M  V30 4 1 4 5
M  V30 5 2 5 6
M  V30 6 1 6 7
M  V30 7 2 7 8
M  V30 8 1 8 9
M  V30 9 1 9 10
M  V30 10 2 10 11
M  V30 11 1 11 12
M  V30 12 2 12 13
M  V30 13 1 13 14
M  V30 14 2 14 15
M  V30 15 1 15 16
M  V30 16 1 16 17
M  V30 17 2 17 18
M  V30 18 1 18 19
M  V30 19 2 19 20
M  V30 20 1 20 21
M  V30 21 1 21 22
M  V30 22 2 22 23
M  V30 23 1 23 24
M  V30 24 2 24 25
M  V30 25 1 25 26
M  V30 26 2 26 27
M  V30 27 1 27 28
M  V30 28 2 28 29
M  V30 29 1 29 30
M  V30 30 1 20 31
M  V30 31 2 31 32
M  V30 32 1 32 33
M  V30 33 2 33 34
M  V30 34 1 34 35
M  V30 35 2 35 36
M  V30 36 2 9 37
M  V30 37 1 37 5
M  V30 38 1 15 10
M  V30 39 1 36 17
M  V30 40 1 30 22
M  V30 41 1 36 31
M  V30 42 1 29 24
M  V30 43 1 1 38
M  V30 44 1 2 39
M  V30 45 1 2 40
M  V30 46 1 3 41
M  V30 47 1 3 42
M  V30 48 1 4 43
M  V30 49 1 7 44
M  V30 50 1 8 45
M  V30 51 1 11 46
M  V30 52 1 12 47
M  V30 53 1 13 48
M  V30 54 1 18 49
M  V30 55 1 19 50
M  V30 56 1 21 51
M  V30 57 1 25 52
M  V30 58 1 26 53
M  V30 59 1 27 54
M  V30 60 1 28 55
M  V30 61 1 30 56
M  V30 62 1 32 57
M  V30 63 1 33 58
M  V30 64 1 34 59
M  V30 65 1 35 60
M  V30 END BOND
M  V30 END CTAB
M  END
>  <Dataset>  (912) 
ChEMBL_Kinases

>  <Ligand_Instance>  (912) 
nan

>  <PDB_ID>  (912) 
nan

>  <Standardized_SMILES>  (912) 
OCCNc1nccc(-c2cccnc2Oc2ccc(Nc3nc4ccccc4[nH]3)c3ccccc23)n1

>  <Name>  (912) 
nan

>  <Pocket>  (912) 
nan

>  <ATP_Site>  (912) 
nan

>  <Peripheral>  (912) 
nan

>  <Num_H_Atoms_ProtBoundConf>  (912) 
nan

>  <Num_Resolved_Atoms>  (912) 
nan

>  <Num_Not_Resolved_Atoms>  (912) 
nan

$$$$
CHEMBL3355994
     RDKit          3D

  0  0  0  0  0  0  0  0  0  0999 V3000
M  V30 BEGIN CTAB
M  V30 COUNTS 68 73 0 0 0
M  V30 BEGIN ATOM
M  V30 1 C 3.011167 -2.910618 1.304448 0
M  V30 2 C 1.818940 -3.789251 0.978988 0
M  V30 3 C 0.597814 -3.006741 1.342172 0
M  V30 4 C 1.831918 -4.289878 -0.423897 0
M  V30 5 C 1.813278 -3.259055 -1.498614 0
M  V30 6 N 0.643947 -2.403030 -1.513831 0
M  V30 7 C 0.904495 -1.509475 -2.620464 0
M  V30 8 N 0.715383 -1.674383 -3.938486 0
M  V30 9 C 1.081263 -0.691669 -4.808598 0
M  V30 10 C 1.635097 0.431235 -4.239734 0
M  V30 11 C 1.848732 0.650227 -2.902078 0
M  V30 12 C 2.423323 1.890608 -2.385442 0
M  V30 13 C 3.287456 2.486238 -3.267067 0
M  V30 14 C 3.901080 3.636790 -2.764728 0
M  V30 15 C 3.633415 4.084648 -1.511189 0
M  V30 16 N 2.767994 3.416700 -0.747198 0
M  V30 17 C 2.126593 2.319351 -1.118366 0
M  V30 18 O 1.335329 1.898396 -0.201628 0
M  V30 19 C 0.479633 1.363737 0.574467 0
M  V30 20 C -0.541938 0.524763 0.242068 0
M  V30 21 C -1.436692 -0.032404 1.093185 0
M  V30 22 C -1.298472 0.282420 2.433466 0
M  V30 23 N -2.243840 -0.351385 3.316154 0
M  V30 24 C -3.320443 -1.145389 2.776744 0
M  V30 25 N -3.257409 -2.344890 2.177773 0
M  V30 26 C -4.472435 -2.766717 1.799061 0
M  V30 27 C -4.993769 -3.867859 1.163268 0
M  V30 28 C -6.332993 -4.040011 0.887952 0
M  V30 29 C -7.155583 -3.013942 1.298262 0
M  V30 30 C -6.670245 -1.894118 1.938498 0
M  V30 31 C -5.326298 -1.754543 2.196963 0
M  V30 32 N -4.616317 -0.756689 2.798892 0
M  V30 33 C -0.295616 1.127635 2.892154 0
M  V30 34 C -0.218845 1.392062 4.242478 0
M  V30 35 C 0.756857 2.210516 4.706790 0
M  V30 36 C 1.654025 2.763644 3.820812 0
M  V30 37 C 1.522617 2.460905 2.488934 0
M  V30 38 C 0.570563 1.646175 1.932302 0
M  V30 39 N 1.449022 -0.379231 -2.172197 0
M  V30 40 H 2.948176 -1.915426 0.824109 0
M  V30 41 H 2.965926 -2.704392 2.394835 0
M  V30 42 H 3.968983 -3.431786 1.114795 0
M  V30 43 H 1.870851 -4.667145 1.654824 0
M  V30 44 H 0.465595 -3.087029 2.453178 0
M  V30 45 H 0.679667 -1.935054 1.099165 0
M  V30 46 H -0.263920 -3.479496 0.864249 0
M  V30 47 H 0.974184 -4.972683 -0.579617 0
M  V30 48 H 2.736435 -4.922545 -0.573512 0
M  V30 49 H 2.766799 -2.663995 -1.527481 0
M  V30 50 H 1.804697 -3.826273 -2.468074 0
M  V30 51 H -0.270440 -2.129748 -1.117045 0
M  V30 52 H 0.901028 -0.890123 -5.835579 0
M  V30 53 H 1.903457 1.175790 -4.986673 0
M  V30 54 H 3.517751 2.157813 -4.255548 0
M  V30 55 H 4.600202 4.138661 -3.444659 0
M  V30 56 H 4.192847 4.993084 -1.263327 0
M  V30 57 H -0.727367 0.244174 -0.797116 0
M  V30 58 H -2.234541 -0.701261 0.756947 0
M  V30 59 H -2.280852 -0.330741 4.334444 0
M  V30 60 H -4.266904 -4.600478 0.886532 0
M  V30 61 H -6.682063 -4.942624 0.376110 0
M  V30 62 H -8.225043 -3.136999 1.088014 0
M  V30 63 H -7.403769 -1.132324 2.227556 0
M  V30 64 H -4.994227 0.129917 3.198121 0
M  V30 65 H -0.898384 0.977258 4.948354 0
M  V30 66 H 0.817821 2.416568 5.763050 0
M  V30 67 H 2.417020 3.411039 4.227806 0
M  V30 68 H 2.269805 2.940182 1.878990 0
M  V30 END ATOM
M  V30 BEGIN BOND
M  V30 1 1 1 2
M  V30 2 1 2 3
M  V30 3 1 2 4
M  V30 4 1 4 5
M  V30 5 1 5 6
M  V30 6 1 6 7
M  V30 7 2 7 8
M  V30 8 1 8 9
M  V30 9 2 9 10
M  V30 10 1 10 11
M  V30 11 1 11 12
M  V30 12 2 12 13
M  V30 13 1 13 14
M  V30 14 2 14 15
M  V30 15 1 15 16
M  V30 16 2 16 17
M  V30 17 1 17 18
M  V30 18 1 18 19
M  V30 19 2 19 20
M  V30 20 1 20 21
M  V30 21 2 21 22
M  V30 22 1 22 23
M  V30 23 1 23 24
M  V30 24 2 24 25
M  V30 25 1 25 26
M  V30 26 2 26 27
M  V30 27 1 27 28
M  V30 28 2 28 29
M  V30 29 1 29 30
M  V30 30 2 30 31
M  V30 31 1 31 32
M  V30 32 1 22 33
M  V30 33 2 33 34
M  V30 34 1 34 35
M  V30 35 2 35 36
M  V30 36 1 36 37
M  V30 37 2 37 38
M  V30 38 2 11 39
M  V30 39 1 39 7
M  V30 40 1 17 12
M  V30 41 1 38 19
M  V30 42 1 32 24
M  V30 43 1 38 33
M  V30 44 1 31 26
M  V30 45 1 1 40
M  V30 46 1 1 41
M  V30 47 1 1 42
M  V30 48 1 2 43
M  V30 49 1 3 44
M  V30 50 1 3 45
M  V30 51 1 3 46
M  V30 52 1 4 47
M  V30 53 1 4 48
M  V30 54 1 5 49
M  V30 55 1 5 50
M  V30 56 1 6 51
M  V30 57 1 9 52
M  V30 58 1 10 53
M  V30 59 1 13 54
M  V30 60 1 14 55
M  V30 61 1 15 56
M  V30 62 1 20 57
M  V30 63 1 21 58
M  V30 64 1 23 59
M  V30 65 1 27 60
M  V30 66 1 28 61
M  V30 67 1 29 62
M  V30 68 1 30 63
M  V30 69 1 32 64
M  V30 70 1 34 65
M  V30 71 1 35 66
M  V30 72 1 36 67
M  V30 73 1 37 68
M  V30 END BOND
M  V30 END CTAB
M  END
>  <Dataset>  (913) 
ChEMBL_Kinases

>  <Ligand_Instance>  (913) 
nan

>  <PDB_ID>  (913) 
nan

>  <Standardized_SMILES>  (913) 
CC(C)CCNc1nccc(-c2cccnc2Oc2ccc(Nc3nc4ccccc4[nH]3)c3ccccc23)n1

>  <Name>  (913) 
nan

>  <Pocket>  (913) 
nan

>  <ATP_Site>  (913) 
nan

>  <Peripheral>  (913) 
nan

>  <Num_H_Atoms_ProtBoundConf>  (913) 
nan

>  <Num_Resolved_Atoms>  (913) 
nan

>  <Num_Not_Resolved_Atoms>  (913) 
nan

$$$$
CHEMBL3355993
     RDKit          3D

  0  0  0  0  0  0  0  0  0  0999 V3000
M  V30 BEGIN CTAB
M  V30 COUNTS 70 75 0 0 0
M  V30 BEGIN ATOM
M  V30 1 C 2.312110 -2.454061 -1.028388 0
M  V30 2 C 2.263964 -1.644396 0.216336 0
M  V30 3 C 3.413973 -1.029644 0.720269 0
M  V30 4 C 3.365597 -0.276264 1.881041 0
M  V30 5 N 4.557251 0.335227 2.322494 0
M  V30 6 C 5.873991 0.302762 1.738819 0
M  V30 7 N 5.980411 1.183383 0.699516 0
M  V30 8 C 7.247652 1.117072 0.192882 0
M  V30 9 C 7.819070 1.818611 -0.856028 0
M  V30 10 C 9.154823 1.541182 -1.148572 0
M  V30 11 C 9.796342 0.596454 -0.376402 0
M  V30 12 C 9.215839 -0.099272 0.667814 0
M  V30 13 C 7.891033 0.164923 0.968523 0
M  V30 14 N 7.054090 -0.313478 1.889404 0
M  V30 15 C 2.178175 -0.098434 2.596290 0
M  V30 16 C 2.138925 0.652662 3.757193 0
M  V30 17 C 0.915769 0.774930 4.402581 0
M  V30 18 C -0.222743 0.181829 3.929601 0
M  V30 19 C -0.137733 -0.568738 2.751407 0
M  V30 20 C 1.061958 -0.730424 2.052327 0
M  V30 21 C 1.075242 -1.483598 0.900582 0
M  V30 22 O -0.086907 -2.016366 0.519785 0
M  V30 23 C -0.808409 -3.110235 0.756590 0
M  V30 24 N -0.399293 -4.171938 1.519399 0
M  V30 25 C -1.195919 -5.237661 1.712819 0
M  V30 26 C -2.453814 -5.314188 1.157412 0
M  V30 27 C -2.866595 -4.245617 0.389202 0
M  V30 28 C -2.062038 -3.125492 0.170531 0
M  V30 29 C -2.703313 -2.097534 -0.617225 0
M  V30 30 C -2.143738 -0.966468 -1.134656 0
M  V30 31 C -2.736474 0.008971 -1.867946 0
M  V30 32 N -4.048390 -0.174020 -2.112009 0
M  V30 33 C -4.675919 -1.261320 -1.640205 0
M  V30 34 N -6.064458 -1.359738 -1.918468 0
M  V30 35 C -6.761189 -0.310072 -2.612308 0
M  V30 36 C -6.750749 0.994874 -1.883983 0
M  V30 37 N -7.367845 0.942419 -0.570251 0
M  V30 38 C -7.225554 2.302561 -0.030276 0
M  V30 39 C -8.799149 0.692910 -0.662369 0
M  V30 40 N -4.032760 -2.186558 -0.923064 0
M  V30 41 H 3.073114 -2.098826 -1.749785 0
M  V30 42 H 2.633173 -3.480180 -0.685136 0
M  V30 43 H 1.299945 -2.569367 -1.439618 0
M  V30 44 H 4.377766 -1.135138 0.203643 0
M  V30 45 H 4.714569 0.915784 3.152799 0
M  V30 46 H 7.281892 2.544876 -1.433083 0
M  V30 47 H 9.705886 2.025625 -1.945222 0
M  V30 48 H 10.849077 0.305803 -0.525594 0
M  V30 49 H 9.711485 -0.837336 1.272202 0
M  V30 50 H 7.144799 -1.010215 2.634986 0
M  V30 51 H 3.015113 1.129086 4.152573 0
M  V30 52 H 0.828170 1.346890 5.306954 0
M  V30 53 H -1.187410 0.262041 4.414483 0
M  V30 54 H -1.057262 -1.035073 2.390592 0
M  V30 55 H -0.859890 -6.085307 2.321992 0
M  V30 56 H -3.047926 -6.173347 1.335273 0
M  V30 57 H -3.867180 -4.378297 -0.015434 0
M  V30 58 H -1.106839 -0.774980 -0.980127 0
M  V30 59 H -2.268084 0.889160 -2.263236 0
M  V30 60 H -6.612629 -2.210602 -1.613575 0
M  V30 61 H -7.799539 -0.576934 -2.864378 0
M  V30 62 H -6.231797 -0.132368 -3.586808 0
M  V30 63 H -5.741663 1.372731 -1.763060 0
M  V30 64 H -7.293906 1.752260 -2.510649 0
M  V30 65 H -6.136080 2.554622 0.068788 0
M  V30 66 H -7.644864 3.012568 -0.769081 0
M  V30 67 H -7.737588 2.439454 0.928954 0
M  V30 68 H -9.021468 -0.376257 -0.828807 0
M  V30 69 H -9.254360 0.993784 0.310430 0
M  V30 70 H -9.257958 1.359967 -1.432237 0
M  V30 END ATOM
M  V30 BEGIN BOND
M  V30 1 1 1 2
M  V30 2 2 2 3
M  V30 3 1 3 4
M  V30 4 1 4 5
M  V30 5 1 5 6
M  V30 6 2 6 7
M  V30 7 1 7 8
M  V30 8 2 8 9
M  V30 9 1 9 10
M  V30 10 2 10 11
M  V30 11 1 11 12
M  V30 12 2 12 13
M  V30 13 1 13 14
M  V30 14 2 4 15
M  V30 15 1 15 16
M  V30 16 2 16 17
M  V30 17 1 17 18
M  V30 18 2 18 19
M  V30 19 1 19 20
M  V30 20 2 20 21
M  V30 21 1 21 22
M  V30 22 1 22 23
M  V30 23 2 23 24
M  V30 24 1 24 25
M  V30 25 2 25 26
M  V30 26 1 26 27
M  V30 27 2 27 28
M  V30 28 1 28 29
M  V30 29 2 29 30
M  V30 30 1 30 31
M  V30 31 2 31 32
M  V30 32 1 32 33
M  V30 33 1 33 34
M  V30 34 1 34 35
M  V30 35 1 35 36
M  V30 36 1 36 37
M  V30 37 1 37 38
M  V30 38 1 37 39
M  V30 39 2 33 40
M  V30 40 1 21 2
M  V30 41 1 28 23
M  V30 42 1 40 29
M  V30 43 1 14 6
M  V30 44 1 20 15
M  V30 45 1 13 8
M  V30 46 1 1 41
M  V30 47 1 1 42
M  V30 48 1 1 43
M  V30 49 1 3 44
M  V30 50 1 5 45
M  V30 51 1 9 46
M  V30 52 1 10 47
M  V30 53 1 11 48
M  V30 54 1 12 49
M  V30 55 1 14 50
M  V30 56 1 16 51
M  V30 57 1 17 52
M  V30 58 1 18 53
M  V30 59 1 19 54
M  V30 60 1 25 55
M  V30 61 1 26 56
M  V30 62 1 27 57
M  V30 63 1 30 58
M  V30 64 1 31 59
M  V30 65 1 34 60
M  V30 66 1 35 61
M  V30 67 1 35 62
M  V30 68 1 36 63
M  V30 69 1 36 64
M  V30 70 1 38 65
M  V30 71 1 38 66
M  V30 72 1 38 67
M  V30 73 1 39 68
M  V30 74 1 39 69
M  V30 75 1 39 70
M  V30 END BOND
M  V30 END CTAB
M  END
>  <Dataset>  (914) 
ChEMBL_Kinases

>  <Ligand_Instance>  (914) 
nan

>  <PDB_ID>  (914) 
nan

>  <Standardized_SMILES>  (914) 
Cc1cc(Nc2nc3ccccc3[nH]2)c2ccccc2c1Oc1ncccc1-c1ccnc(NCCN(C)C)n1

>  <Name>  (914) 
nan

>  <Pocket>  (914) 
nan

>  <ATP_Site>  (914) 
nan

>  <Peripheral>  (914) 
nan

>  <Num_H_Atoms_ProtBoundConf>  (914) 
nan

>  <Num_Resolved_Atoms>  (914) 
nan

>  <Num_Not_Resolved_Atoms>  (914) 
nan

$$$$
CHEMBL3355992
     RDKit          3D

  0  0  0  0  0  0  0  0  0  0999 V3000
M  V30 BEGIN CTAB
M  V30 COUNTS 67 72 0 0 0
M  V30 BEGIN ATOM
M  V30 1 C 0.300240 -5.273332 1.746979 0
M  V30 2 N 0.105576 -4.338768 0.629510 0
M  V30 3 C -1.281068 -4.472760 0.231154 0
M  V30 4 C 1.042606 -4.714421 -0.376563 0
M  V30 5 C 1.041642 -3.888934 -1.617778 0
M  V30 6 N 1.325749 -2.497865 -1.372082 0
M  V30 7 C 1.470708 -1.614426 -2.469886 0
M  V30 8 N 1.408912 -2.112787 -3.738777 0
M  V30 9 C 1.561208 -1.289913 -4.795165 0
M  V30 10 C 1.774297 0.033637 -4.519643 0
M  V30 11 C 1.848252 0.609309 -3.266069 0
M  V30 12 C 2.043315 2.041094 -3.124557 0
M  V30 13 C 2.596006 2.668253 -4.215781 0
M  V30 14 C 2.808605 4.022758 -4.126195 0
M  V30 15 C 2.471734 4.690081 -2.977396 0
M  V30 16 N 1.954033 3.967904 -2.018776 0
M  V30 17 C 1.685382 2.660752 -1.953332 0
M  V30 18 O 1.166301 2.265506 -0.874710 0
M  V30 19 C 0.646425 1.863608 0.201298 0
M  V30 20 C 0.123173 0.604376 0.407472 0
M  V30 21 C -0.447053 0.138421 1.573224 0
M  V30 22 C -0.496576 1.026491 2.639312 0
M  V30 23 N -1.077648 0.568881 3.852316 0
M  V30 24 C -1.633749 -0.768478 3.928102 0
M  V30 25 N -1.250017 -2.026115 4.238096 0
M  V30 26 C -2.346106 -2.814249 4.065242 0
M  V30 27 C -2.489497 -4.176847 4.243540 0
M  V30 28 C -3.712022 -4.763574 4.000255 0
M  V30 29 C -4.819021 -4.045236 3.580517 0
M  V30 30 C -4.623308 -2.693212 3.418760 0
M  V30 31 C -3.423396 -2.036526 3.644080 0
M  V30 32 N -2.941034 -0.779075 3.572223 0
M  V30 33 C 0.001286 2.294533 2.515302 0
M  V30 34 C -0.088486 3.114764 3.616507 0
M  V30 35 C 0.388534 4.402871 3.561124 0
M  V30 36 C 0.962614 4.851238 2.366400 0
M  V30 37 C 1.013757 3.965608 1.312127 0
M  V30 38 C 0.550397 2.672800 1.320769 0
M  V30 39 N 1.682696 -0.305409 -2.345910 0
M  V30 40 H -0.009576 -4.832971 2.709079 0
M  V30 41 H -0.351451 -6.143865 1.544928 0
M  V30 42 H 1.348733 -5.636671 1.733869 0
M  V30 43 H -1.871632 -4.375422 1.188206 0
M  V30 44 H -1.632281 -3.630011 -0.415043 0
M  V30 45 H -1.501744 -5.467788 -0.166619 0
M  V30 46 H 2.067690 -4.672580 0.046586 0
M  V30 47 H 0.827847 -5.767547 -0.664359 0
M  V30 48 H 0.081417 -3.929895 -2.172582 0
M  V30 49 H 1.819937 -4.290841 -2.293718 0
M  V30 50 H 1.430673 -2.124192 -0.400865 0
M  V30 51 H 1.498480 -1.752600 -5.750566 0
M  V30 52 H 1.872621 0.581455 -5.452508 0
M  V30 53 H 2.907561 2.254052 -5.166960 0
M  V30 54 H 3.241837 4.598729 -4.940947 0
M  V30 55 H 2.657635 5.774804 -2.946506 0
M  V30 56 H 0.077127 -0.174550 -0.334289 0
M  V30 57 H -0.851794 -0.858750 1.709613 0
M  V30 58 H -1.202257 1.011520 4.758805 0
M  V30 59 H -1.626726 -4.739084 4.571367 0
M  V30 60 H -3.852706 -5.831462 4.132897 0
M  V30 61 H -5.788898 -4.462654 3.376199 0
M  V30 62 H -5.470357 -2.076932 3.089507 0
M  V30 63 H -3.641947 -0.063413 3.262938 0
M  V30 64 H -0.509162 2.873252 4.580186 0
M  V30 65 H 0.339744 5.095552 4.413576 0
M  V30 66 H 1.333534 5.872864 2.348938 0
M  V30 67 H 1.471995 4.417824 0.471354 0
M  V30 END ATOM
M  V30 BEGIN BOND
M  V30 1 1 1 2
M  V30 2 1 2 3
M  V30 3 1 2 4
M  V30 4 1 4 5
M  V30 5 1 5 6
M  V30 6 1 6 7
M  V30 7 2 7 8
M  V30 8 1 8 9
M  V30 9 2 9 10
M  V30 10 1 10 11
M  V30 11 1 11 12
M  V30 12 2 12 13
M  V30 13 1 13 14
M  V30 14 2 14 15
M  V30 15 1 15 16
M  V30 16 2 16 17
M  V30 17 1 17 18
M  V30 18 1 18 19
M  V30 19 2 19 20
M  V30 20 1 20 21
M  V30 21 2 21 22
M  V30 22 1 22 23
M  V30 23 1 23 24
M  V30 24 2 24 25
M  V30 25 1 25 26
M  V30 26 2 26 27
M  V30 27 1 27 28
M  V30 28 2 28 29
M  V30 29 1 29 30
M  V30 30 2 30 31
M  V30 31 1 31 32
M  V30 32 1 22 33
M  V30 33 2 33 34
M  V30 34 1 34 35
M  V30 35 2 35 36
M  V30 36 1 36 37
M  V30 37 2 37 38
M  V30 38 2 11 39
M  V30 39 1 39 7
M  V30 40 1 17 12
M  V30 41 1 38 19
M  V30 42 1 32 24
M  V30 43 1 38 33
M  V30 44 1 31 26
M  V30 45 1 1 40
M  V30 46 1 1 41
M  V30 47 1 1 42
M  V30 48 1 3 43
M  V30 49 1 3 44
M  V30 50 1 3 45
M  V30 51 1 4 46
M  V30 52 1 4 47
M  V30 53 1 5 48
M  V30 54 1 5 49
M  V30 55 1 6 50
M  V30 56 1 9 51
M  V30 57 1 10 52
M  V30 58 1 13 53
M  V30 59 1 14 54
M  V30 60 1 15 55
M  V30 61 1 20 56
M  V30 62 1 21 57
M  V30 63 1 23 58
M  V30 64 1 27 59
M  V30 65 1 28 60
M  V30 66 1 29 61
M  V30 67 1 30 62
M  V30 68 1 32 63
M  V30 69 1 34 64
M  V30 70 1 35 65
M  V30 71 1 36 66
M  V30 72 1 37 67
M  V30 END BOND
M  V30 END CTAB
M  END
>  <Dataset>  (915) 
ChEMBL_Kinases

>  <Ligand_Instance>  (915) 
nan

>  <PDB_ID>  (915) 
nan

>  <Standardized_SMILES>  (915) 
CN(C)CCNc1nccc(-c2cccnc2Oc2ccc(Nc3nc4ccccc4[nH]3)c3ccccc23)n1

>  <Name>  (915) 
nan

>  <Pocket>  (915) 
nan

>  <ATP_Site>  (915) 
nan

>  <Peripheral>  (915) 
nan

>  <Num_H_Atoms_ProtBoundConf>  (915) 
nan

>  <Num_Resolved_Atoms>  (915) 
nan

>  <Num_Not_Resolved_Atoms>  (915) 
nan

$$$$
CHEMBL3355539
     RDKit          3D

  0  0  0  0  0  0  0  0  0  0999 V3000
M  V30 BEGIN CTAB
M  V30 COUNTS 59 64 0 0 0
M  V30 BEGIN ATOM
M  V30 1 C 1.015489 -5.436378 -1.519393 0
M  V30 2 N 2.223186 -4.744911 -1.097535 0
M  V30 3 C 1.888462 -3.565488 -0.377792 0
M  V30 4 C 2.494218 -2.315268 -0.892575 0
M  V30 5 C 1.919519 -1.096794 -0.599961 0
M  V30 6 C 2.381154 0.131156 -1.013249 0
M  V30 7 N 1.816814 1.389892 -0.731498 0
M  V30 8 C 0.654969 1.679775 0.029856 0
M  V30 9 N 0.251377 2.949825 0.203065 0
M  V30 10 C -0.809989 3.352889 0.887457 0
M  V30 11 C -1.595411 2.425479 1.489457 0
M  V30 12 C -2.722546 2.719356 2.226568 0
M  V30 13 O -3.009852 3.932418 2.325805 0
M  V30 14 N -3.451458 1.738392 2.794484 0
M  V30 15 C -4.593144 2.172988 3.530383 0
M  V30 16 C -4.863657 2.047745 4.876295 0
M  V30 17 F -3.891377 1.420347 5.569897 0
M  V30 18 C -6.035714 2.544350 5.372988 0
M  V30 19 C -6.970466 3.171322 4.583689 0
M  V30 20 C -6.701721 3.300092 3.224082 0
M  V30 21 C -5.515315 2.800932 2.703293 0
M  V30 22 Cl -5.364379 3.060488 0.978793 0
M  V30 23 C -3.064948 0.444015 2.634710 0
M  V30 24 N -3.659403 -0.660369 3.121535 0
M  V30 25 C -2.899441 -1.701669 2.690212 0
M  V30 26 C -1.854978 -1.184706 1.945712 0
M  V30 27 N -1.969477 0.147469 1.919167 0
M  V30 28 C -1.216958 1.113475 1.336488 0
M  V30 29 N -0.131928 0.777605 0.630888 0
M  V30 30 C 3.521001 0.069220 -1.783770 0
M  V30 31 C 4.153784 -1.104441 -2.119564 0
M  V30 32 C 3.634204 -2.293912 -1.670032 0
M  V30 33 C 4.236588 -3.644818 -1.974016 0
M  V30 34 C 5.036642 -4.182429 -0.830282 0
M  V30 35 C 5.067484 -3.559490 -3.216318 0
M  V30 36 C 2.991804 -4.491723 -2.277318 0
M  V30 37 H 1.178935 -6.016436 -2.445376 0
M  V30 38 H 0.769547 -6.161433 -0.716669 0
M  V30 39 H 0.163241 -4.719176 -1.584250 0
M  V30 40 H 0.772899 -3.400332 -0.417451 0
M  V30 41 H 2.093991 -3.689386 0.722391 0
M  V30 42 H 1.034030 -1.126812 0.004919 0
M  V30 43 H 2.314139 2.237949 -1.133943 0
M  V30 44 H -1.055130 4.403156 0.970983 0
M  V30 45 H -6.167887 2.402946 6.442469 0
M  V30 46 H -7.889207 3.551856 5.017776 0
M  V30 47 H -7.481326 3.804599 2.660254 0
M  V30 48 H -3.194861 -2.708089 2.967814 0
M  V30 49 H -1.105148 -1.819432 1.489592 0
M  V30 50 H 3.999545 0.960277 -2.181313 0
M  V30 51 H 5.043879 -1.136003 -2.722646 0
M  V30 52 H 5.270670 -3.428818 -0.050924 0
M  V30 53 H 6.016400 -4.597408 -1.203189 0
M  V30 54 H 4.489519 -5.056952 -0.404876 0
M  V30 55 H 6.026396 -3.048742 -2.995696 0
M  V30 56 H 5.278920 -4.597250 -3.554601 0
M  V30 57 H 4.540146 -3.017068 -4.027529 0
M  V30 58 H 2.358434 -3.868516 -2.959957 0
M  V30 59 H 3.247203 -5.390698 -2.839754 0
M  V30 END ATOM
M  V30 BEGIN BOND
M  V30 1 1 1 2
M  V30 2 1 2 3
M  V30 3 1 3 4
M  V30 4 2 4 5
M  V30 5 1 5 6
M  V30 6 1 6 7
M  V30 7 1 7 8
M  V30 8 2 8 9
M  V30 9 1 9 10
M  V30 10 2 10 11
M  V30 11 1 11 12
M  V30 12 2 12 13
M  V30 13 1 12 14
M  V30 14 1 14 15
M  V30 15 2 15 16
M  V30 16 1 16 17
M  V30 17 1 16 18
M  V30 18 2 18 19
M  V30 19 1 19 20
M  V30 20 2 20 21
M  V30 21 1 21 22
M  V30 22 1 14 23
M  V30 23 2 23 24
M  V30 24 1 24 25
M  V30 25 2 25 26
M  V30 26 1 26 27
M  V30 27 1 27 28
M  V30 28 2 28 29
M  V30 29 2 6 30
M  V30 30 1 30 31
M  V30 31 2 31 32
M  V30 32 1 32 33
M  V30 33 1 33 34
M  V30 34 1 33 35
M  V30 35 1 33 36
M  V30 36 1 36 2
M  V30 37 1 32 4
M  V30 38 1 29 8
M  V30 39 1 28 11
M  V30 40 1 21 15
M  V30 41 1 27 23
M  V30 42 1 1 37
M  V30 43 1 1 38
M  V30 44 1 1 39
M  V30 45 1 3 40
M  V30 46 1 3 41
M  V30 47 1 5 42
M  V30 48 1 7 43
M  V30 49 1 10 44
M  V30 50 1 18 45
M  V30 51 1 19 46
M  V30 52 1 20 47
M  V30 53 1 25 48
M  V30 54 1 26 49
M  V30 55 1 30 50
M  V30 56 1 31 51
M  V30 57 1 34 52
M  V30 58 1 34 53
M  V30 59 1 34 54
M  V30 60 1 35 55
M  V30 61 1 35 56
M  V30 62 1 35 57
M  V30 63 1 36 58
M  V30 64 1 36 59
M  V30 END BOND
M  V30 END CTAB
M  END
>  <Dataset>  (916) 
ChEMBL_Kinases

>  <Ligand_Instance>  (916) 
nan

>  <PDB_ID>  (916) 
nan

>  <Standardized_SMILES>  (916) 
CN1Cc2cc(Nc3ncc4c(=O)n(-c5c(F)cccc5Cl)c5nccn5c4n3)ccc2C(C)(C)C1

>  <Name>  (916) 
nan

>  <Pocket>  (916) 
nan

>  <ATP_Site>  (916) 
nan

>  <Peripheral>  (916) 
nan

>  <Num_H_Atoms_ProtBoundConf>  (916) 
nan

>  <Num_Resolved_Atoms>  (916) 
nan

>  <Num_Not_Resolved_Atoms>  (916) 
nan

$$$$
CHEMBL3356040
     RDKit          3D

  0  0  0  0  0  0  0  0  0  0999 V3000
M  V30 BEGIN CTAB
M  V30 COUNTS 44 47 0 0 0
M  V30 BEGIN ATOM
M  V30 1 N 0.453388 1.702803 -2.120876 0
M  V30 2 N 1.337414 1.327375 -1.107491 0
M  V30 3 C 2.488571 2.109747 -0.829074 0
M  V30 4 C 3.696574 1.653748 -1.301023 0
M  V30 5 C 4.828263 2.389255 -1.067193 0
M  V30 6 C 4.762390 3.598731 -0.353464 0
M  V30 7 Cl 6.171129 4.576361 -0.026381 0
M  V30 8 C 3.502669 3.957287 0.069748 0
M  V30 9 C 2.296931 3.268272 -0.123112 0
M  V30 10 S 0.800194 3.914221 0.523366 0
M  V30 11 O -0.162065 4.261546 -0.573863 0
M  V30 12 O 1.120542 5.206022 1.213398 0
M  V30 13 N 0.103993 2.835654 1.689319 0
M  V30 14 C -0.384239 1.511726 1.606236 0
M  V30 15 C 0.229826 0.593138 2.468892 0
M  V30 16 C -0.140553 -0.741698 2.430201 0
M  V30 17 C -1.117832 -1.219137 1.552536 0
M  V30 18 C -1.408078 -2.641258 1.571383 0
M  V30 19 C -2.371776 -3.261415 0.792383 0
M  V30 20 N -2.590953 -4.595021 0.877440 0
M  V30 21 C -1.880787 -5.381674 1.724738 0
M  V30 22 C -1.861124 -6.723529 2.040779 0
M  V30 23 N -2.711824 -7.706752 1.462322 0
M  V30 24 N -0.907663 -6.894801 2.984510 0
M  V30 25 N -0.325509 -5.729092 3.279797 0
M  V30 26 C -0.920106 -4.767259 2.503017 0
M  V30 27 N -0.725206 -3.444928 2.398012 0
M  V30 28 C -1.705974 -0.300691 0.721179 0
M  V30 29 C -1.351256 1.029394 0.742863 0
M  V30 30 H -0.363567 1.029947 -2.053925 0
M  V30 31 H 0.852642 1.535261 -3.064437 0
M  V30 32 H 1.216310 0.476205 -0.522823 0
M  V30 33 H 3.741223 0.722108 -1.844098 0
M  V30 34 H 5.815218 2.098257 -1.403954 0
M  V30 35 H 3.478839 4.900161 0.618364 0
M  V30 36 H -0.011166 3.183212 2.692268 0
M  V30 37 H 1.004588 0.917992 3.170827 0
M  V30 38 H 0.366872 -1.417793 3.114090 0
M  V30 39 H -2.938701 -2.635325 0.120239 0
M  V30 40 H -2.563015 -7.832401 0.426536 0
M  V30 41 H -2.581672 -7.853084 0.417129 0
M  V30 42 H 0.432982 -5.451553 3.933955 0
M  V30 43 H -2.470071 -0.652264 0.036035 0
M  V30 44 H -1.809535 1.780432 0.087739 0
M  V30 END ATOM
M  V30 BEGIN BOND
M  V30 1 1 1 2
M  V30 2 1 2 3
M  V30 3 2 3 4
M  V30 4 1 4 5
M  V30 5 2 5 6
M  V30 6 1 6 7
M  V30 7 1 6 8
M  V30 8 2 8 9
M  V30 9 1 9 10
M  V30 10 2 10 11
M  V30 11 2 10 12
M  V30 12 1 10 13
M  V30 13 1 13 14
M  V30 14 2 14 15
M  V30 15 1 15 16
M  V30 16 2 16 17
M  V30 17 1 17 18
M  V30 18 2 18 19
M  V30 19 1 19 20
M  V30 20 2 20 21
M  V30 21 1 21 22
M  V30 22 1 22 23
M  V30 23 2 22 24
M  V30 24 1 24 25
M  V30 25 1 25 26
M  V30 26 2 26 27
M  V30 27 1 17 28
M  V30 28 2 28 29
M  V30 29 1 9 3
M  V30 30 1 29 14
M  V30 31 1 27 18
M  V30 32 1 26 21
M  V30 33 1 1 30
M  V30 34 1 1 31
M  V30 35 1 2 32
M  V30 36 1 4 33
M  V30 37 1 5 34
M  V30 38 1 8 35
M  V30 39 1 13 36
M  V30 40 1 15 37
M  V30 41 1 16 38
M  V30 42 1 19 39
M  V30 43 1 23 40
M  V30 44 1 23 41
M  V30 45 1 25 42
M  V30 46 1 28 43
M  V30 47 1 29 44
M  V30 END BOND
M  V30 END CTAB
M  END
>  <Dataset>  (917) 
ChEMBL_Kinases

>  <Ligand_Instance>  (917) 
nan

>  <PDB_ID>  (917) 
nan

>  <Standardized_SMILES>  (917) 
NNc1ccc(Cl)cc1S(=O)(=O)Nc1ccc(-c2cnc3c(N)n[nH]c3n2)cc1

>  <Name>  (917) 
nan

>  <Pocket>  (917) 
nan

>  <ATP_Site>  (917) 
nan

>  <Peripheral>  (917) 
nan

>  <Num_H_Atoms_ProtBoundConf>  (917) 
nan

>  <Num_Resolved_Atoms>  (917) 
nan

>  <Num_Not_Resolved_Atoms>  (917) 
nan

$$$$
CHEMBL3355519
     RDKit          3D

  0  0  0  0  0  0  0  0  0  0999 V3000
M  V30 BEGIN CTAB
M  V30 COUNTS 41 45 0 0 0
M  V30 BEGIN ATOM
M  V30 1 O -1.818867 -0.990675 2.973086 0
M  V30 2 C -0.842432 -1.328411 2.236880 0
M  V30 3 C 0.058310 -0.328142 1.874071 0
M  V30 4 C -0.092291 0.978906 2.290668 0
M  V30 5 N 0.828537 1.904042 1.896922 0
M  V30 6 C 1.871924 1.543685 1.110507 0
M  V30 7 N 2.686906 2.671119 0.831152 0
M  V30 8 C 2.420771 3.407793 -0.376535 0
M  V30 9 C 1.393674 2.920908 -1.180642 0
M  V30 10 C 1.026324 3.534118 -2.385724 0
M  V30 11 C 1.757384 4.665657 -2.728460 0
M  V30 12 C 2.767593 5.154684 -1.949337 0
M  V30 13 C 3.117498 4.531356 -0.755462 0
M  V30 14 N 1.991993 0.275719 0.723239 0
M  V30 15 C 1.132283 -0.696687 1.064624 0
M  V30 16 N 1.341092 -1.948391 0.622407 0
M  V30 17 C 2.254122 -2.576298 -0.142531 0
M  V30 18 C 1.922351 -3.909552 -0.243078 0
M  V30 19 N 0.783951 -4.061505 0.484572 0
M  V30 20 C 0.440797 -2.855423 1.007296 0
M  V30 21 N -0.624078 -2.597419 1.784042 0
M  V30 22 C -1.617029 -3.513486 2.230477 0
M  V30 23 C -2.915441 -3.342704 1.796451 0
M  V30 24 C -3.811788 -4.290486 2.290556 0
M  V30 25 C -3.429286 -5.308336 3.138972 0
M  V30 26 C -2.102416 -5.420841 3.536277 0
M  V30 27 C -1.153197 -4.500696 3.075335 0
M  V30 28 Cl 0.507516 -4.622583 3.557817 0
M  V30 29 H -0.955682 1.165191 2.913621 0
M  V30 30 H 3.464676 3.004222 1.440951 0
M  V30 31 H 0.802293 2.040608 -0.939863 0
M  V30 32 H 0.221312 3.134050 -2.994263 0
M  V30 33 H 1.447958 5.122772 -3.675325 0
M  V30 34 H 3.301801 6.043653 -2.272816 0
M  V30 35 H 3.911115 4.892753 -0.114276 0
M  V30 36 H 3.095925 -2.081138 -0.588323 0
M  V30 37 H 2.459501 -4.697012 -0.794292 0
M  V30 38 H -3.242171 -2.572720 1.144419 0
M  V30 39 H -4.869784 -4.233956 1.999022 0
M  V30 40 H -4.193064 -5.999551 3.473672 0
M  V30 41 H -1.787250 -6.211276 4.198972 0
M  V30 END ATOM
M  V30 BEGIN BOND
M  V30 1 2 1 2
M  V30 2 1 2 3
M  V30 3 2 3 4
M  V30 4 1 4 5
M  V30 5 2 5 6
M  V30 6 1 6 7
M  V30 7 1 7 8
M  V30 8 2 8 9
M  V30 9 1 9 10
M  V30 10 2 10 11
M  V30 11 1 11 12
M  V30 12 2 12 13
M  V30 13 1 6 14
M  V30 14 2 14 15
M  V30 15 1 15 16
M  V30 16 1 16 17
M  V30 17 2 17 18
M  V30 18 1 18 19
M  V30 19 2 19 20
M  V30 20 1 20 21
M  V30 21 1 21 22
M  V30 22 2 22 23
M  V30 23 1 23 24
M  V30 24 2 24 25
M  V30 25 1 25 26
M  V30 26 2 26 27
M  V30 27 1 27 28
M  V30 28 1 21 2
M  V30 29 1 27 22
M  V30 30 1 15 3
M  V30 31 1 20 16
M  V30 32 1 13 8
M  V30 33 1 4 29
M  V30 34 1 7 30
M  V30 35 1 9 31
M  V30 36 1 10 32
M  V30 37 1 11 33
M  V30 38 1 12 34
M  V30 39 1 13 35
M  V30 40 1 17 36
M  V30 41 1 18 37
M  V30 42 1 23 38
M  V30 43 1 24 39
M  V30 44 1 25 40
M  V30 45 1 26 41
M  V30 END BOND
M  V30 END CTAB
M  END
>  <Dataset>  (918) 
ChEMBL_Kinases

>  <Ligand_Instance>  (918) 
nan

>  <PDB_ID>  (918) 
nan

>  <Standardized_SMILES>  (918) 
O=c1c2cnc(Nc3ccccc3)nc2n2ccnc2n1-c1ccccc1Cl

>  <Name>  (918) 
nan

>  <Pocket>  (918) 
nan

>  <ATP_Site>  (918) 
nan

>  <Peripheral>  (918) 
nan

>  <Num_H_Atoms_ProtBoundConf>  (918) 
nan

>  <Num_Resolved_Atoms>  (918) 
nan

>  <Num_Not_Resolved_Atoms>  (918) 
nan

$$$$
CHEMBL3355521
     RDKit          3D

  0  0  0  0  0  0  0  0  0  0999 V3000
M  V30 BEGIN CTAB
M  V30 COUNTS 57 62 0 0 0
M  V30 BEGIN ATOM
M  V30 1 O -4.613916 -3.812551 0.139441 0
M  V30 2 C -3.414220 -4.145518 0.044200 0
M  V30 3 C -2.495898 -3.300738 0.632205 0
M  V30 4 C -2.884868 -2.146634 1.290753 0
M  V30 5 N -1.892366 -1.382362 1.836071 0
M  V30 6 C -0.588700 -1.715911 1.749806 0
M  V30 7 N 0.221485 -0.748300 2.401242 0
M  V30 8 C 0.873005 0.423996 1.922787 0
M  V30 9 C 1.566257 1.195820 2.828072 0
M  V30 10 C 2.192337 2.325913 2.339053 0
M  V30 11 C 2.164143 2.723760 1.008650 0
M  V30 12 C 2.819972 3.921326 0.470563 0
M  V30 13 C 4.283848 4.017204 0.766250 0
M  V30 14 C 4.598891 5.135363 1.718736 0
M  V30 15 C 4.217298 6.461095 1.109706 0
M  V30 16 C 2.820591 6.405749 0.502815 0
M  V30 17 C 2.089853 5.161804 0.962824 0
M  V30 18 C 1.434432 1.862250 0.204715 0
M  V30 19 C 0.772867 0.720037 0.564446 0
M  V30 20 N -0.203299 -2.853908 1.100641 0
M  V30 21 C -1.157118 -3.652565 0.537844 0
M  V30 22 N -0.727795 -4.759769 -0.090111 0
M  V30 23 C 0.440307 -5.369319 -0.354667 0
M  V30 24 C 0.265300 -6.525945 -1.065331 0
M  V30 25 N -1.070029 -6.603608 -1.228499 0
M  V30 26 C -1.662265 -5.550921 -0.647305 0
M  V30 27 N -2.979184 -5.270965 -0.594120 0
M  V30 28 C -4.013108 -6.065927 -1.162500 0
M  V30 29 C -4.743681 -5.415138 -2.148295 0
M  V30 30 C -5.791160 -6.059128 -2.800782 0
M  V30 31 C -6.104983 -7.359517 -2.461646 0
M  V30 32 C -5.373983 -8.020802 -1.470318 0
M  V30 33 C -4.326553 -7.345458 -0.833213 0
M  V30 34 Cl -3.364458 -8.094112 0.411274 0
M  V30 35 H -3.934699 -1.867614 1.365857 0
M  V30 36 H 0.282248 -1.046226 3.397438 0
M  V30 37 H 1.610936 0.919269 3.872782 0
M  V30 38 H 2.753040 2.958853 3.045450 0
M  V30 39 H 2.661872 3.928557 -0.645247 0
M  V30 40 H 4.683640 3.039200 1.172238 0
M  V30 41 H 4.881720 4.184611 -0.158701 0
M  V30 42 H 5.708468 5.144132 1.845977 0
M  V30 43 H 4.143987 4.983311 2.719516 0
M  V30 44 H 4.971447 6.695546 0.324884 0
M  V30 45 H 4.239623 7.241798 1.913262 0
M  V30 46 H 2.246631 7.284099 0.864369 0
M  V30 47 H 2.849209 6.466641 -0.608098 0
M  V30 48 H 1.974212 5.168387 2.043762 0
M  V30 49 H 1.093848 5.168555 0.495030 0
M  V30 50 H 1.388931 2.143747 -0.860782 0
M  V30 51 H 0.235849 0.128600 -0.160728 0
M  V30 52 H 1.402751 -4.983005 -0.038518 0
M  V30 53 H 0.959044 -7.253820 -1.441994 0
M  V30 54 H -4.547425 -4.380144 -2.468709 0
M  V30 55 H -6.393458 -5.585551 -3.582883 0
M  V30 56 H -6.901137 -7.952950 -2.907137 0
M  V30 57 H -5.601721 -9.054971 -1.181986 0
M  V30 END ATOM
M  V30 BEGIN BOND
M  V30 1 2 1 2
M  V30 2 1 2 3
M  V30 3 2 3 4
M  V30 4 1 4 5
M  V30 5 2 5 6
M  V30 6 1 6 7
M  V30 7 1 7 8
M  V30 8 2 8 9
M  V30 9 1 9 10
M  V30 10 2 10 11
M  V30 11 1 11 12
M  V30 12 1 12 13
M  V30 13 1 13 14
M  V30 14 1 14 15
M  V30 15 1 15 16
M  V30 16 1 16 17
M  V30 17 1 11 18
M  V30 18 2 18 19
M  V30 19 1 6 20
M  V30 20 2 20 21
M  V30 21 1 21 22
M  V30 22 1 22 23
M  V30 23 2 23 24
M  V30 24 1 24 25
M  V30 25 2 25 26
M  V30 26 1 26 27
M  V30 27 1 27 28
M  V30 28 2 28 29
M  V30 29 1 29 30
M  V30 30 2 30 31
M  V30 31 1 31 32
M  V30 32 2 32 33
M  V30 33 1 33 34
M  V30 34 1 27 2
M  V30 35 1 33 28
M  V30 36 1 21 3
M  V30 37 1 26 22
M  V30 38 1 19 8
M  V30 39 1 17 12
M  V30 40 1 4 35
M  V30 41 1 7 36
M  V30 42 1 9 37
M  V30 43 1 10 38
M  V30 44 1 12 39
M  V30 45 1 13 40
M  V30 46 1 13 41
M  V30 47 1 14 42
M  V30 48 1 14 43
M  V30 49 1 15 44
M  V30 50 1 15 45
M  V30 51 1 16 46
M  V30 52 1 16 47
M  V30 53 1 17 48
M  V30 54 1 17 49
M  V30 55 1 18 50
M  V30 56 1 19 51
M  V30 57 1 23 52
M  V30 58 1 24 53
M  V30 59 1 29 54
M  V30 60 1 30 55
M  V30 61 1 31 56
M  V30 62 1 32 57
M  V30 END BOND
M  V30 END CTAB
M  END
>  <Dataset>  (919) 
ChEMBL_Kinases

>  <Ligand_Instance>  (919) 
nan

>  <PDB_ID>  (919) 
nan

>  <Standardized_SMILES>  (919) 
O=c1c2cnc(Nc3ccc(C4CCCCC4)cc3)nc2n2ccnc2n1-c1ccccc1Cl

>  <Name>  (919) 
nan

>  <Pocket>  (919) 
nan

>  <ATP_Site>  (919) 
nan

>  <Peripheral>  (919) 
nan

>  <Num_H_Atoms_ProtBoundConf>  (919) 
nan

>  <Num_Resolved_Atoms>  (919) 
nan

>  <Num_Not_Resolved_Atoms>  (919) 
nan

$$$$
CHEMBL3355522
     RDKit          3D

  0  0  0  0  0  0  0  0  0  0999 V3000
M  V30 BEGIN CTAB
M  V30 COUNTS 56 61 0 0 0
M  V30 BEGIN ATOM
M  V30 1 O -3.340328 -3.098289 3.260404 0
M  V30 2 C -2.797871 -3.374667 2.160940 0
M  V30 3 C -1.452290 -3.091971 2.062192 0
M  V30 4 C -0.690478 -2.531714 3.062429 0
M  V30 5 N 0.621667 -2.293952 2.837317 0
M  V30 6 C 1.239801 -2.582056 1.660811 0
M  V30 7 N 2.589877 -2.170420 1.829866 0
M  V30 8 C 2.918385 -0.898725 1.245467 0
M  V30 9 C 4.075731 -0.176203 1.531625 0
M  V30 10 C 4.347070 1.029552 0.925725 0
M  V30 11 C 3.481647 1.574282 0.005241 0
M  V30 12 N 3.695795 2.823273 -0.640316 0
M  V30 13 C 4.463535 3.947418 -0.163889 0
M  V30 14 C 3.703516 5.225114 -0.105966 0
M  V30 15 C 2.533892 5.363454 -1.003672 0
M  V30 16 C 2.090297 4.157666 -1.746603 0
M  V30 17 C 3.148528 3.115979 -1.950020 0
M  V30 18 C 2.328943 0.906588 -0.314335 0
M  V30 19 C 2.078190 -0.291124 0.301483 0
M  V30 20 N 0.493796 -3.129801 0.685707 0
M  V30 21 C -0.812881 -3.381563 0.867503 0
M  V30 22 N -1.439507 -3.920099 -0.188499 0
M  V30 23 C -1.137966 -4.302958 -1.430948 0
M  V30 24 C -2.232122 -4.800639 -2.083141 0
M  V30 25 N -3.233913 -4.711118 -1.189359 0
M  V30 26 C -2.768499 -4.185935 -0.055221 0
M  V30 27 N -3.418214 -3.917611 1.088168 0
M  V30 28 C -4.803844 -4.150089 1.324918 0
M  V30 29 C -5.539762 -3.107718 0.749274 0
M  V30 30 C -6.929368 -3.111633 0.851475 0
M  V30 31 C -7.548553 -4.149688 1.521856 0
M  V30 32 C -6.823522 -5.190059 2.096630 0
M  V30 33 C -5.450112 -5.168627 1.985507 0
M  V30 34 Cl -4.366417 -6.365581 2.628338 0
M  V30 35 H -1.251124 -2.335036 3.963362 0
M  V30 36 H 3.360671 -2.670713 2.319246 0
M  V30 37 H 4.720333 -0.648194 2.259500 0
M  V30 38 H 5.265669 1.566610 1.177242 0
M  V30 39 H 5.355080 4.022845 -0.822460 0
M  V30 40 H 4.828900 3.690294 0.862153 0
M  V30 41 H 3.467028 5.471308 0.962078 0
M  V30 42 H 4.443068 6.032765 -0.392949 0
M  V30 43 H 1.659778 5.657322 -0.341670 0
M  V30 44 H 2.615910 6.263939 -1.686319 0
M  V30 45 H 1.701203 4.509054 -2.745037 0
M  V30 46 H 1.246481 3.639279 -1.212973 0
M  V30 47 H 2.686623 2.218535 -2.414415 0
M  V30 48 H 3.950624 3.537037 -2.592390 0
M  V30 49 H 1.580346 1.242225 -1.021407 0
M  V30 50 H 1.157885 -0.846113 0.060340 0
M  V30 51 H -0.161384 -4.230863 -1.867123 0
M  V30 52 H -2.390386 -5.198054 -3.069105 0
M  V30 53 H -5.181808 -2.245832 0.204438 0
M  V30 54 H -7.565266 -2.343978 0.433993 0
M  V30 55 H -8.627439 -4.157471 1.605912 0
M  V30 56 H -7.263709 -6.021910 2.629523 0
M  V30 END ATOM
M  V30 BEGIN BOND
M  V30 1 2 1 2
M  V30 2 1 2 3
M  V30 3 2 3 4
M  V30 4 1 4 5
M  V30 5 2 5 6
M  V30 6 1 6 7
M  V30 7 1 7 8
M  V30 8 2 8 9
M  V30 9 1 9 10
M  V30 10 2 10 11
M  V30 11 1 11 12
M  V30 12 1 12 13
M  V30 13 1 13 14
M  V30 14 1 14 15
M  V30 15 1 15 16
M  V30 16 1 16 17
M  V30 17 1 11 18
M  V30 18 2 18 19
M  V30 19 1 6 20
M  V30 20 2 20 21
M  V30 21 1 21 22
M  V30 22 1 22 23
M  V30 23 2 23 24
M  V30 24 1 24 25
M  V30 25 2 25 26
M  V30 26 1 26 27
M  V30 27 1 27 28
M  V30 28 2 28 29
M  V30 29 1 29 30
M  V30 30 2 30 31
M  V30 31 1 31 32
M  V30 32 2 32 33
M  V30 33 1 33 34
M  V30 34 1 27 2
M  V30 35 1 33 28
M  V30 36 1 21 3
M  V30 37 1 26 22
M  V30 38 1 19 8
M  V30 39 1 17 12
M  V30 40 1 4 35
M  V30 41 1 7 36
M  V30 42 1 9 37
M  V30 43 1 10 38
M  V30 44 1 13 39
M  V30 45 1 13 40
M  V30 46 1 14 41
M  V30 47 1 14 42
M  V30 48 1 15 43
M  V30 49 1 15 44
M  V30 50 1 16 45
M  V30 51 1 16 46
M  V30 52 1 17 47
M  V30 53 1 17 48
M  V30 54 1 18 49
M  V30 55 1 19 50
M  V30 56 1 23 51
M  V30 57 1 24 52
M  V30 58 1 29 53
M  V30 59 1 30 54
M  V30 60 1 31 55
M  V30 61 1 32 56
M  V30 END BOND
M  V30 END CTAB
M  END
>  <Dataset>  (920) 
ChEMBL_Kinases

>  <Ligand_Instance>  (920) 
nan

>  <PDB_ID>  (920) 
nan

>  <Standardized_SMILES>  (920) 
O=c1c2cnc(Nc3ccc(N4CCCCC4)cc3)nc2n2ccnc2n1-c1ccccc1Cl

>  <Name>  (920) 
nan

>  <Pocket>  (920) 
nan

>  <ATP_Site>  (920) 
nan

>  <Peripheral>  (920) 
nan

>  <Num_H_Atoms_ProtBoundConf>  (920) 
nan

>  <Num_Resolved_Atoms>  (920) 
nan

>  <Num_Not_Resolved_Atoms>  (920) 
nan

$$$$
CHEMBL3355523
     RDKit          3D

  0  0  0  0  0  0  0  0  0  0999 V3000
M  V30 BEGIN CTAB
M  V30 COUNTS 59 64 0 0 0
M  V30 BEGIN ATOM
M  V30 1 C 7.959701 1.817397 1.222113 0
M  V30 2 N 6.697661 1.857939 0.536523 0
M  V30 3 C 6.581632 0.888883 -0.518882 0
M  V30 4 C 5.250884 1.123431 -1.218568 0
M  V30 5 C 4.303730 1.765748 -0.226583 0
M  V30 6 C 2.898746 1.618402 -0.605539 0
M  V30 7 C 2.286538 2.120771 -1.735766 0
M  V30 8 C 0.950212 1.939392 -2.027116 0
M  V30 9 C 0.160820 1.210106 -1.140128 0
M  V30 10 N -1.226651 1.005887 -1.415276 0
M  V30 11 C -2.120431 0.273911 -0.579893 0
M  V30 12 N -2.841264 0.845849 0.429654 0
M  V30 13 C -3.676967 0.122925 1.199228 0
M  V30 14 C -3.835177 -1.237602 0.991179 0
M  V30 15 C -4.687542 -2.005743 1.767518 0
M  V30 16 O -5.349790 -1.475410 2.696473 0
M  V30 17 N -4.770763 -3.322908 1.484209 0
M  V30 18 C -5.628834 -4.173997 2.242984 0
M  V30 19 C -4.932457 -5.246736 2.802796 0
M  V30 20 C -5.534487 -6.202990 3.574530 0
M  V30 21 C -6.907244 -6.072112 3.793377 0
M  V30 22 C -7.611334 -5.020345 3.249276 0
M  V30 23 C -6.985805 -4.066177 2.473724 0
M  V30 24 Cl -7.733874 -2.687654 1.720770 0
M  V30 25 C -4.069657 -3.909812 0.493361 0
M  V30 26 N -4.010727 -5.196573 0.052008 0
M  V30 27 C -3.142125 -5.221080 -0.972939 0
M  V30 28 C -2.641081 -3.939720 -1.189193 0
M  V30 29 N -3.243528 -3.150878 -0.254924 0
M  V30 30 C -3.097603 -1.827648 -0.043281 0
M  V30 31 N -2.278925 -1.049129 -0.776873 0
M  V30 32 C 0.708954 0.678714 0.010721 0
M  V30 33 C 2.054273 0.895366 0.246181 0
M  V30 34 C 4.761008 3.199455 -0.063121 0
M  V30 35 C 6.251730 3.167292 0.201599 0
M  V30 36 H 8.162116 0.836353 1.690368 0
M  V30 37 H 8.809565 2.148047 0.598806 0
M  V30 38 H 7.899950 2.534480 2.071582 0
M  V30 39 H 6.465384 -0.104705 -0.003514 0
M  V30 40 H 7.440273 0.898310 -1.229240 0
M  V30 41 H 4.826732 0.176545 -1.612633 0
M  V30 42 H 5.424969 1.858304 -2.026222 0
M  V30 43 H 4.543493 1.256010 0.751839 0
M  V30 44 H 2.926283 2.686255 -2.411082 0
M  V30 45 H 0.534695 2.363692 -2.936405 0
M  V30 46 H -1.636786 1.416187 -2.289444 0
M  V30 47 H -4.237945 0.604882 1.995544 0
M  V30 48 H -3.852559 -5.426106 2.681517 0
M  V30 49 H -5.017155 -7.042959 4.018658 0
M  V30 50 H -7.409194 -6.807629 4.395646 0
M  V30 51 H -8.679347 -4.877414 3.392514 0
M  V30 52 H -2.778140 -6.020898 -1.630892 0
M  V30 53 H -1.931708 -3.589443 -1.918902 0
M  V30 54 H 0.129815 0.105894 0.726055 0
M  V30 55 H 2.471124 0.477891 1.144628 0
M  V30 56 H 4.217491 3.615455 0.817401 0
M  V30 57 H 4.514093 3.789383 -0.971222 0
M  V30 58 H 6.494785 3.841130 1.042184 0
M  V30 59 H 6.811310 3.520445 -0.707785 0
M  V30 END ATOM
M  V30 BEGIN BOND
M  V30 1 1 1 2
M  V30 2 1 2 3
M  V30 3 1 3 4
M  V30 4 1 4 5
M  V30 5 1 5 6
M  V30 6 2 6 7
M  V30 7 1 7 8
M  V30 8 2 8 9
M  V30 9 1 9 10
M  V30 10 1 10 11
M  V30 11 2 11 12
M  V30 12 1 12 13
M  V30 13 2 13 14
M  V30 14 1 14 15
M  V30 15 2 15 16
M  V30 16 1 15 17
M  V30 17 1 17 18
M  V30 18 2 18 19
M  V30 19 1 19 20
M  V30 20 2 20 21
M  V30 21 1 21 22
M  V30 22 2 22 23
M  V30 23 1 23 24
M  V30 24 1 17 25
M  V30 25 2 25 26
M  V30 26 1 26 27
M  V30 27 2 27 28
M  V30 28 1 28 29
M  V30 29 1 29 30
M  V30 30 2 30 31
M  V30 31 1 9 32
M  V30 32 2 32 33
M  V30 33 1 5 34
M  V30 34 1 34 35
M  V30 35 1 35 2
M  V30 36 1 33 6
M  V30 37 1 31 11
M  V30 38 1 30 14
M  V30 39 1 23 18
M  V30 40 1 29 25
M  V30 41 1 1 36
M  V30 42 1 1 37
M  V30 43 1 1 38
M  V30 44 1 3 39
M  V30 45 1 3 40
M  V30 46 1 4 41
M  V30 47 1 4 42
M  V30 48 1 5 43
M  V30 49 1 7 44
M  V30 50 1 8 45
M  V30 51 1 10 46
M  V30 52 1 13 47
M  V30 53 1 19 48
M  V30 54 1 20 49
M  V30 55 1 21 50
M  V30 56 1 22 51
M  V30 57 1 27 52
M  V30 58 1 28 53
M  V30 59 1 32 54
M  V30 60 1 33 55
M  V30 61 1 34 56
M  V30 62 1 34 57
M  V30 63 1 35 58
M  V30 64 1 35 59
M  V30 END BOND
M  V30 END CTAB
M  END
>  <Dataset>  (921) 
ChEMBL_Kinases

>  <Ligand_Instance>  (921) 
nan

>  <PDB_ID>  (921) 
nan

>  <Standardized_SMILES>  (921) 
CN1CCC(c2ccc(Nc3ncc4c(=O)n(-c5ccccc5Cl)c5nccn5c4n3)cc2)CC1

>  <Name>  (921) 
nan

>  <Pocket>  (921) 
nan

>  <ATP_Site>  (921) 
nan

>  <Peripheral>  (921) 
nan

>  <Num_H_Atoms_ProtBoundConf>  (921) 
nan

>  <Num_Resolved_Atoms>  (921) 
nan

>  <Num_Not_Resolved_Atoms>  (921) 
nan

$$$$
CHEMBL3355524
     RDKit          3D

  0  0  0  0  0  0  0  0  0  0999 V3000
M  V30 BEGIN CTAB
M  V30 COUNTS 60 65 0 0 0
M  V30 BEGIN ATOM
M  V30 1 C 3.505845 0.152518 5.241753 0
M  V30 2 C 4.152976 -0.502335 4.100156 0
M  V30 3 O 3.808406 -1.724355 3.953549 0
M  V30 4 N 5.088618 0.160651 3.222638 0
M  V30 5 C 5.697556 1.494010 3.091083 0
M  V30 6 C 5.468143 1.968201 1.691139 0
M  V30 7 N 4.517419 1.164935 0.943462 0
M  V30 8 C 3.218864 1.459992 0.436416 0
M  V30 9 C 2.324492 0.439847 0.186285 0
M  V30 10 C 1.084495 0.790983 -0.321320 0
M  V30 11 C 0.669396 2.079334 -0.597917 0
M  V30 12 N -0.655205 2.312734 -1.114972 0
M  V30 13 C -1.515269 1.181224 -1.090848 0
M  V30 14 N -2.266936 1.266870 0.026110 0
M  V30 15 C -3.197975 0.353269 0.386011 0
M  V30 16 C -3.404564 -0.730381 -0.419144 0
M  V30 17 C -4.332975 -1.725623 -0.127132 0
M  V30 18 O -4.980357 -1.553909 0.932217 0
M  V30 19 N -4.431279 -2.758870 -1.012464 0
M  V30 20 C -5.388816 -3.745806 -0.670408 0
M  V30 21 C -6.464215 -4.037761 -1.495219 0
M  V30 22 C -7.376248 -5.007929 -1.118353 0
M  V30 23 C -7.238090 -5.699106 0.072477 0
M  V30 24 C -6.149913 -5.361811 0.844070 0
M  V30 25 C -5.195140 -4.409049 0.543119 0
M  V30 26 Cl -3.844226 -4.070862 1.611877 0
M  V30 27 C -3.647513 -2.774002 -2.103806 0
M  V30 28 N -3.660687 -3.741482 -3.043630 0
M  V30 29 C -2.752262 -3.423476 -3.977763 0
M  V30 30 C -2.151780 -2.214506 -3.606706 0
M  V30 31 N -2.733978 -1.840711 -2.436387 0
M  V30 32 C -2.632913 -0.822077 -1.569182 0
M  V30 33 N -1.692082 0.110154 -1.923176 0
M  V30 34 C 1.594658 3.078507 -0.334027 0
M  V30 35 C 2.837973 2.759179 0.172157 0
M  V30 36 C 5.235630 -0.078205 0.799386 0
M  V30 37 C 5.609911 -0.677287 2.135344 0
M  V30 38 H 2.486064 0.522201 4.926628 0
M  V30 39 H 3.363009 -0.566926 6.085477 0
M  V30 40 H 4.062841 1.055081 5.550132 0
M  V30 41 H 6.802229 1.328577 3.184781 0
M  V30 42 H 5.313570 2.196757 3.837146 0
M  V30 43 H 5.007982 3.000756 1.768141 0
M  V30 44 H 6.426122 2.131661 1.112384 0
M  V30 45 H 2.557692 -0.610846 0.372813 0
M  V30 46 H 0.408410 -0.059261 -0.502812 0
M  V30 47 H -0.850056 3.281366 -1.453957 0
M  V30 48 H -3.809929 0.405599 1.278397 0
M  V30 49 H -6.511983 -3.462237 -2.408907 0
M  V30 50 H -8.203592 -5.201769 -1.798673 0
M  V30 51 H -7.946086 -6.457747 0.370630 0
M  V30 52 H -5.990540 -5.874760 1.797631 0
M  V30 53 H -2.359407 -3.824941 -4.911041 0
M  V30 54 H -1.382912 -1.595436 -4.056214 0
M  V30 55 H 1.240949 4.077256 -0.561395 0
M  V30 56 H 3.522699 3.574082 0.360575 0
M  V30 57 H 6.123957 0.043447 0.153165 0
M  V30 58 H 4.570288 -0.796379 0.286727 0
M  V30 59 H 5.308364 -1.738122 2.231257 0
M  V30 60 H 6.715046 -0.646185 2.215186 0
M  V30 END ATOM
M  V30 BEGIN BOND
M  V30 1 1 1 2
M  V30 2 2 2 3
M  V30 3 1 2 4
M  V30 4 1 4 5
M  V30 5 1 5 6
M  V30 6 1 6 7
M  V30 7 1 7 8
M  V30 8 2 8 9
M  V30 9 1 9 10
M  V30 10 2 10 11
M  V30 11 1 11 12
M  V30 12 1 12 13
M  V30 13 2 13 14
M  V30 14 1 14 15
M  V30 15 2 15 16
M  V30 16 1 16 17
M  V30 17 2 17 18
M  V30 18 1 17 19
M  V30 19 1 19 20
M  V30 20 2 20 21
M  V30 21 1 21 22
M  V30 22 2 22 23
M  V30 23 1 23 24
M  V30 24 2 24 25
M  V30 25 1 25 26
M  V30 26 1 19 27
M  V30 27 2 27 28
M  V30 28 1 28 29
M  V30 29 2 29 30
M  V30 30 1 30 31
M  V30 31 1 31 32
M  V30 32 2 32 33
M  V30 33 1 11 34
M  V30 34 2 34 35
M  V30 35 1 7 36
M  V30 36 1 36 37
M  V30 37 1 37 4
M  V30 38 1 35 8
M  V30 39 1 33 13
M  V30 40 1 32 16
M  V30 41 1 25 20
M  V30 42 1 31 27
M  V30 43 1 1 38
M  V30 44 1 1 39
M  V30 45 1 1 40
M  V30 46 1 5 41
M  V30 47 1 5 42
M  V30 48 1 6 43
M  V30 49 1 6 44
M  V30 50 1 9 45
M  V30 51 1 10 46
M  V30 52 1 12 47
M  V30 53 1 15 48
M  V30 54 1 21 49
M  V30 55 1 22 50
M  V30 56 1 23 51
M  V30 57 1 24 52
M  V30 58 1 29 53
M  V30 59 1 30 54
M  V30 60 1 34 55
M  V30 61 1 35 56
M  V30 62 1 36 57
M  V30 63 1 36 58
M  V30 64 1 37 59
M  V30 65 1 37 60
M  V30 END BOND
M  V30 END CTAB
M  END
>  <Dataset>  (922) 
ChEMBL_Kinases

>  <Ligand_Instance>  (922) 
nan

>  <PDB_ID>  (922) 
nan

>  <Standardized_SMILES>  (922) 
CC(=O)N1CCN(c2ccc(Nc3ncc4c(=O)n(-c5ccccc5Cl)c5nccn5c4n3)cc2)CC1

>  <Name>  (922) 
nan

>  <Pocket>  (922) 
nan

>  <ATP_Site>  (922) 
nan

>  <Peripheral>  (922) 
nan

>  <Num_H_Atoms_ProtBoundConf>  (922) 
nan

>  <Num_Resolved_Atoms>  (922) 
nan

>  <Num_Not_Resolved_Atoms>  (922) 
nan

$$$$
CHEMBL3355525
     RDKit          3D

  0  0  0  0  0  0  0  0  0  0999 V3000
M  V30 BEGIN CTAB
M  V30 COUNTS 58 63 0 0 0
M  V30 BEGIN ATOM
M  V30 1 C 5.197192 1.340771 1.909529 0
M  V30 2 N 5.070724 0.574209 0.706233 0
M  V30 3 C 3.830847 -0.170975 0.629784 0
M  V30 4 C 2.931131 0.353246 -0.467018 0
M  V30 5 N 2.925962 1.794825 -0.499834 0
M  V30 6 C 1.840375 2.662097 -0.208198 0
M  V30 7 C 1.915522 4.015861 -0.321672 0
M  V30 8 C 0.858500 4.850309 -0.033591 0
M  V30 9 C -0.345432 4.362458 0.389198 0
M  V30 10 C -0.459313 2.983931 0.516790 0
M  V30 11 N -1.710060 2.424741 0.959889 0
M  V30 12 C -1.935806 1.023831 1.124661 0
M  V30 13 N -1.658574 0.479766 2.343666 0
M  V30 14 C -1.855236 -0.856394 2.557244 0
M  V30 15 C -2.338967 -1.612298 1.497220 0
M  V30 16 C -2.547260 -2.981984 1.690717 0
M  V30 17 O -2.288546 -3.461155 2.810741 0
M  V30 18 N -3.022531 -3.690986 0.624977 0
M  V30 19 C -3.195042 -5.071667 0.932324 0
M  V30 20 C -2.127928 -5.863787 0.552082 0
M  V30 21 C -2.184283 -7.222362 0.800147 0
M  V30 22 C -3.292827 -7.796128 1.422637 0
M  V30 23 C -4.351705 -6.975854 1.794595 0
M  V30 24 C -4.322845 -5.615427 1.559337 0
M  V30 25 Cl -5.610086 -4.508728 1.993764 0
M  V30 26 C -3.285452 -3.119244 -0.565441 0
M  V30 27 N -3.755051 -3.699402 -1.691054 0
M  V30 28 C -3.847476 -2.704458 -2.603546 0
M  V30 29 C -3.431632 -1.503977 -2.033822 0
M  V30 30 N -3.090963 -1.801344 -0.770387 0
M  V30 31 C -2.622850 -1.058858 0.251320 0
M  V30 32 N -2.407009 0.279860 0.097077 0
M  V30 33 C 0.620381 2.191379 0.218710 0
M  V30 34 C 4.227244 2.276261 -0.883118 0
M  V30 35 C 5.330940 1.320397 -0.505511 0
M  V30 36 H 5.113116 2.423040 1.681505 0
M  V30 37 H 4.418517 1.051676 2.655513 0
M  V30 38 H 6.172866 1.086314 2.393964 0
M  V30 39 H 4.056957 -1.229262 0.427385 0
M  V30 40 H 3.280799 -0.134896 1.596675 0
M  V30 41 H 3.251226 -0.006102 -1.465910 0
M  V30 42 H 1.930893 -0.063277 -0.296540 0
M  V30 43 H 2.816127 4.513209 -0.647683 0
M  V30 44 H 0.931964 5.919341 -0.128312 0
M  V30 45 H -1.202245 4.969810 0.627238 0
M  V30 46 H -2.503713 3.052482 1.176557 0
M  V30 47 H -1.634854 -1.294394 3.530340 0
M  V30 48 H -1.242450 -5.482721 0.066665 0
M  V30 49 H -1.380995 -7.907064 0.528378 0
M  V30 50 H -3.395055 -8.844608 1.641816 0
M  V30 51 H -5.266754 -7.300348 2.284150 0
M  V30 52 H -4.186558 -2.777618 -3.633465 0
M  V30 53 H -3.389802 -0.521533 -2.511524 0
M  V30 54 H 0.435827 1.135127 0.348566 0
M  V30 55 H 4.230800 2.293434 -2.011365 0
M  V30 56 H 4.432486 3.299141 -0.577935 0
M  V30 57 H 6.240804 1.943801 -0.293594 0
M  V30 58 H 5.572706 0.617679 -1.304613 0
M  V30 END ATOM
M  V30 BEGIN BOND
M  V30 1 1 1 2
M  V30 2 1 2 3
M  V30 3 1 3 4
M  V30 4 1 4 5
M  V30 5 1 5 6
M  V30 6 2 6 7
M  V30 7 1 7 8
M  V30 8 2 8 9
M  V30 9 1 9 10
M  V30 10 1 10 11
M  V30 11 1 11 12
M  V30 12 2 12 13
M  V30 13 1 13 14
M  V30 14 2 14 15
M  V30 15 1 15 16
M  V30 16 2 16 17
M  V30 17 1 16 18
M  V30 18 1 18 19
M  V30 19 2 19 20
M  V30 20 1 20 21
M  V30 21 2 21 22
M  V30 22 1 22 23
M  V30 23 2 23 24
M  V30 24 1 24 25
M  V30 25 1 18 26
M  V30 26 2 26 27
M  V30 27 1 27 28
M  V30 28 2 28 29
M  V30 29 1 29 30
M  V30 30 1 30 31
M  V30 31 2 31 32
M  V30 32 2 10 33
M  V30 33 1 5 34
M  V30 34 1 34 35
M  V30 35 1 35 2
M  V30 36 1 33 6
M  V30 37 1 32 12
M  V30 38 1 31 15
M  V30 39 1 24 19
M  V30 40 1 30 26
M  V30 41 1 1 36
M  V30 42 1 1 37
M  V30 43 1 1 38
M  V30 44 1 3 39
M  V30 45 1 3 40
M  V30 46 1 4 41
M  V30 47 1 4 42
M  V30 48 1 7 43
M  V30 49 1 8 44
M  V30 50 1 9 45
M  V30 51 1 11 46
M  V30 52 1 14 47
M  V30 53 1 20 48
M  V30 54 1 21 49
M  V30 55 1 22 50
M  V30 56 1 23 51
M  V30 57 1 28 52
M  V30 58 1 29 53
M  V30 59 1 33 54
M  V30 60 1 34 55
M  V30 61 1 34 56
M  V30 62 1 35 57
M  V30 63 1 35 58
M  V30 END BOND
M  V30 END CTAB
M  END
>  <Dataset>  (923) 
ChEMBL_Kinases

>  <Ligand_Instance>  (923) 
nan

>  <PDB_ID>  (923) 
nan

>  <Standardized_SMILES>  (923) 
CN1CCN(c2cccc(Nc3ncc4c(=O)n(-c5ccccc5Cl)c5nccn5c4n3)c2)CC1

>  <Name>  (923) 
nan

>  <Pocket>  (923) 
nan

>  <ATP_Site>  (923) 
nan

>  <Peripheral>  (923) 
nan

>  <Num_H_Atoms_ProtBoundConf>  (923) 
nan

>  <Num_Resolved_Atoms>  (923) 
nan

>  <Num_Not_Resolved_Atoms>  (923) 
nan

$$$$
CHEMBL3355527
     RDKit          3D

  0  0  0  0  0  0  0  0  0  0999 V3000
M  V30 BEGIN CTAB
M  V30 COUNTS 51 56 0 0 0
M  V30 BEGIN ATOM
M  V30 1 O 0.515108 -4.255962 -2.309905 0
M  V30 2 C -0.142539 -3.768451 -1.333749 0
M  V30 3 C 0.493529 -2.949201 -0.403010 0
M  V30 4 C 1.831208 -2.650995 -0.500291 0
M  V30 5 N 2.414747 -1.867643 0.412920 0
M  V30 6 C 1.725994 -1.344248 1.453289 0
M  V30 7 N 2.111539 -0.514940 2.538670 0
M  V30 8 C 2.189369 0.887352 2.321458 0
M  V30 9 C 2.078862 1.404664 1.045884 0
M  V30 10 C 2.137664 2.748449 0.780558 0
M  V30 11 C 2.317256 3.632793 1.846625 0
M  V30 12 C 2.430707 3.142068 3.135828 0
M  V30 13 C 2.368430 1.771864 3.386078 0
M  V30 14 C 2.601605 4.145317 4.252543 0
M  V30 15 C 1.360888 5.040935 4.139135 0
M  V30 16 C 1.244242 5.573836 2.737458 0
M  V30 17 C 2.420490 5.131798 1.848862 0
M  V30 18 N 0.409273 -1.626112 1.564977 0
M  V30 19 C -0.213415 -2.416625 0.657489 0
M  V30 20 N -1.539211 -2.725101 0.748004 0
M  V30 21 C -2.384040 -2.321406 1.681290 0
M  V30 22 C -3.593952 -2.919914 1.307080 0
M  V30 23 N -3.410049 -3.638351 0.186052 0
M  V30 24 C -2.132140 -3.514489 -0.156527 0
M  V30 25 N -1.458790 -4.051578 -1.209243 0
M  V30 26 C -2.178952 -4.875975 -2.115616 0
M  V30 27 C -2.375138 -6.215484 -1.849679 0
M  V30 28 C -3.108238 -6.922704 -2.815181 0
M  V30 29 C -3.609239 -6.334763 -3.964157 0
M  V30 30 C -3.374844 -4.991655 -4.165964 0
M  V30 31 C -2.664007 -4.252286 -3.252925 0
M  V30 32 Cl -2.411031 -2.558204 -3.586373 0
M  V30 33 H 2.432514 -3.032643 -1.298316 0
M  V30 34 H 2.338683 -0.871567 3.480844 0
M  V30 35 H 1.939901 0.774439 0.195682 0
M  V30 36 H 2.066907 3.272478 -0.159921 0
M  V30 37 H 2.458413 1.391781 4.396015 0
M  V30 38 H 3.541518 4.691753 4.162510 0
M  V30 39 H 2.512446 3.582515 5.194339 0
M  V30 40 H 1.373187 5.852854 4.915660 0
M  V30 41 H 0.487930 4.390547 4.398349 0
M  V30 42 H 0.347435 5.084688 2.269291 0
M  V30 43 H 1.071696 6.667439 2.677167 0
M  V30 44 H 3.392555 5.475922 2.259537 0
M  V30 45 H 2.217248 5.552165 0.842922 0
M  V30 46 H -2.219247 -1.694132 2.526364 0
M  V30 47 H -4.562093 -2.857540 1.794879 0
M  V30 48 H -1.990855 -6.707169 -0.949474 0
M  V30 49 H -3.271950 -7.996315 -2.612029 0
M  V30 50 H -4.164885 -6.910614 -4.676293 0
M  V30 51 H -3.779026 -4.556301 -5.074449 0
M  V30 END ATOM
M  V30 BEGIN BOND
M  V30 1 2 1 2
M  V30 2 1 2 3
M  V30 3 2 3 4
M  V30 4 1 4 5
M  V30 5 2 5 6
M  V30 6 1 6 7
M  V30 7 1 7 8
M  V30 8 2 8 9
M  V30 9 1 9 10
M  V30 10 2 10 11
M  V30 11 1 11 12
M  V30 12 2 12 13
M  V30 13 1 12 14
M  V30 14 1 14 15
M  V30 15 1 15 16
M  V30 16 1 16 17
M  V30 17 1 6 18
M  V30 18 2 18 19
M  V30 19 1 19 20
M  V30 20 1 20 21
M  V30 21 2 21 22
M  V30 22 1 22 23
M  V30 23 2 23 24
M  V30 24 1 24 25
M  V30 25 1 25 26
M  V30 26 2 26 27
M  V30 27 1 27 28
M  V30 28 2 28 29
M  V30 29 1 29 30
M  V30 30 2 30 31
M  V30 31 1 31 32
M  V30 32 1 25 2
M  V30 33 1 31 26
M  V30 34 1 19 3
M  V30 35 1 24 20
M  V30 36 1 13 8
M  V30 37 1 17 11
M  V30 38 1 4 33
M  V30 39 1 7 34
M  V30 40 1 9 35
M  V30 41 1 10 36
M  V30 42 1 13 37
M  V30 43 1 14 38
M  V30 44 1 14 39
M  V30 45 1 15 40
M  V30 46 1 15 41
M  V30 47 1 16 42
M  V30 48 1 16 43
M  V30 49 1 17 44
M  V30 50 1 17 45
M  V30 51 1 21 46
M  V30 52 1 22 47
M  V30 53 1 27 48
M  V30 54 1 28 49
M  V30 55 1 29 50
M  V30 56 1 30 51
M  V30 END BOND
M  V30 END CTAB
M  END
>  <Dataset>  (924) 
ChEMBL_Kinases

>  <Ligand_Instance>  (924) 
nan

>  <PDB_ID>  (924) 
nan

>  <Standardized_SMILES>  (924) 
O=c1c2cnc(Nc3ccc4c(c3)CCCC4)nc2n2ccnc2n1-c1ccccc1Cl

>  <Name>  (924) 
nan

>  <Pocket>  (924) 
nan

>  <ATP_Site>  (924) 
nan

>  <Peripheral>  (924) 
nan

>  <Num_H_Atoms_ProtBoundConf>  (924) 
nan

>  <Num_Resolved_Atoms>  (924) 
nan

>  <Num_Not_Resolved_Atoms>  (924) 
nan

$$$$
CHEMBL3355537
     RDKit          3D

  0  0  0  0  0  0  0  0  0  0999 V3000
M  V30 BEGIN CTAB
M  V30 COUNTS 57 63 0 0 0
M  V30 BEGIN ATOM
M  V30 1 C 4.784542 -5.475694 0.011755 0
M  V30 2 N 4.894581 -4.815548 -1.269785 0
M  V30 3 C 5.041211 -3.397439 -1.145476 0
M  V30 4 C 3.666434 -2.825302 -0.972458 0
M  V30 5 C 3.512695 -1.855331 -0.027166 0
M  V30 6 C 2.270764 -1.256357 0.212513 0
M  V30 7 N 2.123276 -0.248568 1.198274 0
M  V30 8 C 0.957017 0.462151 1.581030 0
M  V30 9 N 1.026310 1.390873 2.548897 0
M  V30 10 C 0.009718 2.112905 2.987696 0
M  V30 11 C -1.219333 1.897024 2.407246 0
M  V30 12 C -2.332467 2.607104 2.805681 0
M  V30 13 O -2.234655 3.478366 3.723298 0
M  V30 14 N -3.533450 2.362671 2.204395 0
M  V30 15 C -4.662060 3.112775 2.638974 0
M  V30 16 C -5.202987 2.696201 3.845756 0
M  V30 17 F -4.750772 1.658438 4.620350 0
M  V30 18 C -6.313866 3.343023 4.391057 0
M  V30 19 C -6.898185 4.417676 3.732913 0
M  V30 20 C -6.340470 4.812487 2.533362 0
M  V30 21 C -5.243989 4.178716 1.989103 0
M  V30 22 Cl -4.506496 4.649871 0.468270 0
M  V30 23 C -3.631879 1.433527 1.227455 0
M  V30 24 N -4.668857 1.012059 0.493706 0
M  V30 25 C -4.305425 0.053946 -0.377311 0
M  V30 26 C -2.942198 -0.119228 -0.154698 0
M  V30 27 N -2.559605 0.725739 0.819400 0
M  V30 28 C -1.368413 0.969560 1.417200 0
M  V30 29 N -0.265076 0.301672 1.059134 0
M  V30 30 C 1.264305 -1.739671 -0.583476 0
M  V30 31 C 1.402423 -2.717511 -1.541538 0
M  V30 32 C 2.624582 -3.275894 -1.745557 0
M  V30 33 C 2.948205 -4.317121 -2.712230 0
M  V30 34 C 1.811487 -4.997996 -3.481108 0
M  V30 35 C 2.723386 -4.016903 -4.151699 0
M  V30 36 C 4.019200 -5.265020 -2.277225 0
M  V30 37 H 5.492336 -6.337955 -0.004841 0
M  V30 38 H 3.751490 -5.811645 0.221730 0
M  V30 39 H 5.086688 -4.725946 0.783588 0
M  V30 40 H 5.409457 -3.001793 -2.126662 0
M  V30 41 H 5.693558 -3.167863 -0.303588 0
M  V30 42 H 4.358562 -1.526899 0.562374 0
M  V30 43 H 3.015683 0.001951 1.716469 0
M  V30 44 H 0.154672 2.833450 3.765504 0
M  V30 45 H -6.766500 3.037579 5.345449 0
M  V30 46 H -7.762525 4.915950 4.163591 0
M  V30 47 H -6.751331 5.643084 1.974408 0
M  V30 48 H -4.859140 -0.510867 -1.115527 0
M  V30 49 H -2.311127 -0.824032 -0.688646 0
M  V30 50 H 0.265504 -1.349982 -0.484968 0
M  V30 51 H 0.569910 -3.057213 -2.139186 0
M  V30 52 H 1.964118 -6.048319 -3.820550 0
M  V30 53 H 0.767478 -4.741211 -3.255659 0
M  V30 54 H 3.475923 -4.378661 -4.869973 0
M  V30 55 H 2.259462 -3.038132 -4.418145 0
M  V30 56 H 4.604416 -5.555850 -3.177721 0
M  V30 57 H 3.543426 -6.222600 -1.914296 0
M  V30 END ATOM
M  V30 BEGIN BOND
M  V30 1 1 1 2
M  V30 2 1 2 3
M  V30 3 1 3 4
M  V30 4 2 4 5
M  V30 5 1 5 6
M  V30 6 1 6 7
M  V30 7 1 7 8
M  V30 8 2 8 9
M  V30 9 1 9 10
M  V30 10 2 10 11
M  V30 11 1 11 12
M  V30 12 2 12 13
M  V30 13 1 12 14
M  V30 14 1 14 15
M  V30 15 2 15 16
M  V30 16 1 16 17
M  V30 17 1 16 18
M  V30 18 2 18 19
M  V30 19 1 19 20
M  V30 20 2 20 21
M  V30 21 1 21 22
M  V30 22 1 14 23
M  V30 23 2 23 24
M  V30 24 1 24 25
M  V30 25 2 25 26
M  V30 26 1 26 27
M  V30 27 1 27 28
M  V30 28 2 28 29
M  V30 29 2 6 30
M  V30 30 1 30 31
M  V30 31 2 31 32
M  V30 32 1 32 33
M  V30 33 1 33 34
M  V30 34 1 34 35
M  V30 35 1 33 36
M  V30 36 1 36 2
M  V30 37 1 32 4
M  V30 38 1 35 33
M  V30 39 1 29 8
M  V30 40 1 28 11
M  V30 41 1 21 15
M  V30 42 1 27 23
M  V30 43 1 1 37
M  V30 44 1 1 38
M  V30 45 1 1 39
M  V30 46 1 3 40
M  V30 47 1 3 41
M  V30 48 1 5 42
M  V30 49 1 7 43
M  V30 50 1 10 44
M  V30 51 1 18 45
M  V30 52 1 19 46
M  V30 53 1 20 47
M  V30 54 1 25 48
M  V30 55 1 26 49
M  V30 56 1 30 50
M  V30 57 1 31 51
M  V30 58 1 34 52
M  V30 59 1 34 53
M  V30 60 1 35 54
M  V30 61 1 35 55
M  V30 62 1 36 56
M  V30 63 1 36 57
M  V30 END BOND
M  V30 END CTAB
M  END
>  <Dataset>  (925) 
ChEMBL_Kinases

>  <Ligand_Instance>  (925) 
nan

>  <PDB_ID>  (925) 
nan

>  <Standardized_SMILES>  (925) 
CN1Cc2cc(Nc3ncc4c(=O)n(-c5c(F)cccc5Cl)c5nccn5c4n3)ccc2C2(CC2)C1

>  <Name>  (925) 
nan

>  <Pocket>  (925) 
nan

>  <ATP_Site>  (925) 
nan

>  <Peripheral>  (925) 
nan

>  <Num_H_Atoms_ProtBoundConf>  (925) 
nan

>  <Num_Resolved_Atoms>  (925) 
nan

>  <Num_Not_Resolved_Atoms>  (925) 
nan

$$$$
CHEMBL3355529
     RDKit          3D

  0  0  0  0  0  0  0  0  0  0999 V3000
M  V30 BEGIN CTAB
M  V30 COUNTS 53 58 0 0 0
M  V30 BEGIN ATOM
M  V30 1 C 1.537314 -0.875642 4.308969 0
M  V30 2 N 2.719340 -0.438247 3.617587 0
M  V30 3 C 4.046748 -1.002332 3.875939 0
M  V30 4 C 4.803010 -1.232551 2.586704 0
M  V30 5 C 5.033154 0.117780 1.949461 0
M  V30 6 C 3.784859 0.884646 1.820495 0
M  V30 7 C 3.706129 1.896062 0.885737 0
M  V30 8 C 2.551940 2.633001 0.724742 0
M  V30 9 C 1.439168 2.377394 1.498451 0
M  V30 10 N 0.215949 3.099424 1.399473 0
M  V30 11 C -0.543569 2.117389 0.700228 0
M  V30 12 N -0.839911 2.590238 -0.549559 0
M  V30 13 C -1.549374 1.818439 -1.431631 0
M  V30 14 C -1.906698 0.587717 -0.944376 0
M  V30 15 C -2.620145 -0.261087 -1.796256 0
M  V30 16 O -2.964924 0.029201 -2.970517 0
M  V30 17 N -2.975550 -1.499980 -1.335759 0
M  V30 18 C -3.697013 -2.417416 -2.144862 0
M  V30 19 C -5.052686 -2.563838 -2.386245 0
M  V30 20 C -5.547167 -3.539835 -3.215617 0
M  V30 21 C -4.677897 -4.415548 -3.838898 0
M  V30 22 C -3.314545 -4.313414 -3.630928 0
M  V30 23 C -2.838738 -3.318549 -2.789343 0
M  V30 24 Cl -1.075851 -3.330493 -2.637090 0
M  V30 25 C -2.659616 -1.919910 -0.095120 0
M  V30 26 N -2.910044 -3.097768 0.541283 0
M  V30 27 C -2.368172 -2.993264 1.766602 0
M  V30 28 C -1.761114 -1.750658 1.940260 0
M  V30 29 N -1.973679 -1.143568 0.768943 0
M  V30 30 C -1.636104 0.063721 0.297115 0
M  V30 31 N -0.935006 0.873393 1.119174 0
M  V30 32 C 1.531167 1.346477 2.446910 0
M  V30 33 C 2.696110 0.581641 2.630156 0
M  V30 34 H 0.907989 -0.029591 4.689391 0
M  V30 35 H 1.826879 -1.420573 5.260398 0
M  V30 36 H 0.943066 -1.628480 3.752866 0
M  V30 37 H 3.936103 -1.913548 4.472383 0
M  V30 38 H 4.620078 -0.220526 4.433033 0
M  V30 39 H 5.759272 -1.705932 2.854091 0
M  V30 40 H 4.216757 -1.858040 1.876317 0
M  V30 41 H 5.767622 0.724583 2.510149 0
M  V30 42 H 5.409715 -0.064400 0.919134 0
M  V30 43 H 4.567667 2.109251 0.266103 0
M  V30 44 H 2.453428 3.428794 0.004528 0
M  V30 45 H -0.094727 4.047851 1.714267 0
M  V30 46 H -1.821295 2.125822 -2.432093 0
M  V30 47 H -5.623551 -1.805413 -1.827054 0
M  V30 48 H -6.621919 -3.553171 -3.326755 0
M  V30 49 H -5.200976 -5.129866 -4.460172 0
M  V30 50 H -2.695220 -5.031346 -4.144936 0
M  V30 51 H -2.389886 -3.762936 2.530148 0
M  V30 52 H -1.248929 -1.378160 2.811490 0
M  V30 53 H 0.656904 1.149276 3.052286 0
M  V30 END ATOM
M  V30 BEGIN BOND
M  V30 1 1 1 2
M  V30 2 1 2 3
M  V30 3 1 3 4
M  V30 4 1 4 5
M  V30 5 1 5 6
M  V30 6 2 6 7
M  V30 7 1 7 8
M  V30 8 2 8 9
M  V30 9 1 9 10
M  V30 10 1 10 11
M  V30 11 2 11 12
M  V30 12 1 12 13
M  V30 13 2 13 14
M  V30 14 1 14 15
M  V30 15 2 15 16
M  V30 16 1 15 17
M  V30 17 1 17 18
M  V30 18 2 18 19
M  V30 19 1 19 20
M  V30 20 2 20 21
M  V30 21 1 21 22
M  V30 22 2 22 23
M  V30 23 1 23 24
M  V30 24 1 17 25
M  V30 25 2 25 26
M  V30 26 1 26 27
M  V30 27 2 27 28
M  V30 28 1 28 29
M  V30 29 1 29 30
M  V30 30 2 30 31
M  V30 31 1 9 32
M  V30 32 2 32 33
M  V30 33 1 33 2
M  V30 34 1 33 6
M  V30 35 1 31 11
M  V30 36 1 30 14
M  V30 37 1 23 18
M  V30 38 1 29 25
M  V30 39 1 1 34
M  V30 40 1 1 35
M  V30 41 1 1 36
M  V30 42 1 3 37
M  V30 43 1 3 38
M  V30 44 1 4 39
M  V30 45 1 4 40
M  V30 46 1 5 41
M  V30 47 1 5 42
M  V30 48 1 7 43
M  V30 49 1 8 44
M  V30 50 1 10 45
M  V30 51 1 13 46
M  V30 52 1 19 47
M  V30 53 1 20 48
M  V30 54 1 21 49
M  V30 55 1 22 50
M  V30 56 1 27 51
M  V30 57 1 28 52
M  V30 58 1 32 53
M  V30 END BOND
M  V30 END CTAB
M  END
>  <Dataset>  (926) 
ChEMBL_Kinases

>  <Ligand_Instance>  (926) 
nan

>  <PDB_ID>  (926) 
nan

>  <Standardized_SMILES>  (926) 
CN1CCCc2ccc(Nc3ncc4c(=O)n(-c5ccccc5Cl)c5nccn5c4n3)cc21

>  <Name>  (926) 
nan

>  <Pocket>  (926) 
nan

>  <ATP_Site>  (926) 
nan

>  <Peripheral>  (926) 
nan

>  <Num_H_Atoms_ProtBoundConf>  (926) 
nan

>  <Num_Resolved_Atoms>  (926) 
nan

>  <Num_Not_Resolved_Atoms>  (926) 
nan

$$$$
CHEMBL3355530
     RDKit          3D

  0  0  0  0  0  0  0  0  0  0999 V3000
M  V30 BEGIN CTAB
M  V30 COUNTS 53 58 0 0 0
M  V30 BEGIN ATOM
M  V30 1 C 4.528386 -1.812786 4.443437 0
M  V30 2 N 5.016609 -0.785120 3.539244 0
M  V30 3 C 6.394374 -0.350690 3.683067 0
M  V30 4 C 6.906591 0.130200 2.355066 0
M  V30 5 C 6.015199 1.176193 1.742326 0
M  V30 6 C 4.616077 0.712087 1.674352 0
M  V30 7 C 3.756702 1.239984 0.713493 0
M  V30 8 C 2.435606 0.812060 0.638268 0
M  V30 9 N 1.490588 1.301876 -0.311371 0
M  V30 10 C 0.145918 0.844193 -0.360957 0
M  V30 11 N -0.711177 1.524275 0.421478 0
M  V30 12 C -2.018028 1.234610 0.502212 0
M  V30 13 C -2.525241 0.186311 -0.251393 0
M  V30 14 C -3.863844 -0.150603 -0.202641 0
M  V30 15 O -4.566524 0.549173 0.557929 0
M  V30 16 N -4.272626 -1.195438 -0.977591 0
M  V30 17 C -5.659872 -1.509070 -0.895918 0
M  V30 18 C -6.143624 -1.938716 0.345856 0
M  V30 19 C -7.482558 -2.253625 0.469014 0
M  V30 20 C -8.389370 -2.172085 -0.564990 0
M  V30 21 C -7.897110 -1.742604 -1.799657 0
M  V30 22 C -6.566696 -1.427183 -1.931314 0
M  V30 23 Cl -5.963057 -0.890041 -3.485033 0
M  V30 24 C -3.390713 -1.856900 -1.750552 0
M  V30 25 N -3.645542 -2.893034 -2.556871 0
M  V30 26 C -2.481022 -3.271061 -3.162521 0
M  V30 27 C -1.500868 -2.401023 -2.675248 0
M  V30 28 N -2.083690 -1.544988 -1.812562 0
M  V30 29 C -1.650685 -0.517651 -1.058202 0
M  V30 30 N -0.360000 -0.172275 -1.088082 0
M  V30 31 C 2.000176 -0.144104 1.535017 0
M  V30 32 C 2.827458 -0.687099 2.499121 0
M  V30 33 C 4.118044 -0.247536 2.548581 0
M  V30 34 H 3.527681 -1.528375 4.873814 0
M  V30 35 H 5.207208 -1.939059 5.293403 0
M  V30 36 H 4.392026 -2.784886 3.897599 0
M  V30 37 H 7.039315 -1.170779 4.036289 0
M  V30 38 H 6.373255 0.500564 4.410520 0
M  V30 39 H 7.931003 0.541255 2.477099 0
M  V30 40 H 7.003594 -0.724357 1.666610 0
M  V30 41 H 6.095082 2.151254 2.285571 0
M  V30 42 H 6.394209 1.365989 0.719547 0
M  V30 43 H 4.064977 1.990563 -0.005244 0
M  V30 44 H 1.752581 2.030992 -1.023366 0
M  V30 45 H -2.671673 1.810449 1.146673 0
M  V30 46 H -5.472655 -2.021595 1.199335 0
M  V30 47 H -7.857208 -2.590350 1.444793 0
M  V30 48 H -9.425890 -2.437035 -0.388971 0
M  V30 49 H -8.579766 -1.665726 -2.635678 0
M  V30 50 H -2.216359 -4.050662 -3.882362 0
M  V30 51 H -0.442221 -2.328741 -2.877475 0
M  V30 52 H 0.970658 -0.486022 1.485000 0
M  V30 53 H 2.420765 -1.424793 3.160890 0
M  V30 END ATOM
M  V30 BEGIN BOND
M  V30 1 1 1 2
M  V30 2 1 2 3
M  V30 3 1 3 4
M  V30 4 1 4 5
M  V30 5 1 5 6
M  V30 6 2 6 7
M  V30 7 1 7 8
M  V30 8 1 8 9
M  V30 9 1 9 10
M  V30 10 2 10 11
M  V30 11 1 11 12
M  V30 12 2 12 13
M  V30 13 1 13 14
M  V30 14 2 14 15
M  V30 15 1 14 16
M  V30 16 1 16 17
M  V30 17 2 17 18
M  V30 18 1 18 19
M  V30 19 2 19 20
M  V30 20 1 20 21
M  V30 21 2 21 22
M  V30 22 1 22 23
M  V30 23 1 16 24
M  V30 24 2 24 25
M  V30 25 1 25 26
M  V30 26 2 26 27
M  V30 27 1 27 28
M  V30 28 1 28 29
M  V30 29 2 29 30
M  V30 30 2 8 31
M  V30 31 1 31 32
M  V30 32 2 32 33
M  V30 33 1 33 2
M  V30 34 1 33 6
M  V30 35 1 30 10
M  V30 36 1 29 13
M  V30 37 1 22 17
M  V30 38 1 28 24
M  V30 39 1 1 34
M  V30 40 1 1 35
M  V30 41 1 1 36
M  V30 42 1 3 37
M  V30 43 1 3 38
M  V30 44 1 4 39
M  V30 45 1 4 40
M  V30 46 1 5 41
M  V30 47 1 5 42
M  V30 48 1 7 43
M  V30 49 1 9 44
M  V30 50 1 12 45
M  V30 51 1 18 46
M  V30 52 1 19 47
M  V30 53 1 20 48
M  V30 54 1 21 49
M  V30 55 1 26 50
M  V30 56 1 27 51
M  V30 57 1 31 52
M  V30 58 1 32 53
M  V30 END BOND
M  V30 END CTAB
M  END
>  <Dataset>  (927) 
ChEMBL_Kinases

>  <Ligand_Instance>  (927) 
nan

>  <PDB_ID>  (927) 
nan

>  <Standardized_SMILES>  (927) 
CN1CCCc2cc(Nc3ncc4c(=O)n(-c5ccccc5Cl)c5nccn5c4n3)ccc21

>  <Name>  (927) 
nan

>  <Pocket>  (927) 
nan

>  <ATP_Site>  (927) 
nan

>  <Peripheral>  (927) 
nan

>  <Num_H_Atoms_ProtBoundConf>  (927) 
nan

>  <Num_Resolved_Atoms>  (927) 
nan

>  <Num_Not_Resolved_Atoms>  (927) 
nan

$$$$
CHEMBL3355531
     RDKit          3D

  0  0  0  0  0  0  0  0  0  0999 V3000
M  V30 BEGIN CTAB
M  V30 COUNTS 57 63 0 0 0
M  V30 BEGIN ATOM
M  V30 1 C 5.266133 -6.572752 1.735271 0
M  V30 2 N 4.101450 -5.727418 1.640264 0
M  V30 3 C 4.393878 -4.474554 0.962614 0
M  V30 4 C 3.138877 -3.676589 0.910373 0
M  V30 5 C 3.231187 -2.299566 0.884765 0
M  V30 6 C 2.073885 -1.519049 0.835856 0
M  V30 7 N 2.122337 -0.118975 0.808427 0
M  V30 8 C 0.953925 0.687915 0.760751 0
M  V30 9 N 0.452149 1.039915 1.959933 0
M  V30 10 C -0.667937 1.813898 2.052862 0
M  V30 11 C -1.288241 2.237008 0.893821 0
M  V30 12 C -2.431697 3.026915 0.948750 0
M  V30 13 O -2.893988 3.351377 2.072945 0
M  V30 14 N -2.963915 3.388996 -0.237314 0
M  V30 15 C -4.132307 4.196289 -0.140116 0
M  V30 16 C -5.199217 3.658861 0.582479 0
M  V30 17 C -6.373779 4.406595 0.712258 0
M  V30 18 C -6.445887 5.653704 0.123180 0
M  V30 19 C -5.363597 6.152265 -0.586634 0
M  V30 20 C -4.187539 5.446408 -0.737853 0
M  V30 21 Cl -2.809685 6.062524 -1.632228 0
M  V30 22 C -2.425255 3.011577 -1.413302 0
M  V30 23 N -2.805693 3.268506 -2.677018 0
M  V30 24 C -1.960911 2.681113 -3.539436 0
M  V30 25 C -1.007320 2.026010 -2.805911 0
M  V30 26 N -1.320934 2.248527 -1.514367 0
M  V30 27 C -0.764170 1.869422 -0.348440 0
M  V30 28 N 0.351686 1.098682 -0.371854 0
M  V30 29 C 0.880583 -2.211577 0.816118 0
M  V30 30 C 0.767694 -3.602496 0.841398 0
M  V30 31 C 1.933220 -4.345905 0.889804 0
M  V30 32 C 1.741538 -5.803728 0.914463 0
M  V30 33 C 0.533366 -6.419300 1.502978 0
M  V30 34 C 0.735161 -6.446938 -0.000749 0
M  V30 35 C 3.071833 -6.476543 0.944344 0
M  V30 36 H 5.976722 -6.233216 2.516017 0
M  V30 37 H 4.927852 -7.601705 1.966310 0
M  V30 38 H 5.756681 -6.564407 0.722552 0
M  V30 39 H 4.823703 -4.635090 -0.044949 0
M  V30 40 H 5.129363 -3.927368 1.586483 0
M  V30 41 H 4.194473 -1.806431 0.902065 0
M  V30 42 H 3.064824 0.347470 0.823933 0
M  V30 43 H -1.113363 2.125768 2.996677 0
M  V30 44 H -5.125888 2.672065 1.041681 0
M  V30 45 H -7.207742 3.989189 1.275800 0
M  V30 46 H -7.338075 6.250330 0.207490 0
M  V30 47 H -5.397835 7.116415 -1.051195 0
M  V30 48 H -1.921208 2.648782 -4.618723 0
M  V30 49 H -0.147868 1.431304 -3.071226 0
M  V30 50 H -0.020728 -1.593461 0.777846 0
M  V30 51 H -0.224713 -3.987608 0.821038 0
M  V30 52 H 0.607556 -7.409129 1.983402 0
M  V30 53 H -0.285720 -5.770586 1.846800 0
M  V30 54 H 0.996529 -7.388089 -0.511041 0
M  V30 55 H 0.205477 -5.719915 -0.644065 0
M  V30 56 H 3.010556 -7.457530 1.482415 0
M  V30 57 H 3.444588 -6.631659 -0.106648 0
M  V30 END ATOM
M  V30 BEGIN BOND
M  V30 1 1 1 2
M  V30 2 1 2 3
M  V30 3 1 3 4
M  V30 4 2 4 5
M  V30 5 1 5 6
M  V30 6 1 6 7
M  V30 7 1 7 8
M  V30 8 2 8 9
M  V30 9 1 9 10
M  V30 10 2 10 11
M  V30 11 1 11 12
M  V30 12 2 12 13
M  V30 13 1 12 14
M  V30 14 1 14 15
M  V30 15 2 15 16
M  V30 16 1 16 17
M  V30 17 2 17 18
M  V30 18 1 18 19
M  V30 19 2 19 20
M  V30 20 1 20 21
M  V30 21 1 14 22
M  V30 22 2 22 23
M  V30 23 1 23 24
M  V30 24 2 24 25
M  V30 25 1 25 26
M  V30 26 1 26 27
M  V30 27 2 27 28
M  V30 28 2 6 29
M  V30 29 1 29 30
M  V30 30 2 30 31
M  V30 31 1 31 32
M  V30 32 1 32 33
M  V30 33 1 33 34
M  V30 34 1 32 35
M  V30 35 1 35 2
M  V30 36 1 31 4
M  V30 37 1 34 32
M  V30 38 1 28 8
M  V30 39 1 27 11
M  V30 40 1 20 15
M  V30 41 1 26 22
M  V30 42 1 1 36
M  V30 43 1 1 37
M  V30 44 1 1 38
M  V30 45 1 3 39
M  V30 46 1 3 40
M  V30 47 1 5 41
M  V30 48 1 7 42
M  V30 49 1 10 43
M  V30 50 1 16 44
M  V30 51 1 17 45
M  V30 52 1 18 46
M  V30 53 1 19 47
M  V30 54 1 24 48
M  V30 55 1 25 49
M  V30 56 1 29 50
M  V30 57 1 30 51
M  V30 58 1 33 52
M  V30 59 1 33 53
M  V30 60 1 34 54
M  V30 61 1 34 55
M  V30 62 1 35 56
M  V30 63 1 35 57
M  V30 END BOND
M  V30 END CTAB
M  END
>  <Dataset>  (928) 
ChEMBL_Kinases

>  <Ligand_Instance>  (928) 
nan

>  <PDB_ID>  (928) 
nan

>  <Standardized_SMILES>  (928) 
CN1Cc2cc(Nc3ncc4c(=O)n(-c5ccccc5Cl)c5nccn5c4n3)ccc2C2(CC2)C1

>  <Name>  (928) 
nan

>  <Pocket>  (928) 
nan

>  <ATP_Site>  (928) 
nan

>  <Peripheral>  (928) 
nan

>  <Num_H_Atoms_ProtBoundConf>  (928) 
nan

>  <Num_Resolved_Atoms>  (928) 
nan

>  <Num_Not_Resolved_Atoms>  (928) 
nan

$$$$
CHEMBL3355532
     RDKit          3D

  0  0  0  0  0  0  0  0  0  0999 V3000
M  V30 BEGIN CTAB
M  V30 COUNTS 59 65 0 0 0
M  V30 BEGIN ATOM
M  V30 1 C 7.957666 -1.351108 3.002091 0
M  V30 2 C 7.185528 -0.435290 2.125686 0
M  V30 3 O 7.528733 0.767038 2.236487 0
M  V30 4 N 6.156040 -0.852958 1.241138 0
M  V30 5 C 5.502401 0.187873 0.455407 0
M  V30 6 C 4.068549 -0.191856 0.361436 0
M  V30 7 C 3.082013 0.755875 0.505314 0
M  V30 8 C 1.741336 0.445643 0.426567 0
M  V30 9 N 0.759080 1.455885 0.582262 0
M  V30 10 C -0.651148 1.326411 0.528911 0
M  V30 11 N -1.432145 2.403763 0.704643 0
M  V30 12 C -2.768033 2.389406 0.673173 0
M  V30 13 C -3.414241 1.212049 0.448657 0
M  V30 14 C -4.791868 1.164697 0.410133 0
M  V30 15 O -5.478576 2.187730 0.578188 0
M  V30 16 N -5.352807 -0.046017 0.181273 0
M  V30 17 C -6.781059 -0.168579 0.128056 0
M  V30 18 C -7.363804 -0.380440 1.380666 0
M  V30 19 C -8.735307 -0.512362 1.442334 0
M  V30 20 C -9.580839 -0.449694 0.346811 0
M  V30 21 C -8.945194 -0.239160 -0.857857 0
M  V30 22 C -7.595292 -0.100455 -0.988192 0
M  V30 23 Cl -6.755669 0.167317 -2.499339 0
M  V30 24 C -4.606715 -1.174915 -0.004402 0
M  V30 25 N -4.925521 -2.448040 -0.239402 0
M  V30 26 C -3.803357 -3.189559 -0.347700 0
M  V30 27 C -2.727901 -2.311839 -0.166978 0
M  V30 28 N -3.264319 -1.074164 0.042930 0
M  V30 29 C -2.671293 0.089352 0.264022 0
M  V30 30 N -1.342067 0.200072 0.312543 0
M  V30 31 C 1.481528 -0.886165 0.193059 0
M  V30 32 C 2.439879 -1.865077 0.043298 0
M  V30 33 C 3.755371 -1.514550 0.128511 0
M  V30 34 C 4.898618 -2.452794 -0.010862 0
M  V30 35 C 5.529028 -2.602702 -1.350148 0
M  V30 36 C 4.741781 -3.745060 -0.705152 0
M  V30 37 C 5.811187 -2.258794 1.162263 0
M  V30 38 H 7.675335 -2.410660 2.850694 0
M  V30 39 H 9.047837 -1.266943 2.843535 0
M  V30 40 H 7.766334 -1.102314 4.085276 0
M  V30 41 H 5.560177 1.157479 0.979068 0
M  V30 42 H 5.971974 0.206645 -0.551781 0
M  V30 43 H 3.381914 1.779435 0.686589 0
M  V30 44 H 1.128377 2.428647 0.760808 0
M  V30 45 H -3.299226 3.312191 0.826886 0
M  V30 46 H -6.790756 -0.445875 2.303957 0
M  V30 47 H -9.176661 -0.678758 2.436653 0
M  V30 48 H -10.647656 -0.558388 0.443118 0
M  V30 49 H -9.553309 -0.178735 -1.767166 0
M  V30 50 H -3.757764 -4.251075 -0.536643 0
M  V30 51 H -1.679715 -2.590600 -0.194055 0
M  V30 52 H 0.473524 -1.232800 0.114559 0
M  V30 53 H 2.191369 -2.901279 -0.139276 0
M  V30 54 H 5.015598 -2.118592 -2.211570 0
M  V30 55 H 6.626846 -2.673851 -1.363640 0
M  V30 56 H 3.753327 -4.008703 -1.142106 0
M  V30 57 H 5.358962 -4.586078 -0.371801 0
M  V30 58 H 5.256725 -2.496394 2.100295 0
M  V30 59 H 6.714072 -2.899823 1.120318 0
M  V30 END ATOM
M  V30 BEGIN BOND
M  V30 1 1 1 2
M  V30 2 2 2 3
M  V30 3 1 2 4
M  V30 4 1 4 5
M  V30 5 1 5 6
M  V30 6 2 6 7
M  V30 7 1 7 8
M  V30 8 1 8 9
M  V30 9 1 9 10
M  V30 10 2 10 11
M  V30 11 1 11 12
M  V30 12 2 12 13
M  V30 13 1 13 14
M  V30 14 2 14 15
M  V30 15 1 14 16
M  V30 16 1 16 17
M  V30 17 2 17 18
M  V30 18 1 18 19
M  V30 19 2 19 20
M  V30 20 1 20 21
M  V30 21 2 21 22
M  V30 22 1 22 23
M  V30 23 1 16 24
M  V30 24 2 24 25
M  V30 25 1 25 26
M  V30 26 2 26 27
M  V30 27 1 27 28
M  V30 28 1 28 29
M  V30 29 2 29 30
M  V30 30 2 8 31
M  V30 31 1 31 32
M  V30 32 2 32 33
M  V30 33 1 33 34
M  V30 34 1 34 35
M  V30 35 1 35 36
M  V30 36 1 34 37
M  V30 37 1 37 4
M  V30 38 1 33 6
M  V30 39 1 36 34
M  V30 40 1 30 10
M  V30 41 1 29 13
M  V30 42 1 22 17
M  V30 43 1 28 24
M  V30 44 1 1 38
M  V30 45 1 1 39
M  V30 46 1 1 40
M  V30 47 1 5 41
M  V30 48 1 5 42
M  V30 49 1 7 43
M  V30 50 1 9 44
M  V30 51 1 12 45
M  V30 52 1 18 46
M  V30 53 1 19 47
M  V30 54 1 20 48
M  V30 55 1 21 49
M  V30 56 1 26 50
M  V30 57 1 27 51
M  V30 58 1 31 52
M  V30 59 1 32 53
M  V30 60 1 35 54
M  V30 61 1 35 55
M  V30 62 1 36 56
M  V30 63 1 36 57
M  V30 64 1 37 58
M  V30 65 1 37 59
M  V30 END BOND
M  V30 END CTAB
M  END
>  <Dataset>  (929) 
ChEMBL_Kinases

>  <Ligand_Instance>  (929) 
nan

>  <PDB_ID>  (929) 
nan

>  <Standardized_SMILES>  (929) 
CC(=O)N1Cc2cc(Nc3ncc4c(=O)n(-c5ccccc5Cl)c5nccn5c4n3)ccc2C2(CC2)C1

>  <Name>  (929) 
nan

>  <Pocket>  (929) 
nan

>  <ATP_Site>  (929) 
nan

>  <Peripheral>  (929) 
nan

>  <Num_H_Atoms_ProtBoundConf>  (929) 
nan

>  <Num_Resolved_Atoms>  (929) 
nan

>  <Num_Not_Resolved_Atoms>  (929) 
nan

$$$$
CHEMBL3355533
     RDKit          3D

  0  0  0  0  0  0  0  0  0  0999 V3000
M  V30 BEGIN CTAB
M  V30 COUNTS 59 64 0 0 0
M  V30 BEGIN ATOM
M  V30 1 C 4.884333 -3.023865 5.838866 0
M  V30 2 N 4.109825 -1.890600 5.460012 0
M  V30 3 C 4.294498 -1.387039 4.151277 0
M  V30 4 C 3.071642 -1.310942 3.327711 0
M  V30 5 C 3.209037 -0.854863 2.041333 0
M  V30 6 C 2.164933 -0.728182 1.154612 0
M  V30 7 N 2.365787 -0.256479 -0.150175 0
M  V30 8 C 1.413137 -0.015412 -1.178209 0
M  V30 9 N 1.821658 0.446818 -2.373374 0
M  V30 10 C 1.004265 0.707911 -3.400173 0
M  V30 11 C -0.341092 0.491946 -3.229195 0
M  V30 12 C -1.266723 0.732072 -4.221484 0
M  V30 13 O -0.913601 1.163731 -5.344950 0
M  V30 14 N -2.570839 0.485257 -3.939929 0
M  V30 15 C -3.541953 0.723302 -4.927299 0
M  V30 16 C -3.978102 -0.110414 -5.938286 0
M  V30 17 C -4.969572 0.333089 -6.825412 0
M  V30 18 C -5.523638 1.607087 -6.701572 0
M  V30 19 C -5.076690 2.433588 -5.682258 0
M  V30 20 C -4.102161 1.985932 -4.817879 0
M  V30 21 Cl -3.666958 3.176601 -3.593965 0
M  V30 22 C -3.015791 0.022588 -2.757432 0
M  V30 23 N -4.256191 -0.279549 -2.299338 0
M  V30 24 C -4.089123 -0.701255 -1.034295 0
M  V30 25 C -2.750010 -0.683405 -0.643926 0
M  V30 26 N -2.130418 -0.228252 -1.745577 0
M  V30 27 C -0.817321 0.021250 -2.031598 0
M  V30 28 N 0.086789 -0.211991 -1.055042 0
M  V30 29 C 0.946229 -1.104749 1.676094 0
M  V30 30 C 0.738837 -1.575697 2.972865 0
M  V30 31 C 1.825080 -1.671094 3.788004 0
M  V30 32 C 1.665430 -2.164747 5.181965 0
M  V30 33 C 0.426737 -1.454140 5.747108 0
M  V30 34 C 1.352451 -3.640745 5.243257 0
M  V30 35 C 2.823947 -1.802315 6.041916 0
M  V30 36 H 5.357169 -2.789683 6.834494 0
M  V30 37 H 5.674901 -3.288943 5.106609 0
M  V30 38 H 4.200929 -3.875223 6.025530 0
M  V30 39 H 4.777597 -0.378972 4.212485 0
M  V30 40 H 5.007354 -2.068457 3.621710 0
M  V30 41 H 4.208603 -0.569043 1.685015 0
M  V30 42 H 3.369727 -0.050463 -0.412464 0
M  V30 43 H 1.350706 1.074170 -4.340579 0
M  V30 44 H -3.493020 -1.076746 -5.956687 0
M  V30 45 H -5.272918 -0.379193 -7.607988 0
M  V30 46 H -6.283481 1.834202 -7.449489 0
M  V30 47 H -5.550500 3.409814 -5.646093 0
M  V30 48 H -4.911332 -1.016383 -0.402964 0
M  V30 49 H -2.317707 -0.963211 0.302397 0
M  V30 50 H 0.046448 -1.056254 1.086514 0
M  V30 51 H -0.242185 -1.856512 3.325717 0
M  V30 52 H 0.360958 -0.453228 5.269931 0
M  V30 53 H 0.469861 -1.414473 6.849793 0
M  V30 54 H -0.437230 -2.022943 5.347459 0
M  V30 55 H 1.213132 -3.865125 6.323004 0
M  V30 56 H 0.362723 -3.839729 4.779480 0
M  V30 57 H 2.143102 -4.295685 4.868981 0
M  V30 58 H 2.809568 -2.506270 6.926008 0
M  V30 59 H 2.630032 -0.802024 6.527032 0
M  V30 END ATOM
M  V30 BEGIN BOND
M  V30 1 1 1 2
M  V30 2 1 2 3
M  V30 3 1 3 4
M  V30 4 2 4 5
M  V30 5 1 5 6
M  V30 6 1 6 7
M  V30 7 1 7 8
M  V30 8 2 8 9
M  V30 9 1 9 10
M  V30 10 2 10 11
M  V30 11 1 11 12
M  V30 12 2 12 13
M  V30 13 1 12 14
M  V30 14 1 14 15
M  V30 15 2 15 16
M  V30 16 1 16 17
M  V30 17 2 17 18
M  V30 18 1 18 19
M  V30 19 2 19 20
M  V30 20 1 20 21
M  V30 21 1 14 22
M  V30 22 2 22 23
M  V30 23 1 23 24
M  V30 24 2 24 25
M  V30 25 1 25 26
M  V30 26 1 26 27
M  V30 27 2 27 28
M  V30 28 2 6 29
M  V30 29 1 29 30
M  V30 30 2 30 31
M  V30 31 1 31 32
M  V30 32 1 32 33
M  V30 33 1 32 34
M  V30 34 1 32 35
M  V30 35 1 35 2
M  V30 36 1 31 4
M  V30 37 1 28 8
M  V30 38 1 27 11
M  V30 39 1 20 15
M  V30 40 1 26 22
M  V30 41 1 1 36
M  V30 42 1 1 37
M  V30 43 1 1 38
M  V30 44 1 3 39
M  V30 45 1 3 40
M  V30 46 1 5 41
M  V30 47 1 7 42
M  V30 48 1 10 43
M  V30 49 1 16 44
M  V30 50 1 17 45
M  V30 51 1 18 46
M  V30 52 1 19 47
M  V30 53 1 24 48
M  V30 54 1 25 49
M  V30 55 1 29 50
M  V30 56 1 30 51
M  V30 57 1 33 52
M  V30 58 1 33 53
M  V30 59 1 33 54
M  V30 60 1 34 55
M  V30 61 1 34 56
M  V30 62 1 34 57
M  V30 63 1 35 58
M  V30 64 1 35 59
M  V30 END BOND
M  V30 END CTAB
M  END
>  <Dataset>  (930) 
ChEMBL_Kinases

>  <Ligand_Instance>  (930) 
nan

>  <PDB_ID>  (930) 
nan

>  <Standardized_SMILES>  (930) 
CN1Cc2cc(Nc3ncc4c(=O)n(-c5ccccc5Cl)c5nccn5c4n3)ccc2C(C)(C)C1

>  <Name>  (930) 
nan

>  <Pocket>  (930) 
nan

>  <ATP_Site>  (930) 
nan

>  <Peripheral>  (930) 
nan

>  <Num_H_Atoms_ProtBoundConf>  (930) 
nan

>  <Num_Resolved_Atoms>  (930) 
nan

>  <Num_Not_Resolved_Atoms>  (930) 
nan

$$$$
CHEMBL3355534
     RDKit          3D

  0  0  0  0  0  0  0  0  0  0999 V3000
M  V30 BEGIN CTAB
M  V30 COUNTS 58 63 0 0 0
M  V30 BEGIN ATOM
M  V30 1 C 6.358535 1.441309 0.044281 0
M  V30 2 N 6.480262 1.725157 -1.351251 0
M  V30 3 C 5.823486 0.774991 -2.218294 0
M  V30 4 C 4.433758 1.208425 -2.601217 0
M  V30 5 N 3.913872 2.223720 -1.724954 0
M  V30 6 C 2.796072 2.121877 -0.869037 0
M  V30 7 C 2.283495 3.126721 -0.078767 0
M  V30 8 C 1.189093 2.957292 0.740149 0
M  V30 9 C 0.537697 1.743849 0.810003 0
M  V30 10 N -0.592852 1.555825 1.654287 0
M  V30 11 C -1.325300 0.343687 1.794464 0
M  V30 12 N -0.817768 -0.441066 2.763032 0
M  V30 13 C -1.374222 -1.651863 3.060588 0
M  V30 14 C -2.481475 -2.027238 2.317604 0
M  V30 15 C -3.096773 -3.237893 2.562354 0
M  V30 16 O -2.658210 -4.009183 3.460271 0
M  V30 17 N -4.185549 -3.591883 1.821844 0
M  V30 18 C -4.785772 -4.858247 2.116564 0
M  V30 19 C -4.177675 -5.962938 1.513147 0
M  V30 20 Cl -2.779369 -5.767287 0.474478 0
M  V30 21 C -4.711412 -7.214519 1.759299 0
M  V30 22 C -5.797094 -7.347531 2.567960 0
M  V30 23 C -6.392155 -6.253739 3.160036 0
M  V30 24 C -5.899119 -4.980098 2.947623 0
M  V30 25 Cl -6.519248 -3.489942 3.609039 0
M  V30 26 C -4.668961 -2.772909 0.852489 0
M  V30 27 N -5.723118 -2.947021 0.025465 0
M  V30 28 C -5.802792 -1.857784 -0.760153 0
M  V30 29 C -4.772204 -0.982427 -0.414243 0
M  V30 30 N -4.084311 -1.570722 0.585883 0
M  V30 31 C -3.010161 -1.227404 1.320227 0
M  V30 32 N -2.408052 -0.033557 1.074649 0
M  V30 33 C 1.035902 0.709338 0.020026 0
M  V30 34 C 2.145229 0.910726 -0.798938 0
M  V30 35 C 4.769185 3.381202 -1.886090 0
M  V30 36 C 6.228970 3.092219 -1.676648 0
M  V30 37 H 5.443832 0.856755 0.258667 0
M  V30 38 H 6.352984 2.415111 0.612479 0
M  V30 39 H 7.272018 0.862106 0.332318 0
M  V30 40 H 5.771161 -0.183655 -1.642014 0
M  V30 41 H 6.389358 0.528374 -3.135823 0
M  V30 42 H 4.490629 1.603475 -3.656058 0
M  V30 43 H 3.830490 0.294772 -2.678225 0
M  V30 44 H 2.756038 4.095141 -0.096770 0
M  V30 45 H 0.850825 3.802375 1.329801 0
M  V30 46 H -0.920607 2.359256 2.219565 0
M  V30 47 H -0.979803 -2.308551 3.843925 0
M  V30 48 H -4.286590 -8.108194 1.322295 0
M  V30 49 H -6.223332 -8.330346 2.766673 0
M  V30 50 H -7.256500 -6.300826 3.811178 0
M  V30 51 H -6.457398 -1.532427 -1.557972 0
M  V30 52 H -4.488614 -0.013882 -0.796501 0
M  V30 53 H 0.487482 -0.212825 0.116011 0
M  V30 54 H 2.377119 0.014542 -1.321545 0
M  V30 55 H 4.398317 4.195436 -1.240573 0
M  V30 56 H 4.632213 3.716377 -2.952227 0
M  V30 57 H 6.813331 3.426379 -2.540527 0
M  V30 58 H 6.559686 3.691669 -0.783578 0
M  V30 END ATOM
M  V30 BEGIN BOND
M  V30 1 1 1 2
M  V30 2 1 2 3
M  V30 3 1 3 4
M  V30 4 1 4 5
M  V30 5 1 5 6
M  V30 6 2 6 7
M  V30 7 1 7 8
M  V30 8 2 8 9
M  V30 9 1 9 10
M  V30 10 1 10 11
M  V30 11 2 11 12
M  V30 12 1 12 13
M  V30 13 2 13 14
M  V30 14 1 14 15
M  V30 15 2 15 16
M  V30 16 1 15 17
M  V30 17 1 17 18
M  V30 18 2 18 19
M  V30 19 1 19 20
M  V30 20 1 19 21
M  V30 21 2 21 22
M  V30 22 1 22 23
M  V30 23 2 23 24
M  V30 24 1 24 25
M  V30 25 1 17 26
M  V30 26 2 26 27
M  V30 27 1 27 28
M  V30 28 2 28 29
M  V30 29 1 29 30
M  V30 30 1 30 31
M  V30 31 2 31 32
M  V30 32 1 9 33
M  V30 33 2 33 34
M  V30 34 1 5 35
M  V30 35 1 35 36
M  V30 36 1 36 2
M  V30 37 1 34 6
M  V30 38 1 32 11
M  V30 39 1 31 14
M  V30 40 1 24 18
M  V30 41 1 30 26
M  V30 42 1 1 37
M  V30 43 1 1 38
M  V30 44 1 1 39
M  V30 45 1 3 40
M  V30 46 1 3 41
M  V30 47 1 4 42
M  V30 48 1 4 43
M  V30 49 1 7 44
M  V30 50 1 8 45
M  V30 51 1 10 46
M  V30 52 1 13 47
M  V30 53 1 21 48
M  V30 54 1 22 49
M  V30 55 1 23 50
M  V30 56 1 28 51
M  V30 57 1 29 52
M  V30 58 1 33 53
M  V30 59 1 34 54
M  V30 60 1 35 55
M  V30 61 1 35 56
M  V30 62 1 36 57
M  V30 63 1 36 58
M  V30 END BOND
M  V30 END CTAB
M  END
>  <Dataset>  (931) 
ChEMBL_Kinases

>  <Ligand_Instance>  (931) 
nan

>  <PDB_ID>  (931) 
nan

>  <Standardized_SMILES>  (931) 
CN1CCN(c2ccc(Nc3ncc4c(=O)n(-c5c(Cl)cccc5Cl)c5nccn5c4n3)cc2)CC1

>  <Name>  (931) 
nan

>  <Pocket>  (931) 
nan

>  <ATP_Site>  (931) 
nan

>  <Peripheral>  (931) 
nan

>  <Num_H_Atoms_ProtBoundConf>  (931) 
nan

>  <Num_Resolved_Atoms>  (931) 
nan

>  <Num_Not_Resolved_Atoms>  (931) 
nan

$$$$
CHEMBL3355535
     RDKit          3D

  0  0  0  0  0  0  0  0  0  0999 V3000
M  V30 BEGIN CTAB
M  V30 COUNTS 58 63 0 0 0
M  V30 BEGIN ATOM
M  V30 1 C 5.893012 1.029778 -0.053487 0
M  V30 2 N 6.195690 1.241828 -1.443651 0
M  V30 3 C 5.388795 0.425674 -2.323304 0
M  V30 4 C 4.101986 1.083914 -2.712527 0
M  V30 5 N 3.732017 2.142040 -1.800573 0
M  V30 6 C 2.598594 2.160323 -0.943935 0
M  V30 7 C 2.179096 3.259511 -0.227922 0
M  V30 8 C 1.073108 3.225148 0.596079 0
M  V30 9 C 0.319020 2.053858 0.741795 0
M  V30 10 N -0.828695 2.002506 1.583404 0
M  V30 11 C -1.490063 0.750916 1.719399 0
M  V30 12 N -0.959363 0.120356 2.811983 0
M  V30 13 C -1.410194 -1.117376 3.183353 0
M  V30 14 C -2.403004 -1.738020 2.458881 0
M  V30 15 C -2.950598 -2.977177 2.708504 0
M  V30 16 O -2.483555 -3.595005 3.716115 0
M  V30 17 N -3.928309 -3.475835 1.905375 0
M  V30 18 C -4.418514 -4.779743 2.264030 0
M  V30 19 C -3.653060 -5.858383 1.840418 0
M  V30 20 F -2.488206 -5.760976 1.121522 0
M  V30 21 C -4.037859 -7.152155 2.132351 0
M  V30 22 C -5.199334 -7.355626 2.854274 0
M  V30 23 C -5.959774 -6.289912 3.275357 0
M  V30 24 C -5.577117 -4.985909 2.984301 0
M  V30 25 Cl -6.416503 -3.524729 3.438458 0
M  V30 26 C -4.382543 -2.770256 0.849440 0
M  V30 27 N -5.330358 -3.075431 -0.058632 0
M  V30 28 C -5.434313 -2.049790 -0.929959 0
M  V30 29 C -4.522832 -1.090694 -0.541738 0
M  V30 30 N -3.896271 -1.553119 0.542450 0
M  V30 31 C -2.929782 -1.071886 1.344647 0
M  V30 32 N -2.460760 0.150807 1.006123 0
M  V30 33 C 0.764914 0.967730 0.010711 0
M  V30 34 C 1.870005 0.998355 -0.814051 0
M  V30 35 C 4.746302 3.164817 -1.930569 0
M  V30 36 C 6.147199 2.638386 -1.782125 0
M  V30 37 H 4.936679 0.448850 0.074961 0
M  V30 38 H 5.797860 2.009749 0.467687 0
M  V30 39 H 6.728447 0.489975 0.458629 0
M  V30 40 H 5.162005 -0.529664 -1.821248 0
M  V30 41 H 5.977554 0.160887 -3.234546 0
M  V30 42 H 4.236183 1.483110 -3.761905 0
M  V30 43 H 3.336306 0.292986 -2.827818 0
M  V30 44 H 2.722717 4.186851 -0.303432 0
M  V30 45 H 0.796296 4.113465 1.127972 0
M  V30 46 H -1.116289 2.886060 2.050126 0
M  V30 47 H -1.041702 -1.671977 4.027591 0
M  V30 48 H -3.463388 -8.007907 1.816914 0
M  V30 49 H -5.577292 -8.344462 3.128957 0
M  V30 50 H -6.881262 -6.317149 3.841706 0
M  V30 51 H -6.120244 -2.009037 -1.778229 0
M  V30 52 H -4.357538 -0.142086 -1.035765 0
M  V30 53 H 0.149199 0.079530 0.154755 0
M  V30 54 H 2.053657 0.063134 -1.290911 0
M  V30 55 H 4.522095 3.961510 -1.196931 0
M  V30 56 H 4.645631 3.579553 -2.961769 0
M  V30 57 H 6.769453 2.861834 -2.670187 0
M  V30 58 H 6.619513 3.173012 -0.905789 0
M  V30 END ATOM
M  V30 BEGIN BOND
M  V30 1 1 1 2
M  V30 2 1 2 3
M  V30 3 1 3 4
M  V30 4 1 4 5
M  V30 5 1 5 6
M  V30 6 2 6 7
M  V30 7 1 7 8
M  V30 8 2 8 9
M  V30 9 1 9 10
M  V30 10 1 10 11
M  V30 11 2 11 12
M  V30 12 1 12 13
M  V30 13 2 13 14
M  V30 14 1 14 15
M  V30 15 2 15 16
M  V30 16 1 15 17
M  V30 17 1 17 18
M  V30 18 2 18 19
M  V30 19 1 19 20
M  V30 20 1 19 21
M  V30 21 2 21 22
M  V30 22 1 22 23
M  V30 23 2 23 24
M  V30 24 1 24 25
M  V30 25 1 17 26
M  V30 26 2 26 27
M  V30 27 1 27 28
M  V30 28 2 28 29
M  V30 29 1 29 30
M  V30 30 1 30 31
M  V30 31 2 31 32
M  V30 32 1 9 33
M  V30 33 2 33 34
M  V30 34 1 5 35
M  V30 35 1 35 36
M  V30 36 1 36 2
M  V30 37 1 34 6
M  V30 38 1 32 11
M  V30 39 1 31 14
M  V30 40 1 24 18
M  V30 41 1 30 26
M  V30 42 1 1 37
M  V30 43 1 1 38
M  V30 44 1 1 39
M  V30 45 1 3 40
M  V30 46 1 3 41
M  V30 47 1 4 42
M  V30 48 1 4 43
M  V30 49 1 7 44
M  V30 50 1 8 45
M  V30 51 1 10 46
M  V30 52 1 13 47
M  V30 53 1 21 48
M  V30 54 1 22 49
M  V30 55 1 23 50
M  V30 56 1 28 51
M  V30 57 1 29 52
M  V30 58 1 33 53
M  V30 59 1 34 54
M  V30 60 1 35 55
M  V30 61 1 35 56
M  V30 62 1 36 57
M  V30 63 1 36 58
M  V30 END BOND
M  V30 END CTAB
M  END
>  <Dataset>  (932) 
ChEMBL_Kinases

>  <Ligand_Instance>  (932) 
nan

>  <PDB_ID>  (932) 
nan

>  <Standardized_SMILES>  (932) 
CN1CCN(c2ccc(Nc3ncc4c(=O)n(-c5c(F)cccc5Cl)c5nccn5c4n3)cc2)CC1

>  <Name>  (932) 
nan

>  <Pocket>  (932) 
nan

>  <ATP_Site>  (932) 
nan

>  <Peripheral>  (932) 
nan

>  <Num_H_Atoms_ProtBoundConf>  (932) 
nan

>  <Num_Resolved_Atoms>  (932) 
nan

>  <Num_Not_Resolved_Atoms>  (932) 
nan

$$$$
CHEMBL3355536
     RDKit          3D

  0  0  0  0  0  0  0  0  0  0999 V3000
M  V30 BEGIN CTAB
M  V30 COUNTS 57 63 0 0 0
M  V30 BEGIN ATOM
M  V30 1 C 4.768363 -5.438534 -0.005633 0
M  V30 2 N 4.918494 -4.790144 -1.286418 0
M  V30 3 C 5.043560 -3.371356 -1.131190 0
M  V30 4 C 3.669175 -2.807341 -0.968614 0
M  V30 5 C 3.493011 -1.846210 -0.025528 0
M  V30 6 C 2.262420 -1.247880 0.215538 0
M  V30 7 N 2.111162 -0.246713 1.208157 0
M  V30 8 C 0.938757 0.458961 1.585483 0
M  V30 9 N 0.997072 1.381597 2.559957 0
M  V30 10 C -0.040657 2.092248 2.983797 0
M  V30 11 C -1.259598 1.886540 2.402675 0
M  V30 12 C -2.358165 2.603771 2.815133 0
M  V30 13 O -2.274177 3.460156 3.728608 0
M  V30 14 N -3.526493 2.333434 2.182377 0
M  V30 15 C -4.646757 3.095641 2.634963 0
M  V30 16 C -5.268684 2.636234 3.782716 0
M  V30 17 Cl -4.688733 1.186888 4.619715 0
M  V30 18 C -6.362048 3.257128 4.349243 0
M  V30 19 C -6.857030 4.396357 3.733991 0
M  V30 20 C -6.241234 4.859620 2.589059 0
M  V30 21 C -5.141442 4.238185 2.015989 0
M  V30 22 Cl -4.332821 4.783435 0.576507 0
M  V30 23 C -3.627246 1.413831 1.198260 0
M  V30 24 N -4.707511 1.046593 0.491610 0
M  V30 25 C -4.333384 0.087057 -0.390655 0
M  V30 26 C -2.965696 -0.103374 -0.175679 0
M  V30 27 N -2.539793 0.717782 0.804382 0
M  V30 28 C -1.373180 0.965420 1.413129 0
M  V30 29 N -0.283557 0.308632 1.060768 0
M  V30 30 C 1.260582 -1.723037 -0.587014 0
M  V30 31 C 1.404864 -2.694164 -1.550347 0
M  V30 32 C 2.626729 -3.255449 -1.755484 0
M  V30 33 C 2.959201 -4.291378 -2.726886 0
M  V30 34 C 1.807304 -5.005638 -3.454035 0
M  V30 35 C 2.688661 -4.014555 -4.158789 0
M  V30 36 C 4.041500 -5.230874 -2.294400 0
M  V30 37 H 4.972771 -6.535397 -0.069478 0
M  V30 38 H 3.717995 -5.297558 0.313390 0
M  V30 39 H 5.486507 -4.978593 0.702830 0
M  V30 40 H 5.480895 -2.926261 -2.031538 0
M  V30 41 H 5.673993 -3.187222 -0.257469 0
M  V30 42 H 4.348029 -1.516586 0.580570 0
M  V30 43 H 2.995668 0.002921 1.734529 0
M  V30 44 H 0.076952 2.818442 3.772314 0
M  V30 45 H -6.830843 2.863545 5.262159 0
M  V30 46 H -7.712177 4.923620 4.134665 0
M  V30 47 H -6.569342 5.737836 2.056263 0
M  V30 48 H -4.867808 -0.491440 -1.151853 0
M  V30 49 H -2.295200 -0.802506 -0.698498 0
M  V30 50 H 0.260767 -1.334448 -0.492534 0
M  V30 51 H 0.576142 -3.029980 -2.155942 0
M  V30 52 H 1.966251 -6.053663 -3.788221 0
M  V30 53 H 0.771243 -4.738719 -3.224198 0
M  V30 54 H 3.440715 -4.377757 -4.882850 0
M  V30 55 H 2.261038 -3.012032 -4.398010 0
M  V30 56 H 4.598296 -5.539272 -3.221231 0
M  V30 57 H 3.547475 -6.181543 -1.935193 0
M  V30 END ATOM
M  V30 BEGIN BOND
M  V30 1 1 1 2
M  V30 2 1 2 3
M  V30 3 1 3 4
M  V30 4 2 4 5
M  V30 5 1 5 6
M  V30 6 1 6 7
M  V30 7 1 7 8
M  V30 8 2 8 9
M  V30 9 1 9 10
M  V30 10 2 10 11
M  V30 11 1 11 12
M  V30 12 2 12 13
M  V30 13 1 12 14
M  V30 14 1 14 15
M  V30 15 2 15 16
M  V30 16 1 16 17
M  V30 17 1 16 18
M  V30 18 2 18 19
M  V30 19 1 19 20
M  V30 20 2 20 21
M  V30 21 1 21 22
M  V30 22 1 14 23
M  V30 23 2 23 24
M  V30 24 1 24 25
M  V30 25 2 25 26
M  V30 26 1 26 27
M  V30 27 1 27 28
M  V30 28 2 28 29
M  V30 29 2 6 30
M  V30 30 1 30 31
M  V30 31 2 31 32
M  V30 32 1 32 33
M  V30 33 1 33 34
M  V30 34 1 34 35
M  V30 35 1 33 36
M  V30 36 1 36 2
M  V30 37 1 32 4
M  V30 38 1 35 33
M  V30 39 1 29 8
M  V30 40 1 28 11
M  V30 41 1 21 15
M  V30 42 1 27 23
M  V30 43 1 1 37
M  V30 44 1 1 38
M  V30 45 1 1 39
M  V30 46 1 3 40
M  V30 47 1 3 41
M  V30 48 1 5 42
M  V30 49 1 7 43
M  V30 50 1 10 44
M  V30 51 1 18 45
M  V30 52 1 19 46
M  V30 53 1 20 47
M  V30 54 1 25 48
M  V30 55 1 26 49
M  V30 56 1 30 50
M  V30 57 1 31 51
M  V30 58 1 34 52
M  V30 59 1 34 53
M  V30 60 1 35 54
M  V30 61 1 35 55
M  V30 62 1 36 56
M  V30 63 1 36 57
M  V30 END BOND
M  V30 END CTAB
M  END
>  <Dataset>  (933) 
ChEMBL_Kinases

>  <Ligand_Instance>  (933) 
nan

>  <PDB_ID>  (933) 
nan

>  <Standardized_SMILES>  (933) 
CN1Cc2cc(Nc3ncc4c(=O)n(-c5c(Cl)cccc5Cl)c5nccn5c4n3)ccc2C2(CC2)C1

>  <Name>  (933) 
nan

>  <Pocket>  (933) 
nan

>  <ATP_Site>  (933) 
nan

>  <Peripheral>  (933) 
nan

>  <Num_H_Atoms_ProtBoundConf>  (933) 
nan

>  <Num_Resolved_Atoms>  (933) 
nan

>  <Num_Not_Resolved_Atoms>  (933) 
nan

$$$$
CHEMBL3355528
     RDKit          3D

  0  0  0  0  0  0  0  0  0  0999 V3000
M  V30 BEGIN CTAB
M  V30 COUNTS 53 58 0 0 0
M  V30 BEGIN ATOM
M  V30 1 C 1.911994 -1.869809 4.394717 0
M  V30 2 N 1.980228 -0.550467 4.935094 0
M  V30 3 C 3.209637 -0.206552 5.575472 0
M  V30 4 C 4.333780 0.009904 4.609313 0
M  V30 5 C 3.841057 0.296323 3.241571 0
M  V30 6 C 4.776632 0.330371 2.230860 0
M  V30 7 C 4.461110 0.573053 0.894359 0
M  V30 8 C 3.124172 0.794765 0.553028 0
M  V30 9 N 2.748485 1.038513 -0.818177 0
M  V30 10 C 1.343776 1.087719 -1.045530 0
M  V30 11 N 0.406760 2.078628 -1.145657 0
M  V30 12 C -0.889058 1.752740 -1.363654 0
M  V30 13 C -1.335344 0.450033 -1.493379 0
M  V30 14 C -2.663081 0.159794 -1.716658 0
M  V30 15 O -3.475811 1.111816 -1.799118 0
M  V30 16 N -3.022546 -1.157938 -1.835971 0
M  V30 17 C -4.362391 -1.443101 -2.061663 0
M  V30 18 C -4.997814 -1.360820 -3.321309 0
M  V30 19 C -6.342479 -1.662809 -3.468468 0
M  V30 20 C -7.021158 -2.047642 -2.312085 0
M  V30 21 C -6.427373 -2.130930 -1.096358 0
M  V30 22 C -5.077862 -1.831112 -0.935360 0
M  V30 23 Cl -4.437672 -1.983372 0.683218 0
M  V30 24 C -2.075000 -2.123227 -1.731781 0
M  V30 25 N -2.127058 -3.465586 -1.799718 0
M  V30 26 C -0.908580 -3.971492 -1.628266 0
M  V30 27 C -0.020877 -2.916315 -1.440906 0
M  V30 28 N -0.783745 -1.834483 -1.514621 0
M  V30 29 C -0.371291 -0.535904 -1.388054 0
M  V30 30 N 0.936354 -0.211064 -1.169229 0
M  V30 31 C 2.212541 0.755975 1.583006 0
M  V30 32 C 2.528061 0.516924 2.896341 0
M  V30 33 C 1.557939 0.477112 4.007203 0
M  V30 34 H 1.586853 -2.569507 5.199401 0
M  V30 35 H 2.844885 -2.259035 3.975063 0
M  V30 36 H 1.166697 -1.889645 3.568103 0
M  V30 37 H 3.496442 -1.003491 6.292294 0
M  V30 38 H 3.038972 0.716077 6.170433 0
M  V30 39 H 5.001738 -0.900450 4.626039 0
M  V30 40 H 4.923386 0.893711 4.945821 0
M  V30 41 H 5.855956 0.168603 2.360010 0
M  V30 42 H 5.176116 0.606594 0.086606 0
M  V30 43 H 3.507032 1.155266 -1.508522 0
M  V30 44 H -1.546643 2.586478 -1.428588 0
M  V30 45 H -4.369070 -1.053011 -4.139453 0
M  V30 46 H -6.745882 -1.572699 -4.458908 0
M  V30 47 H -8.072883 -2.269946 -2.491760 0
M  V30 48 H -7.050867 -2.437077 -0.291324 0
M  V30 49 H -0.584945 -5.007335 -1.620682 0
M  V30 50 H 1.057778 -2.979477 -1.273519 0
M  V30 51 H 1.162547 0.926815 1.350320 0
M  V30 52 H 0.529817 0.296752 3.637418 0
M  V30 53 H 1.574748 1.446345 4.550631 0
M  V30 END ATOM
M  V30 BEGIN BOND
M  V30 1 1 1 2
M  V30 2 1 2 3
M  V30 3 1 3 4
M  V30 4 1 4 5
M  V30 5 2 5 6
M  V30 6 1 6 7
M  V30 7 2 7 8
M  V30 8 1 8 9
M  V30 9 1 9 10
M  V30 10 2 10 11
M  V30 11 1 11 12
M  V30 12 2 12 13
M  V30 13 1 13 14
M  V30 14 2 14 15
M  V30 15 1 14 16
M  V30 16 1 16 17
M  V30 17 2 17 18
M  V30 18 1 18 19
M  V30 19 2 19 20
M  V30 20 1 20 21
M  V30 21 2 21 22
M  V30 22 1 22 23
M  V30 23 1 16 24
M  V30 24 2 24 25
M  V30 25 1 25 26
M  V30 26 2 26 27
M  V30 27 1 27 28
M  V30 28 1 28 29
M  V30 29 2 29 30
M  V30 30 1 8 31
M  V30 31 2 31 32
M  V30 32 1 32 33
M  V30 33 1 33 2
M  V30 34 1 32 5
M  V30 35 1 30 10
M  V30 36 1 29 13
M  V30 37 1 22 17
M  V30 38 1 28 24
M  V30 39 1 1 34
M  V30 40 1 1 35
M  V30 41 1 1 36
M  V30 42 1 3 37
M  V30 43 1 3 38
M  V30 44 1 4 39
M  V30 45 1 4 40
M  V30 46 1 6 41
M  V30 47 1 7 42
M  V30 48 1 9 43
M  V30 49 1 12 44
M  V30 50 1 18 45
M  V30 51 1 19 46
M  V30 52 1 20 47
M  V30 53 1 21 48
M  V30 54 1 26 49
M  V30 55 1 27 50
M  V30 56 1 31 51
M  V30 57 1 33 52
M  V30 58 1 33 53
M  V30 END BOND
M  V30 END CTAB
M  END
>  <Dataset>  (934) 
ChEMBL_Kinases

>  <Ligand_Instance>  (934) 
nan

>  <PDB_ID>  (934) 
nan

>  <Standardized_SMILES>  (934) 
CN1CCc2ccc(Nc3ncc4c(=O)n(-c5ccccc5Cl)c5nccn5c4n3)cc2C1

>  <Name>  (934) 
nan

>  <Pocket>  (934) 
nan

>  <ATP_Site>  (934) 
nan

>  <Peripheral>  (934) 
nan

>  <Num_H_Atoms_ProtBoundConf>  (934) 
nan

>  <Num_Resolved_Atoms>  (934) 
nan

>  <Num_Not_Resolved_Atoms>  (934) 
nan

$$$$
CHEMBL3356039
     RDKit          3D

  0  0  0  0  0  0  0  0  0  0999 V3000
M  V30 BEGIN CTAB
M  V30 COUNTS 37 40 0 0 0
M  V30 BEGIN ATOM
M  V30 1 N 1.903441 -7.338071 2.632303 0
M  V30 2 C 2.285285 -5.957142 2.591169 0
M  V30 3 N 3.279318 -5.350482 3.283153 0
M  V30 4 N 3.319355 -4.061840 2.972950 0
M  V30 5 C 2.338569 -3.808999 2.062503 0
M  V30 6 N 2.010394 -2.644912 1.469190 0
M  V30 7 C 0.997702 -2.592084 0.584816 0
M  V30 8 C 0.610417 -1.352807 -0.079464 0
M  V30 9 C -0.404072 -1.192475 -0.994109 0
M  V30 10 C -0.677706 0.037165 -1.558204 0
M  V30 11 C 0.052197 1.162110 -1.231947 0
M  V30 12 N -0.161892 2.457994 -1.762750 0
M  V30 13 S -0.198834 3.922915 -0.856125 0
M  V30 14 O 1.134370 4.165840 -0.173169 0
M  V30 15 O -0.444489 5.042989 -1.817660 0
M  V30 16 C -1.495728 3.888950 0.315143 0
M  V30 17 C -2.354387 2.845081 0.482069 0
M  V30 18 C -3.349517 2.860562 1.405559 0
M  V30 19 Cl -4.579820 1.755660 1.877574 0
M  V30 20 S -3.190271 4.441862 2.201418 0
M  V30 21 C -1.715464 4.999341 1.178609 0
M  V30 22 Cl -0.750237 6.517795 1.196513 0
M  V30 23 C 1.078585 1.040397 -0.317408 0
M  V30 24 C 1.326439 -0.207923 0.229534 0
M  V30 25 C 0.348035 -3.786105 0.345832 0
M  V30 26 N 0.662881 -4.959535 0.930190 0
M  V30 27 C 1.674741 -4.992570 1.808558 0
M  V30 28 H 1.257766 -7.814769 3.301351 0
M  V30 29 H 2.370401 -7.845251 1.873610 0
M  V30 30 H 3.982462 -3.335041 3.348435 0
M  V30 31 H -0.968964 -2.080553 -1.241927 0
M  V30 32 H -1.478729 0.148483 -2.276310 0
M  V30 33 H -0.295714 2.374428 -2.813118 0
M  V30 34 H -2.312926 1.935211 -0.098167 0
M  V30 35 H 1.680622 1.884111 -0.025793 0
M  V30 36 H 2.141493 -0.272657 0.947221 0
M  V30 37 H -0.478075 -3.844102 -0.348579 0
M  V30 END ATOM
M  V30 BEGIN BOND
M  V30 1 1 1 2
M  V30 2 2 2 3
M  V30 3 1 3 4
M  V30 4 1 4 5
M  V30 5 2 5 6
M  V30 6 1 6 7
M  V30 7 1 7 8
M  V30 8 2 8 9
M  V30 9 1 9 10
M  V30 10 2 10 11
M  V30 11 1 11 12
M  V30 12 1 12 13
M  V30 13 2 13 14
M  V30 14 2 13 15
M  V30 15 1 13 16
M  V30 16 1 16 17
M  V30 17 2 17 18
M  V30 18 1 18 19
M  V30 19 1 18 20
M  V30 20 1 20 21
M  V30 21 1 21 22
M  V30 22 1 11 23
M  V30 23 2 23 24
M  V30 24 2 7 25
M  V30 25 1 25 26
M  V30 26 2 26 27
M  V30 27 1 27 2
M  V30 28 1 27 5
M  V30 29 1 24 8
M  V30 30 2 21 16
M  V30 31 1 1 28
M  V30 32 1 1 29
M  V30 33 1 4 30
M  V30 34 1 9 31
M  V30 35 1 10 32
M  V30 36 1 12 33
M  V30 37 1 17 34
M  V30 38 1 23 35
M  V30 39 1 24 36
M  V30 40 1 25 37
M  V30 END BOND
M  V30 END CTAB
M  END
>  <Dataset>  (935) 
ChEMBL_Kinases

>  <Ligand_Instance>  (935) 
nan

>  <PDB_ID>  (935) 
nan

>  <Standardized_SMILES>  (935) 
Nc1n[nH]c2nc(-c3ccc(NS(=O)(=O)c4cc(Cl)sc4Cl)cc3)cnc12

>  <Name>  (935) 
nan

>  <Pocket>  (935) 
nan

>  <ATP_Site>  (935) 
nan

>  <Peripheral>  (935) 
nan

>  <Num_H_Atoms_ProtBoundConf>  (935) 
nan

>  <Num_Resolved_Atoms>  (935) 
nan

>  <Num_Not_Resolved_Atoms>  (935) 
nan

$$$$
CHEMBL3356038
     RDKit          3D

  0  0  0  0  0  0  0  0  0  0999 V3000
M  V30 BEGIN CTAB
M  V30 COUNTS 46 50 0 0 0
M  V30 BEGIN ATOM
M  V30 1 N -1.203172 -8.606751 -0.069945 0
M  V30 2 C -1.705266 -7.329614 -0.488617 0
M  V30 3 N -2.905803 -7.056228 -0.992836 0
M  V30 4 N -2.968176 -5.743184 -1.251146 0
M  V30 5 C -1.786721 -5.202375 -0.899670 0
M  V30 6 N -1.346753 -3.932765 -0.959678 0
M  V30 7 C -0.126023 -3.528492 -0.568902 0
M  V30 8 C 0.283247 -2.131971 -0.663022 0
M  V30 9 C 1.537732 -1.736817 -0.257816 0
M  V30 10 C 1.774998 -0.388896 -0.407483 0
M  V30 11 C 0.911081 0.594942 -0.909758 0
M  V30 12 N 1.390095 1.904344 -0.976771 0
M  V30 13 S 2.134182 3.149364 -0.107524 0
M  V30 14 O 3.561203 2.765074 0.309595 0
M  V30 15 O 2.370029 4.308546 -1.040264 0
M  V30 16 C 1.250894 3.753973 1.262084 0
M  V30 17 C 0.748838 5.066752 1.266631 0
M  V30 18 C 0.019832 5.667678 2.242954 0
M  V30 19 C -0.266574 4.920537 3.357364 0
M  V30 20 C 0.180401 3.631445 3.444565 0
M  V30 21 C -0.083644 2.844685 4.567151 0
M  V30 22 C 0.377416 1.527285 4.671632 0
M  V30 23 C 1.115800 1.000467 3.625151 0
M  V30 24 C 1.359714 1.796307 2.534504 0
M  V30 25 C 0.915694 3.083620 2.417148 0
M  V30 26 C -0.346978 0.110407 -1.300931 0
M  V30 27 C -0.627451 -1.230669 -1.168662 0
M  V30 28 C 0.674570 -4.540807 -0.084336 0
M  V30 29 N 0.275361 -5.823746 -0.006484 0
M  V30 30 C -0.946922 -6.179504 -0.406513 0
M  V30 31 H -1.397639 -9.143118 0.821627 0
M  V30 32 H -0.534834 -9.209340 -0.634232 0
M  V30 33 H -3.771714 -5.182855 -1.656063 0
M  V30 34 H 2.280093 -2.398435 0.141131 0
M  V30 35 H 2.780064 -0.068377 -0.083537 0
M  V30 36 H 1.160480 2.109943 -2.001567 0
M  V30 37 H 0.969178 5.682679 0.378961 0
M  V30 38 H -0.313880 6.689951 2.134484 0
M  V30 39 H -0.840577 5.316880 4.182052 0
M  V30 40 H -0.654681 3.224793 5.397920 0
M  V30 41 H 0.172847 0.917708 5.540891 0
M  V30 42 H 1.487956 -0.027903 3.683656 0
M  V30 43 H 1.934589 1.374264 1.758275 0
M  V30 44 H -1.007524 0.865318 -1.685970 0
M  V30 45 H -1.618577 -1.571826 -1.483736 0
M  V30 46 H 1.674911 -4.319756 0.255587 0
M  V30 END ATOM
M  V30 BEGIN BOND
M  V30 1 1 1 2
M  V30 2 2 2 3
M  V30 3 1 3 4
M  V30 4 1 4 5
M  V30 5 2 5 6
M  V30 6 1 6 7
M  V30 7 1 7 8
M  V30 8 2 8 9
M  V30 9 1 9 10
M  V30 10 2 10 11
M  V30 11 1 11 12
M  V30 12 1 12 13
M  V30 13 2 13 14
M  V30 14 2 13 15
M  V30 15 1 13 16
M  V30 16 2 16 17
M  V30 17 1 17 18
M  V30 18 2 18 19
M  V30 19 1 19 20
M  V30 20 2 20 21
M  V30 21 1 21 22
M  V30 22 2 22 23
M  V30 23 1 23 24
M  V30 24 2 24 25
M  V30 25 1 11 26
M  V30 26 2 26 27
M  V30 27 2 7 28
M  V30 28 1 28 29
M  V30 29 2 29 30
M  V30 30 1 30 2
M  V30 31 1 30 5
M  V30 32 1 27 8
M  V30 33 1 25 16
M  V30 34 1 25 20
M  V30 35 1 1 31
M  V30 36 1 1 32
M  V30 37 1 4 33
M  V30 38 1 9 34
M  V30 39 1 10 35
M  V30 40 1 12 36
M  V30 41 1 17 37
M  V30 42 1 18 38
M  V30 43 1 19 39
M  V30 44 1 21 40
M  V30 45 1 22 41
M  V30 46 1 23 42
M  V30 47 1 24 43
M  V30 48 1 26 44
M  V30 49 1 27 45
M  V30 50 1 28 46
M  V30 END BOND
M  V30 END CTAB
M  END
>  <Dataset>  (936) 
ChEMBL_Kinases

>  <Ligand_Instance>  (936) 
nan

>  <PDB_ID>  (936) 
nan

>  <Standardized_SMILES>  (936) 
Nc1n[nH]c2nc(-c3ccc(NS(=O)(=O)c4cccc5ccccc45)cc3)cnc12

>  <Name>  (936) 
nan

>  <Pocket>  (936) 
nan

>  <ATP_Site>  (936) 
nan

>  <Peripheral>  (936) 
nan

>  <Num_H_Atoms_ProtBoundConf>  (936) 
nan

>  <Num_Resolved_Atoms>  (936) 
nan

>  <Num_Not_Resolved_Atoms>  (936) 
nan

$$$$
CHEMBL3356037
     RDKit          3D

  0  0  0  0  0  0  0  0  0  0999 V3000
M  V30 BEGIN CTAB
M  V30 COUNTS 42 45 0 0 0
M  V30 BEGIN ATOM
M  V30 1 N 2.690590 -7.663527 2.075198 0
M  V30 2 C 2.003582 -6.467043 2.426507 0
M  V30 3 N 1.091974 -6.333793 3.422118 0
M  V30 4 N 0.635896 -5.097195 3.493900 0
M  V30 5 C 1.253281 -4.385915 2.527699 0
M  V30 6 C 1.164866 -3.060747 2.145689 0
M  V30 7 C 1.943350 -2.587301 1.081095 0
M  V30 8 C 1.778300 -1.172723 0.757016 0
M  V30 9 C 1.919703 -0.692542 -0.523324 0
M  V30 10 C 1.778313 0.628313 -0.893417 0
M  V30 11 C 1.466765 1.560905 0.102802 0
M  V30 12 N 1.312721 2.932447 -0.220698 0
M  V30 13 S 0.072807 3.997081 0.323019 0
M  V30 14 O 0.381675 5.379765 -0.193625 0
M  V30 15 O 0.072269 4.063524 1.841333 0
M  V30 16 C -1.515088 3.497100 -0.173051 0
M  V30 17 C -1.917544 2.409360 -0.922203 0
M  V30 18 C -3.242832 2.214576 -1.193385 0
M  V30 19 Cl -3.646722 0.809284 -2.148329 0
M  V30 20 C -4.241337 3.068996 -0.748661 0
M  V30 21 C -3.842912 4.171163 0.009355 0
M  V30 22 C -2.491207 4.373715 0.288470 0
M  V30 23 F -2.299588 5.488799 1.031713 0
M  V30 24 C 1.317625 1.100130 1.411352 0
M  V30 25 C 1.471204 -0.249150 1.735514 0
M  V30 26 C 2.797242 -3.451458 0.417999 0
M  V30 27 C 2.905150 -4.779762 0.778735 0
M  V30 28 C 2.120059 -5.204289 1.832839 0
M  V30 29 H 2.455180 -8.216701 1.215086 0
M  V30 30 H 3.473950 -8.197823 2.519042 0
M  V30 31 H -0.059738 -4.658809 4.130368 0
M  V30 32 H 0.496683 -2.397850 2.669722 0
M  V30 33 H 2.159344 -1.379247 -1.317919 0
M  V30 34 H 1.900823 0.961612 -1.926030 0
M  V30 35 H 2.085500 3.259382 -0.871935 0
M  V30 36 H -1.080558 1.803466 -1.223633 0
M  V30 37 H -5.275389 2.874682 -0.987814 0
M  V30 38 H -4.648820 4.799948 0.329221 0
M  V30 39 H 1.074733 1.826094 2.188938 0
M  V30 40 H 1.340065 -0.536391 2.776912 0
M  V30 41 H 3.382843 -3.052866 -0.397769 0
M  V30 42 H 3.580133 -5.427754 0.241862 0
M  V30 END ATOM
M  V30 BEGIN BOND
M  V30 1 1 1 2
M  V30 2 2 2 3
M  V30 3 1 3 4
M  V30 4 1 4 5
M  V30 5 2 5 6
M  V30 6 1 6 7
M  V30 7 1 7 8
M  V30 8 2 8 9
M  V30 9 1 9 10
M  V30 10 2 10 11
M  V30 11 1 11 12
M  V30 12 1 12 13
M  V30 13 2 13 14
M  V30 14 2 13 15
M  V30 15 1 13 16
M  V30 16 2 16 17
M  V30 17 1 17 18
M  V30 18 1 18 19
M  V30 19 2 18 20
M  V30 20 1 20 21
M  V30 21 2 21 22
M  V30 22 1 22 23
M  V30 23 1 11 24
M  V30 24 2 24 25
M  V30 25 2 7 26
M  V30 26 1 26 27
M  V30 27 2 27 28
M  V30 28 1 28 2
M  V30 29 1 28 5
M  V30 30 1 25 8
M  V30 31 1 22 16
M  V30 32 1 1 29
M  V30 33 1 1 30
M  V30 34 1 4 31
M  V30 35 1 6 32
M  V30 36 1 9 33
M  V30 37 1 10 34
M  V30 38 1 12 35
M  V30 39 1 17 36
M  V30 40 1 20 37
M  V30 41 1 21 38
M  V30 42 1 24 39
M  V30 43 1 25 40
M  V30 44 1 26 41
M  V30 45 1 27 42
M  V30 END BOND
M  V30 END CTAB
M  END
>  <Dataset>  (937) 
ChEMBL_Kinases

>  <Ligand_Instance>  (937) 
nan

>  <PDB_ID>  (937) 
nan

>  <Standardized_SMILES>  (937) 
Nc1n[nH]c2cc(-c3ccc(NS(=O)(=O)c4cc(Cl)ccc4F)cc3)ccc12

>  <Name>  (937) 
nan

>  <Pocket>  (937) 
nan

>  <ATP_Site>  (937) 
nan

>  <Peripheral>  (937) 
nan

>  <Num_H_Atoms_ProtBoundConf>  (937) 
nan

>  <Num_Resolved_Atoms>  (937) 
nan

>  <Num_Not_Resolved_Atoms>  (937) 
nan

$$$$
CHEMBL3356036
     RDKit          3D

  0  0  0  0  0  0  0  0  0  0999 V3000
M  V30 BEGIN CTAB
M  V30 COUNTS 42 45 0 0 0
M  V30 BEGIN ATOM
M  V30 1 N 1.420422 -7.612413 1.602837 0
M  V30 2 C 2.161983 -6.467161 2.011909 0
M  V30 3 N 3.202961 -6.287966 2.859928 0
M  V30 4 N 3.534354 -5.004811 2.895068 0
M  V30 5 C 2.731379 -4.296398 2.078835 0
M  V30 6 C 2.706620 -2.925932 1.794866 0
M  V30 7 C 1.756704 -2.469233 0.901570 0
M  V30 8 C 1.597124 -1.060241 0.495809 0
M  V30 9 C 1.134347 -0.765771 -0.789676 0
M  V30 10 C 0.991332 0.558224 -1.150667 0
M  V30 11 C 1.286503 1.581733 -0.295372 0
M  V30 12 N 1.074324 2.865622 -0.850269 0
M  V30 13 S 0.259040 4.090239 0.073736 0
M  V30 14 O 0.281518 5.403704 -0.616919 0
M  V30 15 O 0.995650 4.235838 1.372984 0
M  V30 16 C -1.375952 3.567582 0.455707 0
M  V30 17 C -1.886537 3.411023 1.726455 0
M  V30 18 C -3.208742 2.989736 1.881384 0
M  V30 19 C -3.933992 2.752258 0.730519 0
M  V30 20 C -3.443039 2.902336 -0.549901 0
M  V30 21 Cl -4.478778 2.564175 -1.928049 0
M  V30 22 C -2.129220 3.321226 -0.680195 0
M  V30 23 F -1.695581 3.453053 -1.957062 0
M  V30 24 C 1.741557 1.266002 0.967794 0
M  V30 25 C 1.906034 -0.027580 1.389952 0
M  V30 26 C 0.871821 -3.374160 0.324710 0
M  V30 27 C 0.905767 -4.735172 0.614580 0
M  V30 28 C 1.854720 -5.199298 1.508652 0
M  V30 29 H 1.015237 -8.332362 2.251623 0
M  V30 30 H 1.229363 -7.809271 0.585885 0
M  V30 31 H 4.313107 -4.641126 3.485987 0
M  V30 32 H 3.371811 -2.208017 2.220685 0
M  V30 33 H 0.898450 -1.584843 -1.474027 0
M  V30 34 H 0.622402 0.692231 -2.177641 0
M  V30 35 H 1.398293 3.097522 -1.809100 0
M  V30 36 H -1.219660 3.627991 2.539103 0
M  V30 37 H -3.601083 2.870152 2.871955 0
M  V30 38 H -4.957628 2.426246 0.903085 0
M  V30 39 H 1.959123 2.121562 1.599887 0
M  V30 40 H 2.265128 -0.237433 2.387249 0
M  V30 41 H 0.095593 -3.109367 -0.384487 0
M  V30 42 H 0.212441 -5.442446 0.162325 0
M  V30 END ATOM
M  V30 BEGIN BOND
M  V30 1 1 1 2
M  V30 2 2 2 3
M  V30 3 1 3 4
M  V30 4 1 4 5
M  V30 5 2 5 6
M  V30 6 1 6 7
M  V30 7 1 7 8
M  V30 8 2 8 9
M  V30 9 1 9 10
M  V30 10 2 10 11
M  V30 11 1 11 12
M  V30 12 1 12 13
M  V30 13 2 13 14
M  V30 14 2 13 15
M  V30 15 1 13 16
M  V30 16 2 16 17
M  V30 17 1 17 18
M  V30 18 2 18 19
M  V30 19 1 19 20
M  V30 20 1 20 21
M  V30 21 2 20 22
M  V30 22 1 22 23
M  V30 23 1 11 24
M  V30 24 2 24 25
M  V30 25 2 7 26
M  V30 26 1 26 27
M  V30 27 2 27 28
M  V30 28 1 28 2
M  V30 29 1 28 5
M  V30 30 1 25 8
M  V30 31 1 22 16
M  V30 32 1 1 29
M  V30 33 1 1 30
M  V30 34 1 4 31
M  V30 35 1 6 32
M  V30 36 1 9 33
M  V30 37 1 10 34
M  V30 38 1 12 35
M  V30 39 1 17 36
M  V30 40 1 18 37
M  V30 41 1 19 38
M  V30 42 1 24 39
M  V30 43 1 25 40
M  V30 44 1 26 41
M  V30 45 1 27 42
M  V30 END BOND
M  V30 END CTAB
M  END
>  <Dataset>  (938) 
ChEMBL_Kinases

>  <Ligand_Instance>  (938) 
nan

>  <PDB_ID>  (938) 
nan

>  <Standardized_SMILES>  (938) 
Nc1n[nH]c2cc(-c3ccc(NS(=O)(=O)c4cccc(Cl)c4F)cc3)ccc12

>  <Name>  (938) 
nan

>  <Pocket>  (938) 
nan

>  <ATP_Site>  (938) 
nan

>  <Peripheral>  (938) 
nan

>  <Num_H_Atoms_ProtBoundConf>  (938) 
nan

>  <Num_Resolved_Atoms>  (938) 
nan

>  <Num_Not_Resolved_Atoms>  (938) 
nan

$$$$
CHEMBL3356035
     RDKit          3D

  0  0  0  0  0  0  0  0  0  0999 V3000
M  V30 BEGIN CTAB
M  V30 COUNTS 42 45 0 0 0
M  V30 BEGIN ATOM
M  V30 1 N 3.214335 -7.351334 2.147664 0
M  V30 2 C 2.373361 -6.256625 2.511337 0
M  V30 3 N 1.430955 -6.194109 3.471374 0
M  V30 4 N 0.862347 -4.986987 3.495526 0
M  V30 5 C 1.470424 -4.266127 2.514740 0
M  V30 6 C 1.249097 -2.955384 2.124943 0
M  V30 7 C 1.965946 -2.370155 1.094234 0
M  V30 8 C 1.778673 -0.995051 0.637972 0
M  V30 9 C 1.943211 -0.493623 -0.613245 0
M  V30 10 C 1.713731 0.861662 -0.853986 0
M  V30 11 C 1.317276 1.746070 0.138575 0
M  V30 12 N 1.109897 3.105608 -0.205851 0
M  V30 13 S -0.285755 3.943510 0.367016 0
M  V30 14 O -0.209338 5.413543 0.018985 0
M  V30 15 O -0.323074 3.872013 1.885265 0
M  V30 16 C -1.775425 3.240430 -0.195464 0
M  V30 17 C -1.952754 2.145676 -1.007543 0
M  V30 18 C -3.234590 1.740263 -1.344934 0
M  V30 19 Br -3.400436 0.217112 -2.472565 0
M  V30 20 C -4.324567 2.423389 -0.874382 0
M  V30 21 C -4.176210 3.525635 -0.057610 0
M  V30 22 C -2.884502 3.935960 0.283714 0
M  V30 23 F -2.862561 5.034115 1.093502 0
M  V30 24 C 1.154877 1.207648 1.416020 0
M  V30 25 C 1.382312 -0.138515 1.657261 0
M  V30 26 C 2.934230 -3.137800 0.441758 0
M  V30 27 C 3.156430 -4.450008 0.831330 0
M  V30 28 C 2.431186 -5.020206 1.863699 0
M  V30 29 H 3.193008 -7.978277 1.314403 0
M  V30 30 H 3.946846 -7.466770 2.909554 0
M  V30 31 H 0.104478 -4.662075 4.137217 0
M  V30 32 H 0.509060 -2.357732 2.618483 0
M  V30 33 H 2.248335 -1.197790 -1.354513 0
M  V30 34 H 1.873402 1.170690 -1.896932 0
M  V30 35 H 1.843597 3.536283 -0.809986 0
M  V30 36 H -1.025844 1.684677 -1.319448 0
M  V30 37 H -5.325862 2.115166 -1.131738 0
M  V30 38 H -5.064925 4.031537 0.288236 0
M  V30 39 H 0.849147 1.876736 2.195336 0
M  V30 40 H 1.222230 -0.447681 2.702231 0
M  V30 41 H 3.543778 -2.796121 -0.360527 0
M  V30 42 H 3.888566 -5.097898 0.370059 0
M  V30 END ATOM
M  V30 BEGIN BOND
M  V30 1 1 1 2
M  V30 2 2 2 3
M  V30 3 1 3 4
M  V30 4 1 4 5
M  V30 5 2 5 6
M  V30 6 1 6 7
M  V30 7 1 7 8
M  V30 8 2 8 9
M  V30 9 1 9 10
M  V30 10 2 10 11
M  V30 11 1 11 12
M  V30 12 1 12 13
M  V30 13 2 13 14
M  V30 14 2 13 15
M  V30 15 1 13 16
M  V30 16 2 16 17
M  V30 17 1 17 18
M  V30 18 1 18 19
M  V30 19 2 18 20
M  V30 20 1 20 21
M  V30 21 2 21 22
M  V30 22 1 22 23
M  V30 23 1 11 24
M  V30 24 2 24 25
M  V30 25 2 7 26
M  V30 26 1 26 27
M  V30 27 2 27 28
M  V30 28 1 28 2
M  V30 29 1 28 5
M  V30 30 1 25 8
M  V30 31 1 22 16
M  V30 32 1 1 29
M  V30 33 1 1 30
M  V30 34 1 4 31
M  V30 35 1 6 32
M  V30 36 1 9 33
M  V30 37 1 10 34
M  V30 38 1 12 35
M  V30 39 1 17 36
M  V30 40 1 20 37
M  V30 41 1 21 38
M  V30 42 1 24 39
M  V30 43 1 25 40
M  V30 44 1 26 41
M  V30 45 1 27 42
M  V30 END BOND
M  V30 END CTAB
M  END
>  <Dataset>  (939) 
ChEMBL_Kinases

>  <Ligand_Instance>  (939) 
nan

>  <PDB_ID>  (939) 
nan

>  <Standardized_SMILES>  (939) 
Nc1n[nH]c2cc(-c3ccc(NS(=O)(=O)c4cc(Br)ccc4F)cc3)ccc12

>  <Name>  (939) 
nan

>  <Pocket>  (939) 
nan

>  <ATP_Site>  (939) 
nan

>  <Peripheral>  (939) 
nan

>  <Num_H_Atoms_ProtBoundConf>  (939) 
nan

>  <Num_Resolved_Atoms>  (939) 
nan

>  <Num_Not_Resolved_Atoms>  (939) 
nan

$$$$
CHEMBL3356034
     RDKit          3D

  0  0  0  0  0  0  0  0  0  0999 V3000
M  V30 BEGIN CTAB
M  V30 COUNTS 42 45 0 0 0
M  V30 BEGIN ATOM
M  V30 1 N 3.271725 -7.408472 2.322942 0
M  V30 2 C 2.456481 -6.277277 2.626089 0
M  V30 3 N 1.499832 -6.211832 3.588696 0
M  V30 4 N 0.952777 -4.986746 3.567825 0
M  V30 5 C 1.569016 -4.286977 2.590814 0
M  V30 6 C 1.393649 -2.989793 2.148655 0
M  V30 7 C 2.147365 -2.451053 1.105780 0
M  V30 8 C 1.857813 -1.066786 0.740571 0
M  V30 9 C 1.993886 -0.583850 -0.538442 0
M  V30 10 C 1.719453 0.724780 -0.876578 0
M  V30 11 C 1.281413 1.626079 0.101393 0
M  V30 12 N 1.002124 2.967241 -0.246551 0
M  V30 13 S -0.342429 3.902526 0.219167 0
M  V30 14 O -0.123664 5.333628 -0.208217 0
M  V30 15 O -0.376001 3.884697 1.741739 0
M  V30 16 C -1.871836 3.293658 -0.306173 0
M  V30 17 C -2.142063 2.171861 -1.038283 0
M  V30 18 C -3.458488 1.842003 -1.367910 0
M  V30 19 Br -3.752710 0.258092 -2.393400 0
M  V30 20 C -4.539744 2.606580 -0.985742 0
M  V30 21 C -4.248052 3.743355 -0.242225 0
M  V30 22 C -2.955784 4.084240 0.092049 0
M  V30 23 Cl -2.792930 5.562979 1.040286 0
M  V30 24 C 1.141219 1.143043 1.400885 0
M  V30 25 C 1.426324 -0.186009 1.712896 0
M  V30 26 C 3.108919 -3.238052 0.485020 0
M  V30 27 C 3.282529 -4.534408 0.928546 0
M  V30 28 C 2.532393 -5.065292 1.964058 0
M  V30 29 H 3.310349 -8.021599 1.476142 0
M  V30 30 H 3.937956 -7.628810 3.122268 0
M  V30 31 H 0.177797 -4.613485 4.193158 0
M  V30 32 H 0.633294 -2.387748 2.649043 0
M  V30 33 H 2.335023 -1.276657 -1.313178 0
M  V30 34 H 1.825867 1.115082 -1.895295 0
M  V30 35 H 1.759858 3.374509 -0.870867 0
M  V30 36 H -1.274825 1.606229 -1.315021 0
M  V30 37 H -5.546860 2.353878 -1.238114 0
M  V30 38 H -5.105319 4.338561 0.053359 0
M  V30 39 H 0.798694 1.897443 2.101653 0
M  V30 40 H 1.283798 -0.456061 2.751099 0
M  V30 41 H 3.666377 -2.788929 -0.310804 0
M  V30 42 H 4.029666 -5.163173 0.454376 0
M  V30 END ATOM
M  V30 BEGIN BOND
M  V30 1 1 1 2
M  V30 2 2 2 3
M  V30 3 1 3 4
M  V30 4 1 4 5
M  V30 5 2 5 6
M  V30 6 1 6 7
M  V30 7 1 7 8
M  V30 8 2 8 9
M  V30 9 1 9 10
M  V30 10 2 10 11
M  V30 11 1 11 12
M  V30 12 1 12 13
M  V30 13 2 13 14
M  V30 14 2 13 15
M  V30 15 1 13 16
M  V30 16 2 16 17
M  V30 17 1 17 18
M  V30 18 1 18 19
M  V30 19 2 18 20
M  V30 20 1 20 21
M  V30 21 2 21 22
M  V30 22 1 22 23
M  V30 23 1 11 24
M  V30 24 2 24 25
M  V30 25 2 7 26
M  V30 26 1 26 27
M  V30 27 2 27 28
M  V30 28 1 28 2
M  V30 29 1 28 5
M  V30 30 1 25 8
M  V30 31 1 22 16
M  V30 32 1 1 29
M  V30 33 1 1 30
M  V30 34 1 4 31
M  V30 35 1 6 32
M  V30 36 1 9 33
M  V30 37 1 10 34
M  V30 38 1 12 35
M  V30 39 1 17 36
M  V30 40 1 20 37
M  V30 41 1 21 38
M  V30 42 1 24 39
M  V30 43 1 25 40
M  V30 44 1 26 41
M  V30 45 1 27 42
M  V30 END BOND
M  V30 END CTAB
M  END
>  <Dataset>  (940) 
ChEMBL_Kinases

>  <Ligand_Instance>  (940) 
nan

>  <PDB_ID>  (940) 
nan

>  <Standardized_SMILES>  (940) 
Nc1n[nH]c2cc(-c3ccc(NS(=O)(=O)c4cc(Br)ccc4Cl)cc3)ccc12

>  <Name>  (940) 
nan

>  <Pocket>  (940) 
nan

>  <ATP_Site>  (940) 
nan

>  <Peripheral>  (940) 
nan

>  <Num_H_Atoms_ProtBoundConf>  (940) 
nan

>  <Num_Resolved_Atoms>  (940) 
nan

>  <Num_Not_Resolved_Atoms>  (940) 
nan

$$$$
CHEMBL3356033
     RDKit          3D

  0  0  0  0  0  0  0  0  0  0999 V3000
M  V30 BEGIN CTAB
M  V30 COUNTS 46 49 0 0 0
M  V30 BEGIN ATOM
M  V30 1 C 2.910217 -0.243588 3.604351 0
M  V30 2 O 4.056200 -0.759733 2.995296 0
M  V30 3 C 4.468737 -0.364328 1.731331 0
M  V30 4 C 5.611884 -0.921853 1.199190 0
M  V30 5 C 6.036221 -0.539567 -0.056420 0
M  V30 6 C 5.317956 0.395860 -0.772936 0
M  V30 7 Cl 5.881229 0.868262 -2.377208 0
M  V30 8 C 4.152285 0.993581 -0.283296 0
M  V30 9 S 3.261442 2.176559 -1.206329 0
M  V30 10 O 4.200254 3.341820 -1.438347 0
M  V30 11 O 2.878742 1.591670 -2.537210 0
M  V30 12 N 1.861652 2.730081 -0.343219 0
M  V30 13 C 0.791205 1.883700 0.049038 0
M  V30 14 C 0.157786 1.834973 1.267234 0
M  V30 15 C -0.873669 0.964758 1.522898 0
M  V30 16 C -1.335236 0.084995 0.566199 0
M  V30 17 C -2.424533 -0.865349 0.772888 0
M  V30 18 C -3.509414 -0.649727 1.604114 0
M  V30 19 C -4.508155 -1.607941 1.743824 0
M  V30 20 C -4.434120 -2.799961 1.050852 0
M  V30 21 C -5.282357 -3.887741 1.022261 0
M  V30 22 N -6.502961 -3.998160 1.765593 0
M  V30 23 N -4.725542 -4.773740 0.176685 0
M  V30 24 N -3.581477 -4.268792 -0.304395 0
M  V30 25 C -3.357575 -3.042383 0.210785 0
M  V30 26 C -2.370407 -2.081930 0.079682 0
M  V30 27 C -0.721449 0.105038 -0.673998 0
M  V30 28 C 0.318054 0.989215 -0.916023 0
M  V30 29 C 3.791159 0.562426 0.975442 0
M  V30 30 H 2.938584 -0.528041 4.691908 0
M  V30 31 H 2.866466 0.872150 3.566554 0
M  V30 32 H 1.965734 -0.633875 3.200666 0
M  V30 33 H 6.202768 -1.658013 1.732190 0
M  V30 34 H 6.937157 -0.991356 -0.453873 0
M  V30 35 H 1.661919 3.720475 -0.027527 0
M  V30 36 H 0.534827 2.532306 2.003818 0
M  V30 37 H -1.348350 0.956711 2.498528 0
M  V30 38 H -3.540099 0.293580 2.134181 0
M  V30 39 H -5.347802 -1.420891 2.399952 0
M  V30 40 H -6.594289 -4.213444 2.801177 0
M  V30 41 H -7.485794 -3.885588 1.412839 0
M  V30 42 H -2.955406 -4.756526 -0.981084 0
M  V30 43 H -1.580583 -2.367738 -0.593744 0
M  V30 44 H -1.073570 -0.580494 -1.438627 0
M  V30 45 H 0.729721 0.927272 -1.913537 0
M  V30 46 H 2.908886 0.968858 1.426200 0
M  V30 END ATOM
M  V30 BEGIN BOND
M  V30 1 1 1 2
M  V30 2 1 2 3
M  V30 3 2 3 4
M  V30 4 1 4 5
M  V30 5 2 5 6
M  V30 6 1 6 7
M  V30 7 1 6 8
M  V30 8 1 8 9
M  V30 9 2 9 10
M  V30 10 2 9 11
M  V30 11 1 9 12
M  V30 12 1 12 13
M  V30 13 2 13 14
M  V30 14 1 14 15
M  V30 15 2 15 16
M  V30 16 1 16 17
M  V30 17 2 17 18
M  V30 18 1 18 19
M  V30 19 2 19 20
M  V30 20 1 20 21
M  V30 21 1 21 22
M  V30 22 2 21 23
M  V30 23 1 23 24
M  V30 24 1 24 25
M  V30 25 2 25 26
M  V30 26 1 16 27
M  V30 27 2 27 28
M  V30 28 2 8 29
M  V30 29 1 29 3
M  V30 30 1 28 13
M  V30 31 1 26 17
M  V30 32 1 25 20
M  V30 33 1 1 30
M  V30 34 1 1 31
M  V30 35 1 1 32
M  V30 36 1 4 33
M  V30 37 1 5 34
M  V30 38 1 12 35
M  V30 39 1 14 36
M  V30 40 1 15 37
M  V30 41 1 18 38
M  V30 42 1 19 39
M  V30 43 1 22 40
M  V30 44 1 22 41
M  V30 45 1 24 42
M  V30 46 1 26 43
M  V30 47 1 27 44
M  V30 48 1 28 45
M  V30 49 1 29 46
M  V30 END BOND
M  V30 END CTAB
M  END
>  <Dataset>  (941) 
ChEMBL_Kinases

>  <Ligand_Instance>  (941) 
nan

>  <PDB_ID>  (941) 
nan

>  <Standardized_SMILES>  (941) 
COc1ccc(Cl)c(S(=O)(=O)Nc2ccc(-c3ccc4c(N)n[nH]c4c3)cc2)c1

>  <Name>  (941) 
nan

>  <Pocket>  (941) 
nan

>  <ATP_Site>  (941) 
nan

>  <Peripheral>  (941) 
nan

>  <Num_H_Atoms_ProtBoundConf>  (941) 
nan

>  <Num_Resolved_Atoms>  (941) 
nan

>  <Num_Not_Resolved_Atoms>  (941) 
nan

$$$$
CHEMBL3356032
     RDKit          3D

  0  0  0  0  0  0  0  0  0  0999 V3000
M  V30 BEGIN CTAB
M  V30 COUNTS 42 45 0 0 0
M  V30 BEGIN ATOM
M  V30 1 N 2.862211 -7.417784 2.092066 0
M  V30 2 C 2.292842 -6.208964 2.593788 0
M  V30 3 N 1.704532 -5.942401 3.785133 0
M  V30 4 N 1.319181 -4.675195 3.816792 0
M  V30 5 C 1.640422 -4.076339 2.656425 0
M  V30 6 C 1.490007 -2.806061 2.137635 0
M  V30 7 C 1.934670 -2.472161 0.871110 0
M  V30 8 C 1.719967 -1.111180 0.438398 0
M  V30 9 C 1.514480 -0.826085 -0.902835 0
M  V30 10 C 1.310625 0.480599 -1.295204 0
M  V30 11 C 1.296299 1.556656 -0.421129 0
M  V30 12 N 1.088341 2.900548 -0.818401 0
M  V30 13 S 0.034488 3.974148 0.026549 0
M  V30 14 O 0.146273 5.373065 -0.487723 0
M  V30 15 O 0.470218 4.035069 1.481935 0
M  V30 16 C -1.615365 3.405612 0.019493 0
M  V30 17 C -2.055965 2.249891 -0.579360 0
M  V30 18 C -3.359600 1.806277 -0.582312 0
M  V30 19 F -3.701271 0.658182 -1.196094 0
M  V30 20 C -4.323067 2.571182 0.064896 0
M  V30 21 C -3.913760 3.751325 0.684459 0
M  V30 22 C -2.592888 4.152395 0.658785 0
M  V30 23 F -2.251074 5.306123 1.275825 0
M  V30 24 C 1.505211 1.219537 0.898694 0
M  V30 25 C 1.713387 -0.070047 1.340486 0
M  V30 26 C 2.554688 -3.420282 0.072884 0
M  V30 27 C 2.699827 -4.690083 0.603465 0
M  V30 28 C 2.260352 -5.029169 1.861619 0
M  V30 29 H 3.865291 -7.732051 1.996021 0
M  V30 30 H 2.031021 -7.984994 1.812745 0
M  V30 31 H 0.834482 -4.207657 4.628297 0
M  V30 32 H 0.992043 -2.115613 2.828143 0
M  V30 33 H 1.511110 -1.608540 -1.649779 0
M  V30 34 H 1.151953 0.679745 -2.348551 0
M  V30 35 H 1.647007 3.158029 -1.678078 0
M  V30 36 H -1.328847 1.645216 -1.084543 0
M  V30 37 H -5.354584 2.271555 0.092912 0
M  V30 38 H -4.686915 4.310420 1.171272 0
M  V30 39 H 1.519848 1.958434 1.685881 0
M  V30 40 H 1.877139 -0.320085 2.389484 0
M  V30 41 H 2.881883 -3.108650 -0.903774 0
M  V30 42 H 3.178424 -5.433211 -0.005698 0
M  V30 END ATOM
M  V30 BEGIN BOND
M  V30 1 1 1 2
M  V30 2 2 2 3
M  V30 3 1 3 4
M  V30 4 1 4 5
M  V30 5 2 5 6
M  V30 6 1 6 7
M  V30 7 1 7 8
M  V30 8 2 8 9
M  V30 9 1 9 10
M  V30 10 2 10 11
M  V30 11 1 11 12
M  V30 12 1 12 13
M  V30 13 2 13 14
M  V30 14 2 13 15
M  V30 15 1 13 16
M  V30 16 2 16 17
M  V30 17 1 17 18
M  V30 18 1 18 19
M  V30 19 2 18 20
M  V30 20 1 20 21
M  V30 21 2 21 22
M  V30 22 1 22 23
M  V30 23 1 11 24
M  V30 24 2 24 25
M  V30 25 2 7 26
M  V30 26 1 26 27
M  V30 27 2 27 28
M  V30 28 1 28 2
M  V30 29 1 28 5
M  V30 30 1 25 8
M  V30 31 1 22 16
M  V30 32 1 1 29
M  V30 33 1 1 30
M  V30 34 1 4 31
M  V30 35 1 6 32
M  V30 36 1 9 33
M  V30 37 1 10 34
M  V30 38 1 12 35
M  V30 39 1 17 36
M  V30 40 1 20 37
M  V30 41 1 21 38
M  V30 42 1 24 39
M  V30 43 1 25 40
M  V30 44 1 26 41
M  V30 45 1 27 42
M  V30 END BOND
M  V30 END CTAB
M  END
>  <Dataset>  (942) 
ChEMBL_Kinases

>  <Ligand_Instance>  (942) 
nan

>  <PDB_ID>  (942) 
nan

>  <Standardized_SMILES>  (942) 
Nc1n[nH]c2cc(-c3ccc(NS(=O)(=O)c4cc(F)ccc4F)cc3)ccc12

>  <Name>  (942) 
nan

>  <Pocket>  (942) 
nan

>  <ATP_Site>  (942) 
nan

>  <Peripheral>  (942) 
nan

>  <Num_H_Atoms_ProtBoundConf>  (942) 
nan

>  <Num_Resolved_Atoms>  (942) 
nan

>  <Num_Not_Resolved_Atoms>  (942) 
nan

$$$$
CHEMBL3356031
     RDKit          3D

  0  0  0  0  0  0  0  0  0  0999 V3000
M  V30 BEGIN CTAB
M  V30 COUNTS 42 45 0 0 0
M  V30 BEGIN ATOM
M  V30 1 N 2.982317 -7.462635 1.767384 0
M  V30 2 C 2.305400 -6.297742 2.253755 0
M  V30 3 N 1.578543 -6.219522 3.391522 0
M  V30 4 N 1.095199 -4.989097 3.529620 0
M  V30 5 C 1.510127 -4.251582 2.469580 0
M  V30 6 C 1.292389 -2.929951 2.128953 0
M  V30 7 C 1.832480 -2.398063 0.973709 0
M  V30 8 C 1.666151 -1.019142 0.520740 0
M  V30 9 C 1.627292 -0.537826 -0.764601 0
M  V30 10 C 1.461199 0.811608 -0.996609 0
M  V30 11 C 1.328990 1.721828 0.038525 0
M  V30 12 N 1.167713 3.062688 -0.402306 0
M  V30 13 S -0.049201 4.038980 0.342588 0
M  V30 14 O 0.055509 5.464126 -0.115674 0
M  V30 15 O 0.194896 4.081252 1.843368 0
M  V30 16 C -1.650494 3.398437 0.115057 0
M  V30 17 C -2.475205 3.031171 1.158589 0
M  V30 18 C -3.748109 2.519687 1.046211 0
M  V30 19 C -4.218563 2.370899 -0.247770 0
M  V30 20 C -3.444025 2.719273 -1.335146 0
M  V30 21 F -4.016947 2.526340 -2.543420 0
M  V30 22 C -2.159601 3.233439 -1.161247 0
M  V30 23 F -1.446976 3.557345 -2.266687 0
M  V30 24 C 1.367812 1.240440 1.325302 0
M  V30 25 C 1.533893 -0.108741 1.556124 0
M  V30 26 C 2.602097 -3.209499 0.151343 0
M  V30 27 C 2.828436 -4.537045 0.481165 0
M  V30 28 C 2.280255 -5.050054 1.639646 0
M  V30 29 H 3.011080 -7.790922 0.775456 0
M  V30 30 H 3.482998 -8.000664 2.535329 0
M  V30 31 H 0.497885 -4.585740 4.286588 0
M  V30 32 H 0.711113 -2.256886 2.718298 0
M  V30 33 H 1.736618 -1.303401 -1.524361 0
M  V30 34 H 1.444924 1.084163 -2.060564 0
M  V30 35 H 1.775590 3.448399 -1.163391 0
M  V30 36 H -2.040092 3.175501 2.146001 0
M  V30 37 H -4.324964 2.258133 1.920295 0
M  V30 38 H -5.228284 1.965218 -0.338399 0
M  V30 39 H 1.258860 2.003348 2.086846 0
M  V30 40 H 1.549754 -0.376042 2.604516 0
M  V30 41 H 3.079836 -2.924310 -0.773255 0
M  V30 42 H 3.407998 -5.255958 -0.081366 0
M  V30 END ATOM
M  V30 BEGIN BOND
M  V30 1 1 1 2
M  V30 2 2 2 3
M  V30 3 1 3 4
M  V30 4 1 4 5
M  V30 5 2 5 6
M  V30 6 1 6 7
M  V30 7 1 7 8
M  V30 8 2 8 9
M  V30 9 1 9 10
M  V30 10 2 10 11
M  V30 11 1 11 12
M  V30 12 1 12 13
M  V30 13 2 13 14
M  V30 14 2 13 15
M  V30 15 1 13 16
M  V30 16 2 16 17
M  V30 17 1 17 18
M  V30 18 2 18 19
M  V30 19 1 19 20
M  V30 20 1 20 21
M  V30 21 2 20 22
M  V30 22 1 22 23
M  V30 23 1 11 24
M  V30 24 2 24 25
M  V30 25 2 7 26
M  V30 26 1 26 27
M  V30 27 2 27 28
M  V30 28 1 28 2
M  V30 29 1 28 5
M  V30 30 1 25 8
M  V30 31 1 22 16
M  V30 32 1 1 29
M  V30 33 1 1 30
M  V30 34 1 4 31
M  V30 35 1 6 32
M  V30 36 1 9 33
M  V30 37 1 10 34
M  V30 38 1 12 35
M  V30 39 1 17 36
M  V30 40 1 18 37
M  V30 41 1 19 38
M  V30 42 1 24 39
M  V30 43 1 25 40
M  V30 44 1 26 41
M  V30 45 1 27 42
M  V30 END BOND
M  V30 END CTAB
M  END
>  <Dataset>  (943) 
ChEMBL_Kinases

>  <Ligand_Instance>  (943) 
nan

>  <PDB_ID>  (943) 
nan

>  <Standardized_SMILES>  (943) 
Nc1n[nH]c2cc(-c3ccc(NS(=O)(=O)c4cccc(F)c4F)cc3)ccc12

>  <Name>  (943) 
nan

>  <Pocket>  (943) 
nan

>  <ATP_Site>  (943) 
nan

>  <Peripheral>  (943) 
nan

>  <Num_H_Atoms_ProtBoundConf>  (943) 
nan

>  <Num_Resolved_Atoms>  (943) 
nan

>  <Num_Not_Resolved_Atoms>  (943) 
nan

$$$$
CHEMBL3356030
     RDKit          3D

  0  0  0  0  0  0  0  0  0  0999 V3000
M  V30 BEGIN CTAB
M  V30 COUNTS 42 45 0 0 0
M  V30 BEGIN ATOM
M  V30 1 N 3.395148 -7.212226 1.222699 0
M  V30 2 C 2.250886 -6.366508 1.098830 0
M  V30 3 N 0.982132 -6.806655 1.347058 0
M  V30 4 N 0.141058 -5.778301 1.142457 0
M  V30 5 C 0.877792 -4.713747 0.772045 0
M  V30 6 C 0.540382 -3.412690 0.441716 0
M  V30 7 C 1.472420 -2.448790 0.080431 0
M  V30 8 C 1.047321 -1.095704 -0.256409 0
M  V30 9 C -0.174581 -0.895596 -0.850393 0
M  V30 10 C -0.527631 0.410240 -1.147657 0
M  V30 11 C 0.285065 1.515915 -0.877237 0
M  V30 12 N -0.156010 2.825997 -1.214913 0
M  V30 13 S 0.055526 4.069818 -0.032095 0
M  V30 14 O 1.471153 4.256345 0.375223 0
M  V30 15 O -0.576228 5.356706 -0.494890 0
M  V30 16 C -0.906456 3.554378 1.361198 0
M  V30 17 C -0.402662 3.320994 2.619380 0
M  V30 18 C -1.297864 2.919125 3.612714 0
M  V30 19 C -2.635337 2.769059 3.315060 0
M  V30 20 C -3.127454 3.011291 2.028690 0
M  V30 21 C -2.241113 3.414617 1.024121 0
M  V30 22 F -2.794204 3.625847 -0.179854 0
M  V30 23 C 1.498135 1.243339 -0.280035 0
M  V30 24 C 1.894186 -0.041842 0.035210 0
M  V30 25 C 2.798848 -2.852438 0.062274 0
M  V30 26 C 3.203013 -4.138827 0.382063 0
M  V30 27 C 2.220627 -5.037564 0.730255 0
M  V30 28 H 3.906400 -7.922422 0.622956 0
M  V30 29 H 3.803294 -7.046986 2.188065 0
M  V30 30 H -0.902312 -5.846317 1.264908 0
M  V30 31 H -0.498548 -3.097009 0.455700 0
M  V30 32 H -0.800852 -1.730197 -1.060585 0
M  V30 33 H -1.505079 0.514612 -1.616906 0
M  V30 34 H -0.589993 2.978478 -2.166908 0
M  V30 35 H 0.663662 3.470604 2.738617 0
M  V30 36 H -0.861660 2.746547 4.584517 0
M  V30 37 H -3.230056 2.454994 4.159888 0
M  V30 38 H -4.201891 2.850742 1.947274 0
M  V30 39 H 2.163932 2.063263 -0.050184 0
M  V30 40 H 2.858425 -0.180633 0.501848 0
M  V30 41 H 3.522164 -2.101621 -0.219096 0
M  V30 42 H 4.243256 -4.439383 0.363681 0
M  V30 END ATOM
M  V30 BEGIN BOND
M  V30 1 1 1 2
M  V30 2 2 2 3
M  V30 3 1 3 4
M  V30 4 1 4 5
M  V30 5 2 5 6
M  V30 6 1 6 7
M  V30 7 1 7 8
M  V30 8 2 8 9
M  V30 9 1 9 10
M  V30 10 2 10 11
M  V30 11 1 11 12
M  V30 12 1 12 13
M  V30 13 2 13 14
M  V30 14 2 13 15
M  V30 15 1 13 16
M  V30 16 2 16 17
M  V30 17 1 17 18
M  V30 18 2 18 19
M  V30 19 1 19 20
M  V30 20 2 20 21
M  V30 21 1 21 22
M  V30 22 1 11 23
M  V30 23 2 23 24
M  V30 24 2 7 25
M  V30 25 1 25 26
M  V30 26 2 26 27
M  V30 27 1 27 2
M  V30 28 1 27 5
M  V30 29 1 24 8
M  V30 30 1 21 16
M  V30 31 1 1 28
M  V30 32 1 1 29
M  V30 33 1 4 30
M  V30 34 1 6 31
M  V30 35 1 9 32
M  V30 36 1 10 33
M  V30 37 1 12 34
M  V30 38 1 17 35
M  V30 39 1 18 36
M  V30 40 1 19 37
M  V30 41 1 20 38
M  V30 42 1 23 39
M  V30 43 1 24 40
M  V30 44 1 25 41
M  V30 45 1 26 42
M  V30 END BOND
M  V30 END CTAB
M  END
>  <Dataset>  (944) 
ChEMBL_Kinases

>  <Ligand_Instance>  (944) 
nan

>  <PDB_ID>  (944) 
nan

>  <Standardized_SMILES>  (944) 
Nc1n[nH]c2cc(-c3ccc(NS(=O)(=O)c4ccccc4F)cc3)ccc12

>  <Name>  (944) 
nan

>  <Pocket>  (944) 
nan

>  <ATP_Site>  (944) 
nan

>  <Peripheral>  (944) 
nan

>  <Num_H_Atoms_ProtBoundConf>  (944) 
nan

>  <Num_Resolved_Atoms>  (944) 
nan

>  <Num_Not_Resolved_Atoms>  (944) 
nan

$$$$
CHEMBL3356029
     RDKit          3D

  0  0  0  0  0  0  0  0  0  0999 V3000
M  V30 BEGIN CTAB
M  V30 COUNTS 45 48 0 0 0
M  V30 BEGIN ATOM
M  V30 1 N -0.754471 2.023553 7.677833 0
M  V30 2 C 0.347075 1.407095 6.989019 0
M  V30 3 N 1.472428 0.927632 7.584340 0
M  V30 4 N 2.285393 0.422176 6.642644 0
M  V30 5 C 1.666830 0.586290 5.458033 0
M  V30 6 C 2.081977 0.236387 4.185482 0
M  V30 7 C 1.283202 0.498906 3.091247 0
M  V30 8 C 1.588996 0.186636 1.695404 0
M  V30 9 C 1.102033 1.006254 0.674378 0
M  V30 10 C 1.372408 0.737128 -0.655993 0
M  V30 11 C 2.135094 -0.353912 -1.022722 0
M  V30 12 N 2.469768 -0.720369 -2.357262 0
M  V30 13 S 1.262460 -0.693807 -3.569332 0
M  V30 14 O 0.698716 0.692945 -3.660778 0
M  V30 15 O 1.864695 -1.007771 -4.918157 0
M  V30 16 C -0.045124 -1.789476 -3.244861 0
M  V30 17 C -1.355381 -1.339782 -3.098976 0
M  V30 18 C -2.415923 -2.182332 -2.840778 0
M  V30 19 C -3.776637 -1.601375 -2.701626 0
M  V30 20 F -4.323348 -1.273826 -3.927665 0
M  V30 21 F -3.632193 -0.453473 -1.912392 0
M  V30 22 F -4.616931 -2.432693 -1.989334 0
M  V30 23 C -2.221220 -3.534161 -2.713334 0
M  V30 24 C -0.917523 -3.982576 -2.858317 0
M  V30 25 C 0.168922 -3.144459 -3.119847 0
M  V30 26 F 1.420920 -3.651493 -3.250234 0
M  V30 27 C 2.596223 -1.137171 0.017528 0
M  V30 28 C 2.356428 -0.914381 1.359947 0
M  V30 29 C 0.048011 1.125672 3.303686 0
M  V30 30 C -0.391321 1.485981 4.564285 0
M  V30 31 C 0.438687 1.203903 5.621633 0
M  V30 32 H -1.686030 2.042086 7.176789 0
M  V30 33 H -1.679331 2.050160 7.198079 0
M  V30 34 H 3.208576 -0.005804 6.831942 0
M  V30 35 H 3.019034 -0.247688 3.948942 0
M  V30 36 H 0.497180 1.879721 0.879560 0
M  V30 37 H 0.999191 1.366407 -1.446142 0
M  V30 38 H 3.475375 -1.003008 -2.559310 0
M  V30 39 H -1.521700 -0.254913 -3.199785 0
M  V30 40 H -3.017783 -4.229694 -2.512240 0
M  V30 41 H -0.674981 -5.037522 -2.772260 0
M  V30 42 H 3.204369 -2.011282 -0.232022 0
M  V30 43 H 2.756453 -1.579573 2.116708 0
M  V30 44 H -0.640118 1.367598 2.496987 0
M  V30 45 H -1.321595 1.963009 4.769047 0
M  V30 END ATOM
M  V30 BEGIN BOND
M  V30 1 1 1 2
M  V30 2 2 2 3
M  V30 3 1 3 4
M  V30 4 1 4 5
M  V30 5 2 5 6
M  V30 6 1 6 7
M  V30 7 1 7 8
M  V30 8 2 8 9
M  V30 9 1 9 10
M  V30 10 2 10 11
M  V30 11 1 11 12
M  V30 12 1 12 13
M  V30 13 2 13 14
M  V30 14 2 13 15
M  V30 15 1 13 16
M  V30 16 2 16 17
M  V30 17 1 17 18
M  V30 18 1 18 19
M  V30 19 1 19 20
M  V30 20 1 19 21
M  V30 21 1 19 22
M  V30 22 2 18 23
M  V30 23 1 23 24
M  V30 24 2 24 25
M  V30 25 1 25 26
M  V30 26 1 11 27
M  V30 27 2 27 28
M  V30 28 2 7 29
M  V30 29 1 29 30
M  V30 30 2 30 31
M  V30 31 1 31 2
M  V30 32 1 31 5
M  V30 33 1 28 8
M  V30 34 1 25 16
M  V30 35 1 1 32
M  V30 36 1 1 33
M  V30 37 1 4 34
M  V30 38 1 6 35
M  V30 39 1 9 36
M  V30 40 1 10 37
M  V30 41 1 12 38
M  V30 42 1 17 39
M  V30 43 1 23 40
M  V30 44 1 24 41
M  V30 45 1 27 42
M  V30 46 1 28 43
M  V30 47 1 29 44
M  V30 48 1 30 45
M  V30 END BOND
M  V30 END CTAB
M  END
>  <Dataset>  (945) 
ChEMBL_Kinases

>  <Ligand_Instance>  (945) 
nan

>  <PDB_ID>  (945) 
nan

>  <Standardized_SMILES>  (945) 
Nc1n[nH]c2cc(-c3ccc(NS(=O)(=O)c4cc(C(F)(F)F)ccc4F)cc3)ccc12

>  <Name>  (945) 
nan

>  <Pocket>  (945) 
nan

>  <ATP_Site>  (945) 
nan

>  <Peripheral>  (945) 
nan

>  <Num_H_Atoms_ProtBoundConf>  (945) 
nan

>  <Num_Resolved_Atoms>  (945) 
nan

>  <Num_Not_Resolved_Atoms>  (945) 
nan

$$$$
CHEMBL3356028
     RDKit          3D

  0  0  0  0  0  0  0  0  0  0999 V3000
M  V30 BEGIN CTAB
M  V30 COUNTS 43 46 0 0 0
M  V30 BEGIN ATOM
M  V30 1 N -0.534718 1.684716 -1.820704 0
M  V30 2 C 0.528337 1.828306 -2.260682 0
M  V30 3 C 1.844059 2.009133 -2.781105 0
M  V30 4 C 2.088117 1.466720 -4.023940 0
M  V30 5 C 3.342208 1.658001 -4.569246 0
M  V30 6 C 4.284318 2.372887 -3.858831 0
M  V30 7 Cl 5.847807 2.572294 -4.617137 0
M  V30 8 C 3.992276 2.897919 -2.613665 0
M  V30 9 C 2.733271 2.726671 -2.024109 0
M  V30 10 S 2.457269 3.381958 -0.438608 0
M  V30 11 O 1.233538 4.307504 -0.488930 0
M  V30 12 O 3.595465 4.329400 -0.077326 0
M  V30 13 N 2.279348 2.241807 0.801869 0
M  V30 14 C 1.490858 1.165110 1.244688 0
M  V30 15 C 1.226126 0.032022 0.506964 0
M  V30 16 C 0.472650 -1.051354 0.902429 0
M  V30 17 C -0.041173 -0.930911 2.175228 0
M  V30 18 C -0.859581 -2.032786 2.688636 0
M  V30 19 C -1.619866 -2.749100 1.758442 0
M  V30 20 C -2.425184 -3.806046 2.138274 0
M  V30 21 C -2.497054 -4.181063 3.457141 0
M  V30 22 C -3.186936 -5.165852 4.146065 0
M  V30 23 N -4.079026 -6.112199 3.539451 0
M  V30 24 N -2.837223 -5.028849 5.454944 0
M  V30 25 N -1.982170 -4.022052 5.579871 0
M  V30 26 C -1.744586 -3.470438 4.370014 0
M  V30 27 C -0.928790 -2.406512 4.016455 0
M  V30 28 C 0.138311 0.136504 3.026768 0
M  V30 29 C 0.908873 1.156450 2.519134 0
M  V30 30 H 1.327658 0.910885 -4.555726 0
M  V30 31 H 3.532165 1.230965 -5.545490 0
M  V30 32 H 4.817809 3.448987 -2.139335 0
M  V30 33 H 3.020863 2.297090 1.571467 0
M  V30 34 H 1.648334 -0.066244 -0.495168 0
M  V30 35 H 0.306068 -1.906230 0.271323 0
M  V30 36 H -1.621889 -2.520763 0.701919 0
M  V30 37 H -3.014250 -4.363578 1.429049 0
M  V30 38 H -3.541386 -6.859457 3.031716 0
M  V30 39 H -5.129361 -6.211814 3.497591 0
M  V30 40 H -1.559860 -3.711538 6.495167 0
M  V30 41 H -0.336736 -1.842885 4.714401 0
M  V30 42 H -0.285598 0.180402 4.012795 0
M  V30 43 H 1.084628 2.024558 3.146994 0
M  V30 END ATOM
M  V30 BEGIN BOND
M  V30 1 3 1 2
M  V30 2 1 2 3
M  V30 3 2 3 4
M  V30 4 1 4 5
M  V30 5 2 5 6
M  V30 6 1 6 7
M  V30 7 1 6 8
M  V30 8 2 8 9
M  V30 9 1 9 10
M  V30 10 2 10 11
M  V30 11 2 10 12
M  V30 12 1 10 13
M  V30 13 1 13 14
M  V30 14 2 14 15
M  V30 15 1 15 16
M  V30 16 2 16 17
M  V30 17 1 17 18
M  V30 18 2 18 19
M  V30 19 1 19 20
M  V30 20 2 20 21
M  V30 21 1 21 22
M  V30 22 1 22 23
M  V30 23 2 22 24
M  V30 24 1 24 25
M  V30 25 1 25 26
M  V30 26 2 26 27
M  V30 27 1 17 28
M  V30 28 2 28 29
M  V30 29 1 9 3
M  V30 30 1 29 14
M  V30 31 1 27 18
M  V30 32 1 26 21
M  V30 33 1 4 30
M  V30 34 1 5 31
M  V30 35 1 8 32
M  V30 36 1 13 33
M  V30 37 1 15 34
M  V30 38 1 16 35
M  V30 39 1 19 36
M  V30 40 1 20 37
M  V30 41 1 23 38
M  V30 42 1 23 39
M  V30 43 1 25 40
M  V30 44 1 27 41
M  V30 45 1 28 42
M  V30 46 1 29 43
M  V30 END BOND
M  V30 END CTAB
M  END
>  <Dataset>  (946) 
ChEMBL_Kinases

>  <Ligand_Instance>  (946) 
nan

>  <PDB_ID>  (946) 
nan

>  <Standardized_SMILES>  (946) 
N#Cc1ccc(Cl)cc1S(=O)(=O)Nc1ccc(-c2ccc3c(N)n[nH]c3c2)cc1

>  <Name>  (946) 
nan

>  <Pocket>  (946) 
nan

>  <ATP_Site>  (946) 
nan

>  <Peripheral>  (946) 
nan

>  <Num_H_Atoms_ProtBoundConf>  (946) 
nan

>  <Num_Resolved_Atoms>  (946) 
nan

>  <Num_Not_Resolved_Atoms>  (946) 
nan

$$$$
CHEMBL3356027
     RDKit          3D

  0  0  0  0  0  0  0  0  0  0999 V3000
M  V30 BEGIN CTAB
M  V30 COUNTS 46 49 0 0 0
M  V30 BEGIN ATOM
M  V30 1 C 2.576249 0.801434 -0.695617 0
M  V30 2 C 3.760770 1.318738 -0.030644 0
M  V30 3 C 4.958777 0.664631 -0.231497 0
M  V30 4 C 6.114407 1.120763 0.368922 0
M  V30 5 C 6.081888 2.237405 1.177045 0
M  V30 6 C 7.239911 2.771243 1.834311 0
M  V30 7 N 8.184695 3.203566 2.350988 0
M  V30 8 C 4.852597 2.826759 1.323652 0
M  V30 9 C 3.622611 2.443529 0.759537 0
M  V30 10 S 2.173889 3.324072 1.082655 0
M  V30 11 O 1.611732 4.019822 -0.130127 0
M  V30 12 O 2.550644 4.485531 1.971035 0
M  V30 13 N 0.940748 2.445135 1.887643 0
M  V30 14 C 0.142313 1.317152 1.656627 0
M  V30 15 C -0.043314 0.268559 2.534598 0
M  V30 16 C -0.839635 -0.808997 2.212821 0
M  V30 17 C -1.484956 -0.882083 0.996161 0
M  V30 18 C -2.334361 -2.023112 0.644136 0
M  V30 19 C -2.527304 -2.522762 -0.631580 0
M  V30 20 C -3.374916 -3.619087 -0.775357 0
M  V30 21 C -4.011025 -4.207021 0.283974 0
M  V30 22 C -4.878560 -5.274240 0.409899 0
M  V30 23 N -5.371342 -6.104302 -0.629410 0
M  V30 24 N -5.189572 -5.401943 1.721536 0
M  V30 25 N -4.555376 -4.463446 2.416723 0
M  V30 26 C -3.834474 -3.729949 1.550110 0
M  V30 27 C -2.997649 -2.644638 1.706660 0
M  V30 28 C -1.359769 0.117605 0.055060 0
M  V30 29 C -0.547922 1.162220 0.447298 0
M  V30 30 H 1.879055 1.558795 -1.079277 0
M  V30 31 H 2.873974 0.228160 -1.604255 0
M  V30 32 H 2.083411 0.015498 -0.056890 0
M  V30 33 H 4.985248 -0.225730 -0.875852 0
M  V30 34 H 7.051623 0.616276 0.217326 0
M  V30 35 H 4.838613 3.717708 1.971398 0
M  V30 36 H 0.610316 2.773531 2.850357 0
M  V30 37 H 0.462387 0.325633 3.488466 0
M  V30 38 H -0.951233 -1.613221 2.947910 0
M  V30 39 H -2.000869 -2.020571 -1.430868 0
M  V30 40 H -3.520244 -4.002993 -1.774264 0
M  V30 41 H -6.371670 -6.359616 -0.570983 0
M  V30 42 H -4.824911 -6.477587 -1.438548 0
M  V30 43 H -4.587800 -4.296788 3.447884 0
M  V30 44 H -2.865854 -2.274973 2.717359 0
M  V30 45 H -1.820286 0.156481 -0.921580 0
M  V30 46 H -0.414518 1.986343 -0.267442 0
M  V30 END ATOM
M  V30 BEGIN BOND
M  V30 1 1 1 2
M  V30 2 2 2 3
M  V30 3 1 3 4
M  V30 4 2 4 5
M  V30 5 1 5 6
M  V30 6 3 6 7
M  V30 7 1 5 8
M  V30 8 2 8 9
M  V30 9 1 9 10
M  V30 10 2 10 11
M  V30 11 2 10 12
M  V30 12 1 10 13
M  V30 13 1 13 14
M  V30 14 2 14 15
M  V30 15 1 15 16
M  V30 16 2 16 17
M  V30 17 1 17 18
M  V30 18 2 18 19
M  V30 19 1 19 20
M  V30 20 2 20 21
M  V30 21 1 21 22
M  V30 22 1 22 23
M  V30 23 2 22 24
M  V30 24 1 24 25
M  V30 25 1 25 26
M  V30 26 2 26 27
M  V30 27 1 17 28
M  V30 28 2 28 29
M  V30 29 1 9 2
M  V30 30 1 29 14
M  V30 31 1 27 18
M  V30 32 1 26 21
M  V30 33 1 1 30
M  V30 34 1 1 31
M  V30 35 1 1 32
M  V30 36 1 3 33
M  V30 37 1 4 34
M  V30 38 1 8 35
M  V30 39 1 13 36
M  V30 40 1 15 37
M  V30 41 1 16 38
M  V30 42 1 19 39
M  V30 43 1 20 40
M  V30 44 1 23 41
M  V30 45 1 23 42
M  V30 46 1 25 43
M  V30 47 1 27 44
M  V30 48 1 28 45
M  V30 49 1 29 46
M  V30 END BOND
M  V30 END CTAB
M  END
>  <Dataset>  (947) 
ChEMBL_Kinases

>  <Ligand_Instance>  (947) 
nan

>  <PDB_ID>  (947) 
nan

>  <Standardized_SMILES>  (947) 
Cc1ccc(C#N)cc1S(=O)(=O)Nc1ccc(-c2ccc3c(N)n[nH]c3c2)cc1

>  <Name>  (947) 
nan

>  <Pocket>  (947) 
nan

>  <ATP_Site>  (947) 
nan

>  <Peripheral>  (947) 
nan

>  <Num_H_Atoms_ProtBoundConf>  (947) 
nan

>  <Num_Resolved_Atoms>  (947) 
nan

>  <Num_Not_Resolved_Atoms>  (947) 
nan

$$$$
CHEMBL3356026
     RDKit          3D

  0  0  0  0  0  0  0  0  0  0999 V3000
M  V30 BEGIN CTAB
M  V30 COUNTS 43 46 0 0 0
M  V30 BEGIN ATOM
M  V30 1 N -0.270734 -0.040959 -2.263887 0
M  V30 2 C 0.749295 0.156563 -2.721194 0
M  V30 3 C 2.013085 0.402850 -3.315066 0
M  V30 4 C 2.504806 -0.503930 -4.227047 0
M  V30 5 Cl 1.584698 -1.944320 -4.605771 0
M  V30 6 C 3.714173 -0.278992 -4.837634 0
M  V30 7 C 4.441584 0.857629 -4.539108 0
M  V30 8 C 3.889399 1.705712 -3.627539 0
M  V30 9 C 2.665332 1.556581 -2.956654 0
M  V30 10 S 2.189272 2.760160 -1.815540 0
M  V30 11 O 0.803621 3.304635 -2.188952 0
M  V30 12 O 3.098538 3.940761 -1.919497 0
M  V30 13 N 2.101361 2.229471 -0.191450 0
M  V30 14 C 1.436545 1.325626 0.666484 0
M  V30 15 C 2.071559 0.447764 1.518676 0
M  V30 16 C 1.304709 -0.398365 2.290120 0
M  V30 17 C -0.072689 -0.387349 2.230115 0
M  V30 18 C -0.880288 -1.294787 3.059049 0
M  V30 19 C -2.110399 -1.747084 2.573511 0
M  V30 20 C -2.893406 -2.583615 3.298128 0
M  V30 21 C -2.512055 -3.028908 4.551855 0
M  V30 22 C -3.084243 -3.862061 5.499837 0
M  V30 23 N -4.350524 -4.496388 5.318130 0
M  V30 24 N -2.221675 -3.911337 6.531158 0
M  V30 25 N -1.161442 -3.154325 6.257642 0
M  V30 26 C -1.300420 -2.590766 5.044081 0
M  V30 27 C -0.493549 -1.733792 4.306799 0
M  V30 28 C -0.760825 0.469607 1.396092 0
M  V30 29 C 0.057762 1.291810 0.648979 0
M  V30 30 H 4.131595 -0.968578 -5.558664 0
M  V30 31 H 5.393163 1.069602 -4.997038 0
M  V30 32 H 4.479895 2.604357 -3.400912 0
M  V30 33 H 2.768018 2.728169 0.479219 0
M  V30 34 H 3.149896 0.459442 1.546574 0
M  V30 35 H 1.793150 -1.104512 2.974587 0
M  V30 36 H -2.455515 -1.422820 1.587077 0
M  V30 37 H -3.855890 -2.924817 2.894189 0
M  V30 38 H -4.610306 -5.252958 4.644385 0
M  V30 39 H -5.168410 -4.195760 5.922293 0
M  V30 40 H -0.310582 -2.986440 6.866979 0
M  V30 41 H 0.445335 -1.378895 4.659660 0
M  V30 42 H -1.835784 0.517226 1.312876 0
M  V30 43 H -0.463087 1.984408 -0.023751 0
M  V30 END ATOM
M  V30 BEGIN BOND
M  V30 1 3 1 2
M  V30 2 1 2 3
M  V30 3 2 3 4
M  V30 4 1 4 5
M  V30 5 1 4 6
M  V30 6 2 6 7
M  V30 7 1 7 8
M  V30 8 2 8 9
M  V30 9 1 9 10
M  V30 10 2 10 11
M  V30 11 2 10 12
M  V30 12 1 10 13
M  V30 13 1 13 14
M  V30 14 2 14 15
M  V30 15 1 15 16
M  V30 16 2 16 17
M  V30 17 1 17 18
M  V30 18 2 18 19
M  V30 19 1 19 20
M  V30 20 2 20 21
M  V30 21 1 21 22
M  V30 22 1 22 23
M  V30 23 2 22 24
M  V30 24 1 24 25
M  V30 25 1 25 26
M  V30 26 2 26 27
M  V30 27 1 17 28
M  V30 28 2 28 29
M  V30 29 1 9 3
M  V30 30 1 29 14
M  V30 31 1 27 18
M  V30 32 1 26 21
M  V30 33 1 6 30
M  V30 34 1 7 31
M  V30 35 1 8 32
M  V30 36 1 13 33
M  V30 37 1 15 34
M  V30 38 1 16 35
M  V30 39 1 19 36
M  V30 40 1 20 37
M  V30 41 1 23 38
M  V30 42 1 23 39
M  V30 43 1 25 40
M  V30 44 1 27 41
M  V30 45 1 28 42
M  V30 46 1 29 43
M  V30 END BOND
M  V30 END CTAB
M  END
>  <Dataset>  (948) 
ChEMBL_Kinases

>  <Ligand_Instance>  (948) 
nan

>  <PDB_ID>  (948) 
nan

>  <Standardized_SMILES>  (948) 
N#Cc1c(Cl)cccc1S(=O)(=O)Nc1ccc(-c2ccc3c(N)n[nH]c3c2)cc1

>  <Name>  (948) 
nan

>  <Pocket>  (948) 
nan

>  <ATP_Site>  (948) 
nan

>  <Peripheral>  (948) 
nan

>  <Num_H_Atoms_ProtBoundConf>  (948) 
nan

>  <Num_Resolved_Atoms>  (948) 
nan

>  <Num_Not_Resolved_Atoms>  (948) 
nan

$$$$
CHEMBL3356025
     RDKit          3D

  0  0  0  0  0  0  0  0  0  0999 V3000
M  V30 BEGIN CTAB
M  V30 COUNTS 42 45 0 0 0
M  V30 BEGIN ATOM
M  V30 1 N 2.829650 -7.456213 2.077917 0
M  V30 2 C 2.161099 -6.267576 2.488693 0
M  V30 3 N 1.355777 -6.107828 3.554869 0
M  V30 4 N 0.915804 -4.869392 3.620254 0
M  V30 5 C 1.421761 -4.163221 2.588115 0
M  V30 6 C 1.321302 -2.859797 2.144516 0
M  V30 7 C 1.993669 -2.423252 0.998282 0
M  V30 8 C 1.786677 -1.015833 0.658153 0
M  V30 9 C 1.823138 -0.672494 -0.692500 0
M  V30 10 C 1.628595 0.665633 -1.054380 0
M  V30 11 C 1.400756 1.650759 -0.088753 0
M  V30 12 N 1.209724 2.985066 -0.492495 0
M  V30 13 S -0.036441 3.921328 0.174667 0
M  V30 14 O 0.069053 5.325375 -0.375266 0
M  V30 15 O 0.159211 4.010578 1.661224 0
M  V30 16 C -1.630134 3.310140 -0.118630 0
M  V30 17 C -1.964449 2.172719 -0.819387 0
M  V30 18 C -3.291877 1.796941 -0.979103 0
M  V30 19 Cl -3.652548 0.339840 -1.880784 0
M  V30 20 C -4.316531 2.543829 -0.445573 0
M  V30 21 C -3.977441 3.668380 0.246755 0
M  V30 22 C -2.675643 4.059530 0.417726 0
M  V30 23 Cl -2.396133 5.534270 1.335246 0
M  V30 24 C 1.380155 1.225968 1.225704 0
M  V30 25 C 1.564746 -0.075646 1.645422 0
M  V30 26 C 2.779503 -3.276118 0.270991 0
M  V30 27 C 2.873893 -4.587411 0.726703 0
M  V30 28 C 2.220747 -5.044294 1.854894 0
M  V30 29 H 3.662200 -7.393499 1.450168 0
M  V30 30 H 2.520810 -8.402280 2.380266 0
M  V30 31 H 0.267061 -4.458980 4.352592 0
M  V30 32 H 0.682236 -2.197944 2.750142 0
M  V30 33 H 1.996684 -1.416386 -1.443045 0
M  V30 34 H 1.667286 0.874408 -2.117536 0
M  V30 35 H 1.908141 3.307616 -1.226513 0
M  V30 36 H -1.126146 1.611989 -1.224096 0
M  V30 37 H -5.363518 2.244573 -0.573424 0
M  V30 38 H -4.814046 4.238796 0.657373 0
M  V30 39 H 1.207585 1.950052 2.009527 0
M  V30 40 H 1.535313 -0.335417 2.695031 0
M  V30 41 H 3.280899 -2.918027 -0.598465 0
M  V30 42 H 3.486321 -5.288729 0.176434 0
M  V30 END ATOM
M  V30 BEGIN BOND
M  V30 1 1 1 2
M  V30 2 2 2 3
M  V30 3 1 3 4
M  V30 4 1 4 5
M  V30 5 2 5 6
M  V30 6 1 6 7
M  V30 7 1 7 8
M  V30 8 2 8 9
M  V30 9 1 9 10
M  V30 10 2 10 11
M  V30 11 1 11 12
M  V30 12 1 12 13
M  V30 13 2 13 14
M  V30 14 2 13 15
M  V30 15 1 13 16
M  V30 16 2 16 17
M  V30 17 1 17 18
M  V30 18 1 18 19
M  V30 19 2 18 20
M  V30 20 1 20 21
M  V30 21 2 21 22
M  V30 22 1 22 23
M  V30 23 1 11 24
M  V30 24 2 24 25
M  V30 25 2 7 26
M  V30 26 1 26 27
M  V30 27 2 27 28
M  V30 28 1 28 2
M  V30 29 1 28 5
M  V30 30 1 25 8
M  V30 31 1 22 16
M  V30 32 1 1 29
M  V30 33 1 1 30
M  V30 34 1 4 31
M  V30 35 1 6 32
M  V30 36 1 9 33
M  V30 37 1 10 34
M  V30 38 1 12 35
M  V30 39 1 17 36
M  V30 40 1 20 37
M  V30 41 1 21 38
M  V30 42 1 24 39
M  V30 43 1 25 40
M  V30 44 1 26 41
M  V30 45 1 27 42
M  V30 END BOND
M  V30 END CTAB
M  END
>  <Dataset>  (949) 
ChEMBL_Kinases

>  <Ligand_Instance>  (949) 
nan

>  <PDB_ID>  (949) 
nan

>  <Standardized_SMILES>  (949) 
Nc1n[nH]c2cc(-c3ccc(NS(=O)(=O)c4cc(Cl)ccc4Cl)cc3)ccc12

>  <Name>  (949) 
nan

>  <Pocket>  (949) 
nan

>  <ATP_Site>  (949) 
nan

>  <Peripheral>  (949) 
nan

>  <Num_H_Atoms_ProtBoundConf>  (949) 
nan

>  <Num_Resolved_Atoms>  (949) 
nan

>  <Num_Not_Resolved_Atoms>  (949) 
nan

$$$$
CHEMBL3356006
     RDKit          3D

  0  0  0  0  0  0  0  0  0  0999 V3000
M  V30 BEGIN CTAB
M  V30 COUNTS 75 80 0 0 0
M  V30 BEGIN ATOM
M  V30 1 C 0.951395 -2.215403 -1.599692 0
M  V30 2 C -0.340029 -1.965531 -2.302416 0
M  V30 3 C -0.295199 -1.982503 -3.709111 0
M  V30 4 C -1.432657 -1.755883 -4.456510 0
M  V30 5 N -1.401269 -1.760009 -5.886572 0
M  V30 6 S 0.022997 -1.361554 -6.780775 0
M  V30 7 O -0.260618 -1.474921 -8.271627 0
M  V30 8 O 1.134345 -2.285266 -6.430958 0
M  V30 9 C 0.468879 0.290550 -6.396054 0
M  V30 10 C -0.280369 1.056317 -5.535215 0
M  V30 11 C -0.030780 2.355724 -5.158476 0
M  V30 12 C 1.098205 2.973923 -5.702154 0
M  V30 13 C 1.863442 2.230001 -6.565049 0
M  V30 14 C 1.602312 0.909306 -6.941779 0
M  V30 15 C 2.444570 0.165833 -7.856504 0
M  V30 16 N 3.105786 -0.430006 -8.560887 0
M  V30 17 C -2.646854 -1.507464 -3.809491 0
M  V30 18 C -3.835793 -1.278490 -4.473462 0
M  V30 19 C -5.013601 -1.047983 -3.771171 0
M  V30 20 C -4.981500 -1.048207 -2.381454 0
M  V30 21 C -3.819453 -1.269430 -1.677866 0
M  V30 22 C -2.653135 -1.498543 -2.419106 0
M  V30 23 C -1.544810 -1.716586 -1.629339 0
M  V30 24 O -1.412828 -1.733739 -0.308106 0
M  V30 25 C -1.611887 -2.485126 0.753215 0
M  V30 26 N -2.132694 -3.710691 0.617878 0
M  V30 27 C -2.339322 -4.491501 1.681899 0
M  V30 28 C -2.008660 -4.018981 2.932378 0
M  V30 29 C -1.467634 -2.750168 3.094580 0
M  V30 30 C -1.255922 -1.938364 1.966269 0
M  V30 31 C -0.674026 -0.642884 2.261131 0
M  V30 32 C -0.467396 0.386443 1.355006 0
M  V30 33 C 0.083832 1.590140 1.694770 0
M  V30 34 N 0.450226 1.807345 2.966410 0
M  V30 35 C 0.263654 0.820800 3.878361 0
M  V30 36 N 0.669903 1.031708 5.240251 0
M  V30 37 C 0.544861 0.123981 6.361348 0 CFG=1
M  V30 38 C 1.197731 -1.211767 6.103589 0
M  V30 39 C 2.676753 -1.090289 5.864272 0
M  V30 40 C 3.270360 0.116428 6.547113 0 CFG=2
M  V30 41 N 4.666874 -0.185685 6.891994 0
M  V30 42 C 2.559679 0.473462 7.810024 0
M  V30 43 C 1.110247 0.780714 7.608444 0
M  V30 44 N -0.277729 -0.337840 3.500395 0
M  V30 45 H 0.806222 -2.802554 -0.645583 0
M  V30 46 H 1.517984 -1.289986 -1.407791 0
M  V30 47 H 1.584798 -2.861729 -2.237415 0
M  V30 48 H 0.668538 -2.173548 -4.200251 0
M  V30 49 H -2.254363 -2.014142 -6.459856 0
M  V30 50 H -1.177223 0.626348 -5.074828 0
M  V30 51 H -0.683507 2.890754 -4.466019 0
M  V30 52 H 1.362429 3.975883 -5.468943 0
M  V30 53 H 2.762725 2.646769 -7.033132 0
M  V30 54 H -3.860405 -1.275807 -5.532051 0
M  V30 55 H -5.928343 -0.865441 -4.309908 0
M  V30 56 H -5.941585 -0.859995 -1.918995 0
M  V30 57 H -3.846440 -1.258247 -0.599450 0
M  V30 58 H -2.756552 -5.488956 1.639421 0
M  V30 59 H -2.160262 -4.617048 3.818537 0
M  V30 60 H -1.234763 -2.447035 4.113677 0
M  V30 61 H -0.742325 0.269271 0.344735 0
M  V30 62 H 0.223729 2.378470 0.972115 0
M  V30 63 H 1.109649 1.975148 5.438173 0
M  V30 64 H -0.524717 -0.043142 6.540629 0
M  V30 65 H 0.949270 -1.895816 6.952029 0
M  V30 66 H 0.737998 -1.650103 5.204295 0
M  V30 67 H 3.160865 -1.993067 6.300383 0
M  V30 68 H 2.946201 -1.099026 4.786524 0
M  V30 69 H 3.328326 0.981940 5.852687 0
M  V30 70 H 5.153073 -0.577199 6.047397 0
M  V30 71 H 4.599054 -1.004018 7.571962 0
M  V30 72 H 3.065214 1.388892 8.221233 0
M  V30 73 H 2.731332 -0.320587 8.570058 0
M  V30 74 H 0.547659 0.516544 8.528630 0
M  V30 75 H 1.009649 1.888453 7.447033 0
M  V30 END ATOM
M  V30 BEGIN BOND
M  V30 1 1 1 2
M  V30 2 2 2 3
M  V30 3 1 3 4
M  V30 4 1 4 5
M  V30 5 1 5 6
M  V30 6 2 6 7
M  V30 7 2 6 8
M  V30 8 1 6 9
M  V30 9 2 9 10
M  V30 10 1 10 11
M  V30 11 2 11 12
M  V30 12 1 12 13
M  V30 13 2 13 14
M  V30 14 1 14 15
M  V30 15 3 15 16
M  V30 16 2 4 17
M  V30 17 1 17 18
M  V30 18 2 18 19
M  V30 19 1 19 20
M  V30 20 2 20 21
M  V30 21 1 21 22
M  V30 22 2 22 23
M  V30 23 1 23 24
M  V30 24 1 24 25
M  V30 25 2 25 26
M  V30 26 1 26 27
M  V30 27 2 27 28
M  V30 28 1 28 29
M  V30 29 2 29 30
M  V30 30 1 30 31
M  V30 31 2 31 32
M  V30 32 1 32 33
M  V30 33 2 33 34
M  V30 34 1 34 35
M  V30 35 1 35 36
M  V30 36 1 36 37
M  V30 37 1 37 38
M  V30 38 1 38 39
M  V30 39 1 39 40
M  V30 40 1 40 41
M  V30 41 1 40 42
M  V30 42 1 42 43
M  V30 43 2 35 44
M  V30 44 1 23 2
M  V30 45 1 30 25
M  V30 46 1 44 31
M  V30 47 1 14 9
M  V30 48 1 22 17
M  V30 49 1 43 37
M  V30 50 1 1 45
M  V30 51 1 1 46
M  V30 52 1 1 47
M  V30 53 1 3 48
M  V30 54 1 5 49
M  V30 55 1 10 50
M  V30 56 1 11 51
M  V30 57 1 12 52
M  V30 58 1 13 53
M  V30 59 1 18 54
M  V30 60 1 19 55
M  V30 61 1 20 56
M  V30 62 1 21 57
M  V30 63 1 27 58
M  V30 64 1 28 59
M  V30 65 1 29 60
M  V30 66 1 32 61
M  V30 67 1 33 62
M  V30 68 1 36 63
M  V30 69 1 37 64 CFG=1
M  V30 70 1 38 65
M  V30 71 1 38 66
M  V30 72 1 39 67
M  V30 73 1 39 68
M  V30 74 1 40 69 CFG=3
M  V30 75 1 41 70
M  V30 76 1 41 71
M  V30 77 1 42 72
M  V30 78 1 42 73
M  V30 79 1 43 74
M  V30 80 1 43 75
M  V30 END BOND
M  V30 END CTAB
M  END
>  <Dataset>  (950) 
ChEMBL_Kinases

>  <Ligand_Instance>  (950) 
nan

>  <PDB_ID>  (950) 
nan

>  <Standardized_SMILES>  (950) 
Cc1cc(NS(=O)(=O)c2ccccc2C#N)c2ccccc2c1Oc1ncccc1-c1ccnc(N[C@H]2CC[C@H](N)CC2)n1

>  <Name>  (950) 
nan

>  <Pocket>  (950) 
nan

>  <ATP_Site>  (950) 
nan

>  <Peripheral>  (950) 
nan

>  <Num_H_Atoms_ProtBoundConf>  (950) 
nan

>  <Num_Resolved_Atoms>  (950) 
nan

>  <Num_Not_Resolved_Atoms>  (950) 
nan

$$$$
CHEMBL3356007
     RDKit          3D

  0  0  0  0  0  0  0  0  0  0999 V3000
M  V30 BEGIN CTAB
M  V30 COUNTS 74 79 0 0 0
M  V30 BEGIN ATOM
M  V30 1 C -0.237624 -3.268182 1.357903 0
M  V30 2 C 0.390755 -2.689458 0.154527 0
M  V30 3 C 1.750680 -2.714812 -0.075049 0
M  V30 4 C 2.414830 -2.193686 -1.178742 0
M  V30 5 N 3.802892 -2.365524 -1.180769 0
M  V30 6 S 5.215953 -2.207620 -0.235595 0
M  V30 7 O 6.384788 -2.728516 -1.036078 0
M  V30 8 O 5.139249 -3.148066 0.970414 0
M  V30 9 C 5.590727 -0.603088 0.280550 0
M  V30 10 C 6.764519 0.019685 -0.179753 0
M  V30 11 C 7.216941 1.288947 0.108473 0
M  V30 12 C 6.427312 2.042077 0.948496 0
M  V30 13 C 5.257457 1.523403 1.453916 0
M  V30 14 C 4.892630 0.244092 1.106052 0
M  V30 15 Cl 3.414609 -0.392056 1.783953 0
M  V30 16 C 1.603397 -1.585542 -2.144769 0
M  V30 17 C 2.293025 -1.081660 -3.220418 0
M  V30 18 C 1.525253 -0.470345 -4.198773 0
M  V30 19 C 0.149161 -0.392057 -4.064077 0
M  V30 20 C -0.473896 -0.922525 -2.952664 0
M  V30 21 C 0.245160 -1.552216 -1.930136 0
M  V30 22 C -0.361923 -2.083844 -0.818130 0
M  V30 23 O -1.740378 -1.979288 -0.731752 0
M  V30 24 C -2.540570 -2.987989 -1.249289 0
M  V30 25 N -1.875480 -4.021592 -1.810558 0
M  V30 26 C -2.550487 -5.069336 -2.351622 0
M  V30 27 C -3.925112 -5.007005 -2.290210 0
M  V30 28 C -4.579166 -3.940404 -1.711613 0
M  V30 29 C -3.919257 -2.885094 -1.166194 0
M  V30 30 C -4.588763 -1.762251 -0.561371 0
M  V30 31 C -5.964787 -1.715327 -0.540379 0
M  V30 32 C -6.655454 -0.642771 0.030023 0
M  V30 33 N -5.984366 0.368576 0.571793 0
M  V30 34 C -4.620812 0.339173 0.560272 0
M  V30 35 N -3.881526 1.434772 1.139330 0
M  V30 36 C -2.453177 1.592937 1.242521 0 CFG=1
M  V30 37 C -2.041472 2.914166 1.869747 0
M  V30 38 C -2.167575 2.833529 3.363066 0
M  V30 39 C -1.135067 1.867111 3.922682 0 CFG=2
M  V30 40 N 0.016356 2.556645 4.459618 0
M  V30 41 C -0.715406 0.897071 2.818884 0
M  V30 42 C -1.982573 0.451335 2.149714 0
M  V30 43 N -3.946598 -0.709130 0.002773 0
M  V30 44 H -0.271623 -2.581844 2.219747 0
M  V30 45 H 0.400772 -4.143446 1.678998 0
M  V30 46 H -1.226861 -3.741202 1.133595 0
M  V30 47 H 2.307009 -3.209924 0.732812 0
M  V30 48 H 3.938620 -2.737723 -2.174266 0
M  V30 49 H 7.422129 -0.553418 -0.855009 0
M  V30 50 H 8.138482 1.659062 -0.306658 0
M  V30 51 H 6.692016 3.037699 1.231363 0
M  V30 52 H 4.625486 2.099164 2.114065 0
M  V30 53 H 3.359393 -1.148475 -3.313872 0
M  V30 54 H 1.986805 -0.039945 -5.091118 0
M  V30 55 H -0.511822 0.069272 -4.785848 0
M  V30 56 H -1.563491 -0.888286 -2.794219 0
M  V30 57 H -2.057257 -5.911181 -2.807808 0
M  V30 58 H -4.455716 -5.847312 -2.724436 0
M  V30 59 H -5.644989 -4.014323 -1.728628 0
M  V30 60 H -6.619420 -2.449189 -0.933962 0
M  V30 61 H -7.735539 -0.557333 0.072367 0
M  V30 62 H -4.434914 2.223812 1.540432 0
M  V30 63 H -1.931365 1.501774 0.290714 0
M  V30 64 H -0.984938 3.120825 1.603438 0
M  V30 65 H -2.637083 3.761850 1.484142 0
M  V30 66 H -1.977177 3.825443 3.799655 0
M  V30 67 H -3.196736 2.444381 3.571027 0
M  V30 68 H -1.656445 1.235328 4.689948 0
M  V30 69 H 0.272650 2.127325 5.375207 0
M  V30 70 H 0.783336 2.558851 3.767793 0
M  V30 71 H -0.260823 -0.025218 3.268029 0
M  V30 72 H -0.060076 1.358623 2.067160 0
M  V30 73 H -2.789824 0.201192 2.872109 0
M  V30 74 H -1.828612 -0.445126 1.527921 0
M  V30 END ATOM
M  V30 BEGIN BOND
M  V30 1 1 1 2
M  V30 2 2 2 3
M  V30 3 1 3 4
M  V30 4 1 4 5
M  V30 5 1 5 6
M  V30 6 2 6 7
M  V30 7 2 6 8
M  V30 8 1 6 9
M  V30 9 2 9 10
M  V30 10 1 10 11
M  V30 11 2 11 12
M  V30 12 1 12 13
M  V30 13 2 13 14
M  V30 14 1 14 15
M  V30 15 2 4 16
M  V30 16 1 16 17
M  V30 17 2 17 18
M  V30 18 1 18 19
M  V30 19 2 19 20
M  V30 20 1 20 21
M  V30 21 2 21 22
M  V30 22 1 22 23
M  V30 23 1 23 24
M  V30 24 2 24 25
M  V30 25 1 25 26
M  V30 26 2 26 27
M  V30 27 1 27 28
M  V30 28 2 28 29
M  V30 29 1 29 30
M  V30 30 2 30 31
M  V30 31 1 31 32
M  V30 32 2 32 33
M  V30 33 1 33 34
M  V30 34 1 34 35
M  V30 35 1 35 36
M  V30 36 1 36 37
M  V30 37 1 37 38
M  V30 38 1 38 39
M  V30 39 1 39 40
M  V30 40 1 39 41
M  V30 41 1 41 42
M  V30 42 2 34 43
M  V30 43 1 22 2
M  V30 44 1 29 24
M  V30 45 1 43 30
M  V30 46 1 14 9
M  V30 47 1 21 16
M  V30 48 1 42 36
M  V30 49 1 1 44
M  V30 50 1 1 45
M  V30 51 1 1 46
M  V30 52 1 3 47
M  V30 53 1 5 48
M  V30 54 1 10 49
M  V30 55 1 11 50
M  V30 56 1 12 51
M  V30 57 1 13 52
M  V30 58 1 17 53
M  V30 59 1 18 54
M  V30 60 1 19 55
M  V30 61 1 20 56
M  V30 62 1 26 57
M  V30 63 1 27 58
M  V30 64 1 28 59
M  V30 65 1 31 60
M  V30 66 1 32 61
M  V30 67 1 35 62
M  V30 68 1 36 63 CFG=3
M  V30 69 1 37 64
M  V30 70 1 37 65
M  V30 71 1 38 66
M  V30 72 1 38 67
M  V30 73 1 39 68 CFG=1
M  V30 74 1 40 69
M  V30 75 1 40 70
M  V30 76 1 41 71
M  V30 77 1 41 72
M  V30 78 1 42 73
M  V30 79 1 42 74
M  V30 END BOND
M  V30 END CTAB
M  END
>  <Dataset>  (951) 
ChEMBL_Kinases

>  <Ligand_Instance>  (951) 
nan

>  <PDB_ID>  (951) 
nan

>  <Standardized_SMILES>  (951) 
Cc1cc(NS(=O)(=O)c2ccccc2Cl)c2ccccc2c1Oc1ncccc1-c1ccnc(N[C@H]2CC[C@H](N)CC2)n1

>  <Name>  (951) 
nan

>  <Pocket>  (951) 
nan

>  <ATP_Site>  (951) 
nan

>  <Peripheral>  (951) 
nan

>  <Num_H_Atoms_ProtBoundConf>  (951) 
nan

>  <Num_Resolved_Atoms>  (951) 
nan

>  <Num_Not_Resolved_Atoms>  (951) 
nan

$$$$
CHEMBL3356008
     RDKit          3D

  0  0  0  0  0  0  0  0  0  0999 V3000
M  V30 BEGIN CTAB
M  V30 COUNTS 74 79 0 0 0
M  V30 BEGIN ATOM
M  V30 1 C -1.000951 -4.020388 2.885157 0
M  V30 2 C 0.172125 -3.578882 2.089863 0
M  V30 3 C 1.501738 -3.676188 2.467466 0
M  V30 4 C 2.493106 -3.234107 1.647663 0
M  V30 5 C 2.263096 -2.670069 0.410927 0
M  V30 6 C 3.339586 -2.253285 -0.344902 0
M  V30 7 N 4.696356 -2.361815 0.044985 0
M  V30 8 S 5.872794 -1.557024 -0.950844 0
M  V30 9 O 7.220677 -1.844581 -0.354778 0
M  V30 10 O 5.900425 -2.135700 -2.333338 0
M  V30 11 C 5.614918 0.174010 -0.993512 0
M  V30 12 C 5.362659 1.008955 -2.059924 0
M  V30 13 C 5.194727 2.358170 -1.847705 0
M  V30 14 C 5.272744 2.893536 -0.594850 0
M  V30 15 C 5.525819 2.085088 0.509252 0
M  V30 16 C 5.694278 0.725215 0.288441 0
M  V30 17 Cl 6.006392 -0.164679 1.778579 0
M  V30 18 C 2.964026 -1.710484 -1.555094 0
M  V30 19 C 1.674140 -1.577795 -2.003163 0
M  V30 20 C 0.645009 -2.016319 -1.194886 0
M  V30 21 C 0.940896 -2.571871 0.032351 0
M  V30 22 C -0.080000 -3.016406 0.853895 0
M  V30 23 O -1.383132 -2.879547 0.394155 0
M  V30 24 C -2.014536 -3.861443 -0.356567 0
M  V30 25 N -1.296288 -4.956062 -0.619200 0
M  V30 26 C -1.865305 -5.948224 -1.350211 0
M  V30 27 C -3.162011 -5.806071 -1.802436 0
M  V30 28 C -3.880931 -4.648192 -1.508096 0
M  V30 29 C -3.311392 -3.635301 -0.766310 0
M  V30 30 C -3.965257 -2.386102 -0.398810 0
M  V30 31 C -5.256709 -2.087792 -0.775456 0
M  V30 32 C -5.822270 -0.892895 -0.398584 0
M  V30 33 N -5.111346 -0.020434 0.336525 0
M  V30 34 C -3.854405 -0.304386 0.706340 0
M  V30 35 N -3.111505 0.628457 1.488429 0
M  V30 36 C -3.724912 1.875370 1.876173 0 CFG=1
M  V30 37 C -2.713396 2.658281 2.705868 0
M  V30 38 C -1.964817 3.646637 1.847757 0
M  V30 39 C -1.531760 3.032487 0.538585 0 CFG=2
M  V30 40 N -0.730483 3.943631 -0.242582 0
M  V30 41 C -2.746117 2.626186 -0.234851 0
M  V30 42 C -3.969797 2.709661 0.640859 0
M  V30 43 N -3.331260 -1.467813 0.328026 0
M  V30 44 H -1.834028 -3.309592 2.743227 0
M  V30 45 H -1.368269 -4.997842 2.477834 0
M  V30 46 H -0.778473 -4.087744 3.969015 0
M  V30 47 H 1.679265 -4.120803 3.442094 0
M  V30 48 H 3.473128 -3.357589 2.039552 0
M  V30 49 H 5.006951 -2.894731 0.884061 0
M  V30 50 H 5.327423 0.448009 -2.996999 0
M  V30 51 H 5.001486 2.905541 -2.774665 0
M  V30 52 H 5.115096 3.977215 -0.607519 0
M  V30 53 H 5.569263 2.586993 1.445039 0
M  V30 54 H 3.699687 -1.341369 -2.257156 0
M  V30 55 H 1.414112 -1.146484 -2.959864 0
M  V30 56 H -0.378721 -1.920867 -1.529549 0
M  V30 57 H -1.403933 -6.883553 -1.635986 0
M  V30 58 H -3.700041 -6.535145 -2.388012 0
M  V30 59 H -4.891428 -4.513783 -1.848483 0
M  V30 60 H -5.838135 -2.779349 -1.365569 0
M  V30 61 H -6.832815 -0.610288 -0.668471 0
M  V30 62 H -2.122084 0.371555 1.762271 0
M  V30 63 H -4.650082 1.694467 2.460989 0
M  V30 64 H -3.195620 3.201983 3.521951 0
M  V30 65 H -1.957684 1.982196 3.159341 0
M  V30 66 H -2.473034 4.596069 1.683435 0
M  V30 67 H -1.023567 3.896810 2.415402 0
M  V30 68 H -0.894470 2.132056 0.696587 0
M  V30 69 H 0.257955 3.883859 0.137956 0
M  V30 70 H -0.992864 4.952386 -0.049432 0
M  V30 71 H -2.641080 1.573571 -0.598207 0
M  V30 72 H -2.828664 3.288764 -1.124260 0
M  V30 73 H -4.861527 2.329275 0.066198 0
M  V30 74 H -4.168561 3.781356 0.905483 0
M  V30 END ATOM
M  V30 BEGIN BOND
M  V30 1 1 1 2
M  V30 2 2 2 3
M  V30 3 1 3 4
M  V30 4 2 4 5
M  V30 5 1 5 6
M  V30 6 1 6 7
M  V30 7 1 7 8
M  V30 8 2 8 9
M  V30 9 2 8 10
M  V30 10 1 8 11
M  V30 11 2 11 12
M  V30 12 1 12 13
M  V30 13 2 13 14
M  V30 14 1 14 15
M  V30 15 2 15 16
M  V30 16 1 16 17
M  V30 17 2 6 18
M  V30 18 1 18 19
M  V30 19 2 19 20
M  V30 20 1 20 21
M  V30 21 2 21 22
M  V30 22 1 22 23
M  V30 23 1 23 24
M  V30 24 2 24 25
M  V30 25 1 25 26
M  V30 26 2 26 27
M  V30 27 1 27 28
M  V30 28 2 28 29
M  V30 29 1 29 30
M  V30 30 2 30 31
M  V30 31 1 31 32
M  V30 32 2 32 33
M  V30 33 1 33 34
M  V30 34 1 34 35
M  V30 35 1 35 36
M  V30 36 1 36 37
M  V30 37 1 37 38
M  V30 38 1 38 39
M  V30 39 1 39 40
M  V30 40 1 39 41
M  V30 41 1 41 42
M  V30 42 2 34 43
M  V30 43 1 22 2
M  V30 44 1 29 24
M  V30 45 1 43 30
M  V30 46 1 21 5
M  V30 47 1 42 36
M  V30 48 1 16 11
M  V30 49 1 1 44
M  V30 50 1 1 45
M  V30 51 1 1 46
M  V30 52 1 3 47
M  V30 53 1 4 48
M  V30 54 1 7 49
M  V30 55 1 12 50
M  V30 56 1 13 51
M  V30 57 1 14 52
M  V30 58 1 15 53
M  V30 59 1 18 54
M  V30 60 1 19 55
M  V30 61 1 20 56
M  V30 62 1 26 57
M  V30 63 1 27 58
M  V30 64 1 28 59
M  V30 65 1 31 60
M  V30 66 1 32 61
M  V30 67 1 35 62
M  V30 68 1 36 63 CFG=1
M  V30 69 1 37 64
M  V30 70 1 37 65
M  V30 71 1 38 66
M  V30 72 1 38 67
M  V30 73 1 39 68 CFG=1
M  V30 74 1 40 69
M  V30 75 1 40 70
M  V30 76 1 41 71
M  V30 77 1 41 72
M  V30 78 1 42 73
M  V30 79 1 42 74
M  V30 END BOND
M  V30 END CTAB
M  END
>  <Dataset>  (952) 
ChEMBL_Kinases

>  <Ligand_Instance>  (952) 
nan

>  <PDB_ID>  (952) 
nan

>  <Standardized_SMILES>  (952) 
Cc1ccc2c(NS(=O)(=O)c3ccccc3Cl)cccc2c1Oc1ncccc1-c1ccnc(N[C@H]2CC[C@H](N)CC2)n1

>  <Name>  (952) 
nan

>  <Pocket>  (952) 
nan

>  <ATP_Site>  (952) 
nan

>  <Peripheral>  (952) 
nan

>  <Num_H_Atoms_ProtBoundConf>  (952) 
nan

>  <Num_Resolved_Atoms>  (952) 
nan

>  <Num_Not_Resolved_Atoms>  (952) 
nan

$$$$
CHEMBL3356009
     RDKit          3D

  0  0  0  0  0  0  0  0  0  0999 V3000
M  V30 BEGIN CTAB
M  V30 COUNTS 71 76 0 0 0
M  V30 BEGIN ATOM
M  V30 1 C -1.710800 -2.839033 2.872231 0
M  V30 2 C -0.461710 -2.295200 2.230485 0
M  V30 3 C 0.556798 -1.879878 3.059183 0
M  V30 4 C 1.719135 -1.375175 2.518291 0
M  V30 5 C 1.927641 -1.258938 1.176963 0
M  V30 6 C 3.118743 -0.743535 0.721738 0
M  V30 7 N 4.182740 -0.313113 1.543645 0
M  V30 8 S 5.556055 0.462610 0.822971 0
M  V30 9 O 6.197659 -0.430829 -0.208285 0
M  V30 10 O 6.623708 0.752587 1.838349 0
M  V30 11 C 5.116646 1.950674 0.010193 0
M  V30 12 C 5.252253 2.335027 -1.305459 0
M  V30 13 C 4.832262 3.563626 -1.709393 0
M  V30 14 C 4.265540 4.455590 -0.836523 0
M  V30 15 C 4.113101 4.110281 0.481807 0
M  V30 16 C 4.542180 2.850503 0.903058 0
M  V30 17 Cl 4.266881 2.580562 2.629023 0
M  V30 18 C 3.217816 -0.672763 -0.650081 0
M  V30 19 C 2.216674 -1.079990 -1.508838 0
M  V30 20 C 1.035092 -1.592289 -1.010933 0
M  V30 21 C 0.906621 -1.675532 0.359590 0
M  V30 22 C -0.285146 -2.191709 0.851907 0
M  V30 23 O -1.323825 -2.616438 0.064847 0
M  V30 24 C -1.460087 -3.917471 -0.399131 0
M  V30 25 N -0.494954 -4.792596 -0.034993 0
M  V30 26 C -0.552566 -6.092604 -0.448184 0
M  V30 27 C -1.606667 -6.507080 -1.242554 0
M  V30 28 C -2.560238 -5.574397 -1.582640 0
M  V30 29 C -2.540929 -4.252126 -1.187519 0
M  V30 30 C -3.535347 -3.266646 -1.538412 0
M  V30 31 C -4.622830 -3.585706 -2.323210 0
M  V30 32 C -5.558480 -2.602400 -2.637081 0
M  V30 33 N -5.353088 -1.383540 -2.156014 0
M  V30 34 C -4.303749 -1.030379 -1.385747 0
M  V30 35 N -4.134866 0.294777 -0.897905 0
M  V30 36 C -3.052280 0.739384 -0.080494 0 CFG=1
M  V30 37 C -3.178249 2.205675 0.258078 0
M  V30 38 C -2.420686 2.557899 1.519397 0
M  V30 39 C -3.048156 1.902502 2.726739 0
M  V30 40 N -3.696064 0.682526 2.292103 0
M  V30 41 C -2.918783 0.016785 1.236424 0
M  V30 42 N -3.407730 -1.989135 -1.090057 0
M  V30 43 H -2.176127 -2.065642 3.533340 0
M  V30 44 H -1.381349 -3.677959 3.515994 0
M  V30 45 H -2.459465 -3.109761 2.111173 0
M  V30 46 H 0.416012 -1.961973 4.138213 0
M  V30 47 H 2.454198 -1.077171 3.221319 0
M  V30 48 H 4.228663 -0.418244 2.572225 0
M  V30 49 H 5.718185 1.528280 -1.887437 0
M  V30 50 H 4.980167 3.771871 -2.753816 0
M  V30 51 H 3.951247 5.420546 -1.223394 0
M  V30 52 H 3.661571 4.852428 1.118732 0
M  V30 53 H 4.076274 -0.298810 -1.168923 0
M  V30 54 H 2.280755 -1.030249 -2.582712 0
M  V30 55 H 0.247440 -1.913305 -1.658402 0
M  V30 56 H 0.208859 -6.800107 -0.165932 0
M  V30 57 H -1.693407 -7.529017 -1.593878 0
M  V30 58 H -3.371304 -5.919389 -2.201396 0
M  V30 59 H -4.792584 -4.560511 -2.711435 0
M  V30 60 H -6.416570 -2.855888 -3.256816 0
M  V30 61 H -4.881185 1.002627 -1.170292 0
M  V30 62 H -2.082909 0.658260 -0.654201 0
M  V30 63 H -4.257314 2.449458 0.432855 0
M  V30 64 H -2.841139 2.884119 -0.544424 0
M  V30 65 H -2.510426 3.653597 1.645126 0
M  V30 66 H -1.378802 2.230598 1.361646 0
M  V30 67 H -3.791293 2.547625 3.222392 0
M  V30 68 H -2.226090 1.605935 3.407473 0
M  V30 69 H -4.649288 0.846874 1.917096 0
M  V30 70 H -3.246918 -1.022317 1.215050 0
M  V30 71 H -1.850242 0.156188 1.546456 0
M  V30 END ATOM
M  V30 BEGIN BOND
M  V30 1 1 1 2
M  V30 2 2 2 3
M  V30 3 1 3 4
M  V30 4 2 4 5
M  V30 5 1 5 6
M  V30 6 1 6 7
M  V30 7 1 7 8
M  V30 8 2 8 9
M  V30 9 2 8 10
M  V30 10 1 8 11
M  V30 11 2 11 12
M  V30 12 1 12 13
M  V30 13 2 13 14
M  V30 14 1 14 15
M  V30 15 2 15 16
M  V30 16 1 16 17
M  V30 17 2 6 18
M  V30 18 1 18 19
M  V30 19 2 19 20
M  V30 20 1 20 21
M  V30 21 2 21 22
M  V30 22 1 22 23
M  V30 23 1 23 24
M  V30 24 2 24 25
M  V30 25 1 25 26
M  V30 26 2 26 27
M  V30 27 1 27 28
M  V30 28 2 28 29
M  V30 29 1 29 30
M  V30 30 2 30 31
M  V30 31 1 31 32
M  V30 32 2 32 33
M  V30 33 1 33 34
M  V30 34 1 34 35
M  V30 35 1 35 36
M  V30 36 1 36 37
M  V30 37 1 37 38
M  V30 38 1 38 39
M  V30 39 1 39 40
M  V30 40 1 40 41
M  V30 41 2 34 42
M  V30 42 1 22 2
M  V30 43 1 29 24
M  V30 44 1 42 30
M  V30 45 1 21 5
M  V30 46 1 41 36
M  V30 47 1 16 11
M  V30 48 1 1 43
M  V30 49 1 1 44
M  V30 50 1 1 45
M  V30 51 1 3 46
M  V30 52 1 4 47
M  V30 53 1 7 48
M  V30 54 1 12 49
M  V30 55 1 13 50
M  V30 56 1 14 51
M  V30 57 1 15 52
M  V30 58 1 18 53
M  V30 59 1 19 54
M  V30 60 1 20 55
M  V30 61 1 26 56
M  V30 62 1 27 57
M  V30 63 1 28 58
M  V30 64 1 31 59
M  V30 65 1 32 60
M  V30 66 1 35 61
M  V30 67 1 36 62 CFG=3
M  V30 68 1 37 63
M  V30 69 1 37 64
M  V30 70 1 38 65
M  V30 71 1 38 66
M  V30 72 1 39 67
M  V30 73 1 39 68
M  V30 74 1 40 69
M  V30 75 1 41 70
M  V30 76 1 41 71
M  V30 END BOND
M  V30 END CTAB
M  END
>  <Dataset>  (953) 
ChEMBL_Kinases

>  <Ligand_Instance>  (953) 
nan

>  <PDB_ID>  (953) 
nan

>  <Standardized_SMILES>  (953) 
Cc1ccc2c(NS(=O)(=O)c3ccccc3Cl)cccc2c1Oc1ncccc1-c1ccnc(N[C@H]2CCCNC2)n1

>  <Name>  (953) 
nan

>  <Pocket>  (953) 
nan

>  <ATP_Site>  (953) 
nan

>  <Peripheral>  (953) 
nan

>  <Num_H_Atoms_ProtBoundConf>  (953) 
nan

>  <Num_Resolved_Atoms>  (953) 
nan

>  <Num_Not_Resolved_Atoms>  (953) 
nan

$$$$
CHEMBL3356010
     RDKit          3D

  0  0  0  0  0  0  0  0  0  0999 V3000
M  V30 BEGIN CTAB
M  V30 COUNTS 71 76 0 0 0
M  V30 BEGIN ATOM
M  V30 1 N -1.535350 -5.731530 0.012727 0
M  V30 2 C -0.859383 -4.510351 -0.346071 0 CFG=1
M  V30 3 C 0.619125 -4.518467 -0.019265 0
M  V30 4 C 1.475125 -4.317430 -1.219638 0
M  V30 5 C 1.131240 -3.112546 -2.057593 0 CFG=2
M  V30 6 N 1.695623 -1.901352 -1.507942 0
M  V30 7 C 1.694314 -0.625074 -2.156791 0
M  V30 8 N 1.152358 -0.375920 -3.360240 0
M  V30 9 C 1.254029 0.855564 -3.927010 0
M  V30 10 C 1.916315 1.871606 -3.275725 0
M  V30 11 C 2.468220 1.631269 -2.056959 0
M  V30 12 C 3.213498 2.534124 -1.194081 0
M  V30 13 C 4.168745 3.266762 -1.860069 0
M  V30 14 C 4.938732 4.053175 -0.995063 0
M  V30 15 C 4.749368 4.079811 0.368345 0
M  V30 16 N 3.764384 3.307199 0.896282 0
M  V30 17 C 2.955488 2.507722 0.139872 0
M  V30 18 O 2.161473 1.994482 1.031249 0
M  V30 19 C 1.048147 1.353817 1.332025 0
M  V30 20 C -0.013581 1.031468 0.515260 0
M  V30 21 C -1.064189 0.353582 1.095207 0
M  V30 22 C -1.050696 0.014007 2.429673 0
M  V30 23 N -2.252645 -0.631580 2.740353 0
M  V30 24 S -3.649095 -1.567224 2.619290 0
M  V30 25 O -4.369251 -1.808774 3.920952 0
M  V30 26 O -3.169880 -2.943770 2.083902 0
M  V30 27 C -4.823754 -1.051759 1.441081 0
M  V30 28 C -5.976017 -0.430026 1.955245 0
M  V30 29 C -7.006424 0.099608 1.213117 0
M  V30 30 C -6.935365 0.032078 -0.154166 0
M  V30 31 C -5.834267 -0.564606 -0.712825 0
M  V30 32 C -4.849461 -1.070401 0.068501 0
M  V30 33 Cl -3.498370 -1.886307 -0.663726 0
M  V30 34 C 0.008878 0.327852 3.265385 0
M  V30 35 C -0.121619 -0.079164 4.556263 0
M  V30 36 C 0.930733 0.226283 5.394376 0
M  V30 37 C 2.019499 0.897179 4.920275 0
M  V30 38 C 2.052915 1.264023 3.595670 0
M  V30 39 C 1.047118 1.005753 2.666174 0
M  V30 40 N 2.321174 0.406490 -1.578964 0
M  V30 41 C -0.362009 -3.016579 -2.300684 0
M  V30 42 C -1.055810 -4.275839 -1.824580 0
M  V30 43 H -2.410581 -5.564397 0.558011 0
M  V30 44 H -0.919506 -6.446085 0.462480 0
M  V30 45 H -1.308673 -3.673632 0.212685 0
M  V30 46 H 0.913167 -5.487603 0.433478 0
M  V30 47 H 0.901947 -3.732936 0.728519 0
M  V30 48 H 1.362332 -5.219121 -1.870937 0
M  V30 49 H 2.524109 -4.246451 -0.939910 0
M  V30 50 H 1.606195 -3.266088 -3.058850 0
M  V30 51 H 2.133578 -1.978139 -0.564900 0
M  V30 52 H 0.822214 1.068847 -4.894187 0
M  V30 53 H 2.049510 2.894866 -3.654566 0
M  V30 54 H 4.302760 3.235200 -2.916918 0
M  V30 55 H 5.713829 4.656312 -1.486123 0
M  V30 56 H 5.455764 4.755805 0.870260 0
M  V30 57 H 0.039161 1.344490 -0.517544 0
M  V30 58 H -1.821038 0.183217 0.346979 0
M  V30 59 H -2.400738 -0.265015 3.719887 0
M  V30 60 H -6.112393 -0.334865 3.028309 0
M  V30 61 H -7.864857 0.564926 1.674455 0
M  V30 62 H -7.677189 0.411270 -0.819376 0
M  V30 63 H -5.724469 -0.645967 -1.781742 0
M  V30 64 H -0.945407 -0.606241 4.961997 0
M  V30 65 H 0.965557 -0.031908 6.437134 0
M  V30 66 H 2.879444 1.162690 5.546686 0
M  V30 67 H 2.928130 1.805110 3.208856 0
M  V30 68 H -0.620763 -2.903698 -3.361609 0
M  V30 69 H -0.715614 -2.161426 -1.729386 0
M  V30 70 H -0.654885 -5.160879 -2.363210 0
M  V30 71 H -2.143644 -4.182867 -2.010710 0
M  V30 END ATOM
M  V30 BEGIN BOND
M  V30 1 1 1 2
M  V30 2 1 2 3
M  V30 3 1 3 4
M  V30 4 1 4 5
M  V30 5 1 5 6
M  V30 6 1 6 7
M  V30 7 2 7 8
M  V30 8 1 8 9
M  V30 9 2 9 10
M  V30 10 1 10 11
M  V30 11 1 11 12
M  V30 12 2 12 13
M  V30 13 1 13 14
M  V30 14 2 14 15
M  V30 15 1 15 16
M  V30 16 2 16 17
M  V30 17 1 17 18
M  V30 18 1 18 19
M  V30 19 2 19 20
M  V30 20 1 20 21
M  V30 21 2 21 22
M  V30 22 1 22 23
M  V30 23 1 23 24
M  V30 24 2 24 25
M  V30 25 2 24 26
M  V30 26 1 24 27
M  V30 27 2 27 28
M  V30 28 1 28 29
M  V30 29 2 29 30
M  V30 30 1 30 31
M  V30 31 2 31 32
M  V30 32 1 32 33
M  V30 33 1 22 34
M  V30 34 2 34 35
M  V30 35 1 35 36
M  V30 36 2 36 37
M  V30 37 1 37 38
M  V30 38 2 38 39
M  V30 39 2 11 40
M  V30 40 1 5 41
M  V30 41 1 41 42
M  V30 42 1 42 2
M  V30 43 1 40 7
M  V30 44 1 17 12
M  V30 45 1 39 19
M  V30 46 1 32 27
M  V30 47 1 39 34
M  V30 48 1 1 43
M  V30 49 1 1 44
M  V30 50 1 2 45 CFG=1
M  V30 51 1 3 46
M  V30 52 1 3 47
M  V30 53 1 4 48
M  V30 54 1 4 49
M  V30 55 1 5 50 CFG=3
M  V30 56 1 6 51
M  V30 57 1 9 52
M  V30 58 1 10 53
M  V30 59 1 13 54
M  V30 60 1 14 55
M  V30 61 1 15 56
M  V30 62 1 20 57
M  V30 63 1 21 58
M  V30 64 1 23 59
M  V30 65 1 28 60
M  V30 66 1 29 61
M  V30 67 1 30 62
M  V30 68 1 31 63
M  V30 69 1 35 64
M  V30 70 1 36 65
M  V30 71 1 37 66
M  V30 72 1 38 67
M  V30 73 1 41 68
M  V30 74 1 41 69
M  V30 75 1 42 70
M  V30 76 1 42 71
M  V30 END BOND
M  V30 END CTAB
M  END
>  <Dataset>  (954) 
ChEMBL_Kinases

>  <Ligand_Instance>  (954) 
nan

>  <PDB_ID>  (954) 
nan

>  <Standardized_SMILES>  (954) 
N[C@H]1CC[C@H](Nc2nccc(-c3cccnc3Oc3ccc(NS(=O)(=O)c4ccccc4Cl)c4ccccc34)n2)CC1

>  <Name>  (954) 
nan

>  <Pocket>  (954) 
nan

>  <ATP_Site>  (954) 
nan

>  <Peripheral>  (954) 
nan

>  <Num_H_Atoms_ProtBoundConf>  (954) 
nan

>  <Num_Resolved_Atoms>  (954) 
nan

>  <Num_Not_Resolved_Atoms>  (954) 
nan

$$$$
CHEMBL3356011
     RDKit          3D

  0  0  0  0  0  0  0  0  0  0999 V3000
M  V30 BEGIN CTAB
M  V30 COUNTS 38 39 0 0 0
M  V30 BEGIN ATOM
M  V30 1 C -0.659735 -4.802041 -2.408998 0
M  V30 2 O -0.196367 -3.530149 -1.977253 0
M  V30 3 C 1.128942 -3.282692 -1.653209 0
M  V30 4 C 2.046879 -4.306710 -1.749932 0
M  V30 5 C 3.378272 -4.125513 -1.442515 0
M  V30 6 O 4.290628 -5.170812 -1.546038 0
M  V30 7 C 3.815138 -2.873386 -1.021222 0
M  V30 8 C 2.867126 -1.872449 -0.936542 0
M  V30 9 C 1.540771 -2.012852 -1.232018 0
M  V30 10 C 0.569050 -0.932109 -1.130441 0
M  V30 11 N 0.996688 0.222931 -0.736951 0
M  V30 12 N 0.062563 1.273248 -0.636231 0
M  V30 13 C -0.237265 1.533015 0.726378 0
M  V30 14 O -0.112864 1.320689 1.958933 0
M  V30 15 C -1.205200 2.604159 1.125984 0
M  V30 16 C -1.339199 2.669451 2.604983 0
M  V30 17 C -0.466005 3.518916 3.276286 0
M  V30 18 C -0.536613 3.627799 4.657726 0
M  V30 19 C -1.467606 2.898816 5.370727 0
M  V30 20 C -2.313690 2.068095 4.658587 0
M  V30 21 O -3.238904 1.351803 5.433292 0
M  V30 22 C -2.280290 1.928029 3.289076 0
M  V30 23 H -0.350704 -4.942549 -3.444853 0
M  V30 24 H -1.785754 -4.766904 -2.366595 0
M  V30 25 H -0.328499 -5.588256 -1.700529 0
M  V30 26 H 1.741944 -5.303223 -2.076909 0
M  V30 27 H 4.673213 -5.568424 -0.697988 0
M  V30 28 H 4.853371 -2.666220 -0.763791 0
M  V30 29 H 3.176012 -0.890471 -0.612708 0
M  V30 30 H -0.448320 -1.108236 -1.375492 0
M  V30 31 H -0.448232 1.889666 -1.304578 0
M  V30 32 H -2.162838 2.457263 0.618520 0
M  V30 33 H -0.774801 3.557938 0.740002 0
M  V30 34 H 0.275461 4.099270 2.706464 0
M  V30 35 H 0.139724 4.290172 5.213509 0
M  V30 36 H -1.494605 3.008279 6.447139 0
M  V30 37 H -3.278494 0.331292 5.303562 0
M  V30 38 H -2.955078 1.271030 2.765807 0
M  V30 END ATOM
M  V30 BEGIN BOND
M  V30 1 1 1 2
M  V30 2 1 2 3
M  V30 3 2 3 4
M  V30 4 1 4 5
M  V30 5 1 5 6
M  V30 6 2 5 7
M  V30 7 1 7 8
M  V30 8 2 8 9
M  V30 9 1 9 10
M  V30 10 2 10 11
M  V30 11 1 11 12
M  V30 12 1 12 13
M  V30 13 2 13 14
M  V30 14 1 13 15
M  V30 15 1 15 16
M  V30 16 2 16 17
M  V30 17 1 17 18
M  V30 18 2 18 19
M  V30 19 1 19 20
M  V30 20 1 20 21
M  V30 21 2 20 22
M  V30 22 1 9 3
M  V30 23 1 22 16
M  V30 24 1 1 23
M  V30 25 1 1 24
M  V30 26 1 1 25
M  V30 27 1 4 26
M  V30 28 1 6 27
M  V30 29 1 7 28
M  V30 30 1 8 29
M  V30 31 1 10 30
M  V30 32 1 12 31
M  V30 33 1 15 32
M  V30 34 1 15 33
M  V30 35 1 17 34
M  V30 36 1 18 35
M  V30 37 1 19 36
M  V30 38 1 21 37
M  V30 39 1 22 38
M  V30 END BOND
M  V30 END CTAB
M  END
>  <Dataset>  (955) 
ChEMBL_Kinases

>  <Ligand_Instance>  (955) 
nan

>  <PDB_ID>  (955) 
nan

>  <Standardized_SMILES>  (955) 
COc1cc(O)ccc1/C=N/NC(=O)Cc1cccc(O)c1

>  <Name>  (955) 
nan

>  <Pocket>  (955) 
nan

>  <ATP_Site>  (955) 
nan

>  <Peripheral>  (955) 
nan

>  <Num_H_Atoms_ProtBoundConf>  (955) 
nan

>  <Num_Resolved_Atoms>  (955) 
nan

>  <Num_Not_Resolved_Atoms>  (955) 
nan

$$$$
CHEMBL3356012
     RDKit          3D

  0  0  0  0  0  0  0  0  0  0999 V3000
M  V30 BEGIN CTAB
M  V30 COUNTS 47 49 0 0 0
M  V30 BEGIN ATOM
M  V30 1 C 1.558818 -3.651853 0.890598 0
M  V30 2 C 2.523461 -3.002876 -0.048705 0
M  V30 3 C 3.878983 -2.919001 0.658705 0
M  V30 4 C 4.872712 -2.308546 -0.252762 0
M  V30 5 C 4.632106 -0.929509 -0.730327 0
M  V30 6 S 4.576705 0.330478 0.474929 0
M  V30 7 O 5.907366 0.467332 1.189157 0
M  V30 8 O 4.399560 1.676509 -0.228088 0
M  V30 9 N 3.341905 0.152788 1.645553 0
M  V30 10 C 1.934783 0.103527 1.690309 0
M  V30 11 C 1.428596 1.099268 0.847727 0
M  V30 12 C 0.053057 1.298349 0.679464 0
M  V30 13 C -0.818705 0.484413 1.368454 0
M  V30 14 C -2.264426 0.636982 1.238632 0
M  V30 15 C -3.046229 -0.492476 1.368807 0
M  V30 16 C -4.422638 -0.383632 1.250313 0
M  V30 17 C -4.970609 0.858000 1.004509 0
M  V30 18 C -6.314448 1.214727 0.847088 0
M  V30 19 N -7.409886 0.306562 0.917469 0
M  V30 20 N -6.306244 2.542417 0.627495 0
M  V30 21 N -5.072867 3.022967 0.637988 0
M  V30 22 C -4.210374 2.007726 0.869423 0
M  V30 23 C -2.831679 1.876004 0.991890 0
M  V30 24 C -0.299457 -0.486528 2.190184 0
M  V30 25 C 1.047909 -0.698976 2.369809 0
M  V30 26 H 0.561933 -3.172367 0.804174 0
M  V30 27 H 1.507913 -4.731535 0.653962 0
M  V30 28 H 1.937289 -3.585710 1.942046 0
M  V30 29 H 2.260704 -1.964499 -0.337509 0
M  V30 30 H 2.698399 -3.653007 -0.930542 0
M  V30 31 H 4.190946 -3.951899 0.866325 0
M  V30 32 H 3.757528 -2.413032 1.623118 0
M  V30 33 H 5.916432 -2.452786 0.154088 0
M  V30 34 H 4.891711 -2.962294 -1.180172 0
M  V30 35 H 3.726112 -0.944088 -1.385808 0
M  V30 36 H 5.469230 -0.688123 -1.450756 0
M  V30 37 H 3.575980 0.038661 2.666901 0
M  V30 38 H 1.981590 1.826462 0.232228 0
M  V30 39 H -0.397776 2.038316 0.053476 0
M  V30 40 H -2.658520 -1.472125 1.559693 0
M  V30 41 H -5.047215 -1.268148 1.351105 0
M  V30 42 H -8.362113 0.699034 1.159056 0
M  V30 43 H -7.232674 -0.706951 0.728737 0
M  V30 44 H -4.769769 4.021792 0.494597 0
M  V30 45 H -2.232008 2.759835 0.889283 0
M  V30 46 H -0.935444 -1.151988 2.753707 0
M  V30 47 H 1.561440 -1.414466 2.975266 0
M  V30 END ATOM
M  V30 BEGIN BOND
M  V30 1 1 1 2
M  V30 2 1 2 3
M  V30 3 1 3 4
M  V30 4 1 4 5
M  V30 5 1 5 6
M  V30 6 2 6 7
M  V30 7 2 6 8
M  V30 8 1 6 9
M  V30 9 1 9 10
M  V30 10 2 10 11
M  V30 11 1 11 12
M  V30 12 2 12 13
M  V30 13 1 13 14
M  V30 14 2 14 15
M  V30 15 1 15 16
M  V30 16 2 16 17
M  V30 17 1 17 18
M  V30 18 1 18 19
M  V30 19 2 18 20
M  V30 20 1 20 21
M  V30 21 1 21 22
M  V30 22 2 22 23
M  V30 23 1 13 24
M  V30 24 2 24 25
M  V30 25 1 25 10
M  V30 26 1 23 14
M  V30 27 1 22 17
M  V30 28 1 1 26
M  V30 29 1 1 27
M  V30 30 1 1 28
M  V30 31 1 2 29
M  V30 32 1 2 30
M  V30 33 1 3 31
M  V30 34 1 3 32
M  V30 35 1 4 33
M  V30 36 1 4 34
M  V30 37 1 5 35
M  V30 38 1 5 36
M  V30 39 1 9 37
M  V30 40 1 11 38
M  V30 41 1 12 39
M  V30 42 1 15 40
M  V30 43 1 16 41
M  V30 44 1 19 42
M  V30 45 1 19 43
M  V30 46 1 21 44
M  V30 47 1 23 45
M  V30 48 1 24 46
M  V30 49 1 25 47
M  V30 END BOND
M  V30 END CTAB
M  END
>  <Dataset>  (956) 
ChEMBL_Kinases

>  <Ligand_Instance>  (956) 
nan

>  <PDB_ID>  (956) 
nan

>  <Standardized_SMILES>  (956) 
CCCCCS(=O)(=O)Nc1ccc(-c2ccc3c(N)n[nH]c3c2)cc1

>  <Name>  (956) 
nan

>  <Pocket>  (956) 
nan

>  <ATP_Site>  (956) 
nan

>  <Peripheral>  (956) 
nan

>  <Num_H_Atoms_ProtBoundConf>  (956) 
nan

>  <Num_Resolved_Atoms>  (956) 
nan

>  <Num_Not_Resolved_Atoms>  (956) 
nan

$$$$
CHEMBL3356013
     RDKit          3D

  0  0  0  0  0  0  0  0  0  0999 V3000
M  V30 BEGIN CTAB
M  V30 COUNTS 48 51 0 0 0
M  V30 BEGIN ATOM
M  V30 1 N -1.218063 -8.264642 1.046139 0
M  V30 2 C -0.538412 -7.255773 0.335832 0
M  V30 3 N 0.540812 -7.443538 -0.455469 0
M  V30 4 N 0.922637 -6.263716 -0.969539 0
M  V30 5 C 0.074502 -5.324589 -0.496288 0
M  V30 6 C 0.023874 -3.968014 -0.712888 0
M  V30 7 C -0.932753 -3.146099 -0.135323 0
M  V30 8 C -1.019236 -1.705929 -0.339853 0
M  V30 9 C -0.646514 -1.084856 -1.521482 0
M  V30 10 C -0.732999 0.280999 -1.707517 0
M  V30 11 C -1.205170 1.098329 -0.698982 0
M  V30 12 N -1.354086 2.510473 -0.737797 0
M  V30 13 S -0.882593 3.602861 0.507132 0
M  V30 14 O -1.269679 4.997513 0.114178 0
M  V30 15 O -1.625963 3.271034 1.770526 0
M  V30 16 C 0.855992 3.536446 0.807788 0
M  V30 17 C 1.300087 4.471044 1.877435 0
M  V30 18 C 1.557181 3.862168 3.212554 0
M  V30 19 C 2.407733 2.643048 3.226314 0
M  V30 20 C 2.657842 2.173629 1.810231 0
M  V30 21 C 1.282047 2.108441 1.134746 0
M  V30 22 C -1.576426 0.460361 0.484098 0
M  V30 23 C -1.493471 -0.903602 0.678399 0
M  V30 24 C -1.876772 -3.749989 0.700741 0
M  V30 25 C -1.817095 -5.131194 0.915115 0
M  V30 26 C -0.860987 -5.913057 0.330650 0
M  V30 27 H -1.585444 -8.982531 0.383284 0
M  V30 28 H -1.384841 -8.369836 2.086182 0
M  V30 29 H 1.725393 -6.051951 -1.624494 0
M  V30 30 H 0.735372 -3.459315 -1.353410 0
M  V30 31 H -0.271867 -1.704475 -2.329414 0
M  V30 32 H -0.450630 0.777553 -2.611085 0
M  V30 33 H -1.799886 2.705960 -1.667650 0
M  V30 34 H 1.349502 3.819636 -0.160718 0
M  V30 35 H 2.186138 5.042968 1.548134 0
M  V30 36 H 0.488174 5.232187 2.014459 0
M  V30 37 H 2.112321 4.642746 3.811356 0
M  V30 38 H 0.596461 3.738324 3.781994 0
M  V30 39 H 1.802786 1.827058 3.719618 0
M  V30 40 H 3.343349 2.725320 3.812257 0
M  V30 41 H 3.038464 1.124101 1.781946 0
M  V30 42 H 3.323657 2.877955 1.265473 0
M  V30 43 H 0.584087 1.752182 1.920765 0
M  V30 44 H 1.313883 1.452581 0.255542 0
M  V30 45 H -1.959944 0.998681 1.342124 0
M  V30 46 H -1.783553 -1.381734 1.595454 0
M  V30 47 H -2.656116 -3.189372 1.191924 0
M  V30 48 H -2.535769 -5.606597 1.554248 0
M  V30 END ATOM
M  V30 BEGIN BOND
M  V30 1 1 1 2
M  V30 2 2 2 3
M  V30 3 1 3 4
M  V30 4 1 4 5
M  V30 5 2 5 6
M  V30 6 1 6 7
M  V30 7 1 7 8
M  V30 8 2 8 9
M  V30 9 1 9 10
M  V30 10 2 10 11
M  V30 11 1 11 12
M  V30 12 1 12 13
M  V30 13 2 13 14
M  V30 14 2 13 15
M  V30 15 1 13 16
M  V30 16 1 16 17
M  V30 17 1 17 18
M  V30 18 1 18 19
M  V30 19 1 19 20
M  V30 20 1 20 21
M  V30 21 1 11 22
M  V30 22 2 22 23
M  V30 23 2 7 24
M  V30 24 1 24 25
M  V30 25 2 25 26
M  V30 26 1 26 2
M  V30 27 1 26 5
M  V30 28 1 23 8
M  V30 29 1 21 16
M  V30 30 1 1 27
M  V30 31 1 1 28
M  V30 32 1 4 29
M  V30 33 1 6 30
M  V30 34 1 9 31
M  V30 35 1 10 32
M  V30 36 1 12 33
M  V30 37 1 16 34
M  V30 38 1 17 35
M  V30 39 1 17 36
M  V30 40 1 18 37
M  V30 41 1 18 38
M  V30 42 1 19 39
M  V30 43 1 19 40
M  V30 44 1 20 41
M  V30 45 1 20 42
M  V30 46 1 21 43
M  V30 47 1 21 44
M  V30 48 1 22 45
M  V30 49 1 23 46
M  V30 50 1 24 47
M  V30 51 1 25 48
M  V30 END BOND
M  V30 END CTAB
M  END
>  <Dataset>  (957) 
ChEMBL_Kinases

>  <Ligand_Instance>  (957) 
nan

>  <PDB_ID>  (957) 
nan

>  <Standardized_SMILES>  (957) 
Nc1n[nH]c2cc(-c3ccc(NS(=O)(=O)C4CCCCC4)cc3)ccc12

>  <Name>  (957) 
nan

>  <Pocket>  (957) 
nan

>  <ATP_Site>  (957) 
nan

>  <Peripheral>  (957) 
nan

>  <Num_H_Atoms_ProtBoundConf>  (957) 
nan

>  <Num_Resolved_Atoms>  (957) 
nan

>  <Num_Not_Resolved_Atoms>  (957) 
nan

$$$$
CHEMBL3356024
     RDKit          3D

  0  0  0  0  0  0  0  0  0  0999 V3000
M  V30 BEGIN CTAB
M  V30 COUNTS 42 45 0 0 0
M  V30 BEGIN ATOM
M  V30 1 N 2.426832 -7.815632 0.614231 0
M  V30 2 C 2.306101 -6.570439 1.296395 0
M  V30 3 N 2.516127 -6.333913 2.610125 0
M  V30 4 N 2.314956 -5.066730 2.907804 0
M  V30 5 C 1.964078 -4.455936 1.760792 0
M  V30 6 C 1.639296 -3.136628 1.484521 0
M  V30 7 C 1.308686 -2.764871 0.191450 0
M  V30 8 C 0.949620 -1.411364 -0.222533 0
M  V30 9 C 1.217311 -0.907439 -1.473525 0
M  V30 10 C 0.822101 0.391077 -1.732440 0
M  V30 11 C 0.184522 1.230506 -0.855737 0
M  V30 12 N -0.140593 2.523199 -1.301006 0
M  V30 13 S 0.140834 3.911204 -0.348320 0
M  V30 14 O -0.162107 5.167583 -1.092477 0
M  V30 15 O 1.619424 3.944934 -0.015455 0
M  V30 16 C -0.752541 3.879249 1.150177 0
M  V30 17 C -0.194697 3.916029 2.415533 0
M  V30 18 C -0.992428 3.886444 3.541616 0
M  V30 19 C -2.373857 3.819412 3.468006 0
M  V30 20 C -2.966838 3.781171 2.225302 0
M  V30 21 Cl -4.710607 3.695756 2.049655 0
M  V30 22 C -2.147261 3.811792 1.100925 0
M  V30 23 Cl -2.940896 3.760862 -0.476544 0
M  V30 24 C -0.077880 0.701160 0.407105 0
M  V30 25 C 0.303462 -0.588166 0.694299 0
M  V30 26 C 1.293937 -3.687694 -0.844743 0
M  V30 27 C 1.615982 -5.006914 -0.582276 0
M  V30 28 C 1.943741 -5.364621 0.710802 0
M  V30 29 H 1.647433 -8.494209 0.400640 0
M  V30 30 H 3.261713 -8.307440 0.197387 0
M  V30 31 H 2.392733 -4.569444 3.821093 0
M  V30 32 H 1.627018 -2.352376 2.238948 0
M  V30 33 H 1.717837 -1.524225 -2.205348 0
M  V30 34 H 1.060015 0.744300 -2.746421 0
M  V30 35 H -0.571810 2.580435 -2.266815 0
M  V30 36 H 0.899665 3.969282 2.456636 0
M  V30 37 H -0.485300 3.918387 4.498402 0
M  V30 38 H -2.972632 3.797518 4.367043 0
M  V30 39 H -0.580562 1.357483 1.103605 0
M  V30 40 H 0.093926 -0.999539 1.690672 0
M  V30 41 H 1.040729 -3.437332 -1.870042 0
M  V30 42 H 1.626823 -5.785418 -1.337769 0
M  V30 END ATOM
M  V30 BEGIN BOND
M  V30 1 1 1 2
M  V30 2 2 2 3
M  V30 3 1 3 4
M  V30 4 1 4 5
M  V30 5 2 5 6
M  V30 6 1 6 7
M  V30 7 1 7 8
M  V30 8 2 8 9
M  V30 9 1 9 10
M  V30 10 2 10 11
M  V30 11 1 11 12
M  V30 12 1 12 13
M  V30 13 2 13 14
M  V30 14 2 13 15
M  V30 15 1 13 16
M  V30 16 2 16 17
M  V30 17 1 17 18
M  V30 18 2 18 19
M  V30 19 1 19 20
M  V30 20 1 20 21
M  V30 21 2 20 22
M  V30 22 1 22 23
M  V30 23 1 11 24
M  V30 24 2 24 25
M  V30 25 2 7 26
M  V30 26 1 26 27
M  V30 27 2 27 28
M  V30 28 1 28 2
M  V30 29 1 28 5
M  V30 30 1 25 8
M  V30 31 1 22 16
M  V30 32 1 1 29
M  V30 33 1 1 30
M  V30 34 1 4 31
M  V30 35 1 6 32
M  V30 36 1 9 33
M  V30 37 1 10 34
M  V30 38 1 12 35
M  V30 39 1 17 36
M  V30 40 1 18 37
M  V30 41 1 19 38
M  V30 42 1 24 39
M  V30 43 1 25 40
M  V30 44 1 26 41
M  V30 45 1 27 42
M  V30 END BOND
M  V30 END CTAB
M  END
>  <Dataset>  (958) 
ChEMBL_Kinases

>  <Ligand_Instance>  (958) 
nan

>  <PDB_ID>  (958) 
nan

>  <Standardized_SMILES>  (958) 
Nc1n[nH]c2cc(-c3ccc(NS(=O)(=O)c4cccc(Cl)c4Cl)cc3)ccc12

>  <Name>  (958) 
nan

>  <Pocket>  (958) 
nan

>  <ATP_Site>  (958) 
nan

>  <Peripheral>  (958) 
nan

>  <Num_H_Atoms_ProtBoundConf>  (958) 
nan

>  <Num_Resolved_Atoms>  (958) 
nan

>  <Num_Not_Resolved_Atoms>  (958) 
nan

$$$$
CHEMBL3356015
     RDKit          3D

  0  0  0  0  0  0  0  0  0  0999 V3000
M  V30 BEGIN CTAB
M  V30 COUNTS 45 48 0 0 0
M  V30 BEGIN ATOM
M  V30 1 N -1.292433 -8.066707 -0.603410 0
M  V30 2 C -0.322735 -7.071637 -0.400115 0
M  V30 3 N 0.939591 -7.426937 -0.073802 0
M  V30 4 N 1.670389 -6.335058 0.065811 0
M  V30 5 C 0.825888 -5.293476 -0.183008 0
M  V30 6 C 1.049194 -3.907856 -0.180212 0
M  V30 7 C 0.030377 -3.003010 -0.466943 0
M  V30 8 C 0.271444 -1.561399 -0.461575 0
M  V30 9 C -0.788101 -0.753737 -0.097966 0
M  V30 10 C -0.645582 0.619489 -0.066490 0
M  V30 11 C 0.566842 1.218527 -0.399969 0
M  V30 12 N 0.693574 2.612199 -0.362718 0
M  V30 13 S 2.013322 3.441875 0.321856 0
M  V30 14 O 3.268389 3.050498 -0.365695 0
M  V30 15 O 1.816101 4.918588 0.107568 0
M  V30 16 C 2.206655 3.130525 2.052516 0
M  V30 17 C 0.954310 3.578561 2.737289 0
M  V30 18 C -0.099282 2.711790 2.916902 0
M  V30 19 C -1.291184 3.047319 3.539816 0
M  V30 20 C -1.381373 4.359938 3.997484 0
M  V30 21 C -0.356195 5.286230 3.849121 0
M  V30 22 C 0.801513 4.865460 3.213803 0
M  V30 23 C 1.621475 0.377768 -0.763893 0
M  V30 24 C 1.487413 -1.001853 -0.798236 0
M  V30 25 C -1.240470 -3.512577 -0.762598 0
M  V30 26 C -1.501689 -4.867169 -0.775957 0
M  V30 27 C -0.454510 -5.706224 -0.484620 0
M  V30 28 H -1.844148 -8.223163 0.281819 0
M  V30 29 H -1.976320 -8.782526 -0.781066 0
M  V30 30 H 2.679945 -6.245117 0.312328 0
M  V30 31 H 2.021113 -3.535557 0.046822 0
M  V30 32 H -1.747187 -1.164224 0.169103 0
M  V30 33 H -1.500701 1.224244 0.224447 0
M  V30 34 H -0.124736 3.123731 -0.809308 0
M  V30 35 H 3.023680 3.728579 2.476820 0
M  V30 36 H 2.369082 2.079174 2.289002 0
M  V30 37 H -0.010783 1.709580 2.558784 0
M  V30 38 H -2.102467 2.342924 3.666173 0
M  V30 39 H -2.282399 4.680787 4.489766 0
M  V30 40 H -0.490183 6.296291 4.229376 0
M  V30 41 H 1.600689 5.593039 3.099647 0
M  V30 42 H 2.558890 0.858996 -1.020799 0
M  V30 43 H 2.314072 -1.648765 -1.082980 0
M  V30 44 H -2.040365 -2.819073 -0.987131 0
M  V30 45 H -2.462271 -5.303053 -0.997614 0
M  V30 END ATOM
M  V30 BEGIN BOND
M  V30 1 1 1 2
M  V30 2 2 2 3
M  V30 3 1 3 4
M  V30 4 1 4 5
M  V30 5 2 5 6
M  V30 6 1 6 7
M  V30 7 1 7 8
M  V30 8 2 8 9
M  V30 9 1 9 10
M  V30 10 2 10 11
M  V30 11 1 11 12
M  V30 12 1 12 13
M  V30 13 2 13 14
M  V30 14 2 13 15
M  V30 15 1 13 16
M  V30 16 1 16 17
M  V30 17 2 17 18
M  V30 18 1 18 19
M  V30 19 2 19 20
M  V30 20 1 20 21
M  V30 21 2 21 22
M  V30 22 1 11 23
M  V30 23 2 23 24
M  V30 24 2 7 25
M  V30 25 1 25 26
M  V30 26 2 26 27
M  V30 27 1 27 2
M  V30 28 1 27 5
M  V30 29 1 24 8
M  V30 30 1 22 17
M  V30 31 1 1 28
M  V30 32 1 1 29
M  V30 33 1 4 30
M  V30 34 1 6 31
M  V30 35 1 9 32
M  V30 36 1 10 33
M  V30 37 1 12 34
M  V30 38 1 16 35
M  V30 39 1 16 36
M  V30 40 1 18 37
M  V30 41 1 19 38
M  V30 42 1 20 39
M  V30 43 1 21 40
M  V30 44 1 22 41
M  V30 45 1 23 42
M  V30 46 1 24 43
M  V30 47 1 25 44
M  V30 48 1 26 45
M  V30 END BOND
M  V30 END CTAB
M  END
>  <Dataset>  (959) 
ChEMBL_Kinases

>  <Ligand_Instance>  (959) 
nan

>  <PDB_ID>  (959) 
nan

>  <Standardized_SMILES>  (959) 
Nc1n[nH]c2cc(-c3ccc(NS(=O)(=O)Cc4ccccc4)cc3)ccc12

>  <Name>  (959) 
nan

>  <Pocket>  (959) 
nan

>  <ATP_Site>  (959) 
nan

>  <Peripheral>  (959) 
nan

>  <Num_H_Atoms_ProtBoundConf>  (959) 
nan

>  <Num_Resolved_Atoms>  (959) 
nan

>  <Num_Not_Resolved_Atoms>  (959) 
nan

$$$$
CHEMBL3356016
     RDKit          3D

  0  0  0  0  0  0  0  0  0  0999 V3000
M  V30 BEGIN CTAB
M  V30 COUNTS 45 48 0 0 0
M  V30 BEGIN ATOM
M  V30 1 N -0.459194 -7.880066 -1.448881 0
M  V30 2 C 0.405960 -6.915182 -0.866487 0
M  V30 3 N 1.527993 -7.209934 -0.190568 0
M  V30 4 N 2.111928 -6.082722 0.227987 0
M  V30 5 C 1.337168 -5.066263 -0.196378 0
M  V30 6 C 1.452710 -3.698466 -0.053876 0
M  V30 7 C 0.512073 -2.845262 -0.589307 0
M  V30 8 C 0.574084 -1.389864 -0.472384 0
M  V30 9 C 1.824026 -0.801863 -0.426347 0
M  V30 10 C 1.944305 0.568787 -0.317871 0
M  V30 11 C 0.848831 1.404747 -0.251534 0
M  V30 12 N 0.769229 2.796861 -0.138642 0
M  V30 13 S 1.766183 3.638321 0.963734 0
M  V30 14 O 3.200164 3.431594 0.578887 0
M  V30 15 O 1.507930 5.133630 0.875258 0
M  V30 16 C 1.495064 3.174108 2.637275 0
M  V30 17 C 0.118334 3.412974 3.104256 0
M  V30 18 C -0.677249 2.274411 3.190506 0
M  V30 19 C -1.996140 2.262535 3.603189 0
M  V30 20 F -2.727220 1.139410 3.671377 0
M  V30 21 C -2.512756 3.517641 3.945953 0
M  V30 22 C -1.760083 4.671273 3.875285 0
M  V30 23 C -0.432430 4.619483 3.450692 0
M  V30 24 F 0.349576 5.696537 3.359977 0
M  V30 25 C -0.404984 0.780643 -0.300417 0
M  V30 26 C -0.549638 -0.590549 -0.408747 0
M  V30 27 C -0.580254 -3.341710 -1.288384 0
M  V30 28 C -0.715166 -4.709410 -1.442592 0
M  V30 29 C 0.242202 -5.541321 -0.895813 0
M  V30 30 H -0.172847 -8.871488 -1.550714 0
M  V30 31 H -1.414614 -7.660965 -1.803299 0
M  V30 32 H 2.994850 -5.991004 0.776231 0
M  V30 33 H 2.299733 -3.272463 0.490393 0
M  V30 34 H 2.740285 -1.374642 -0.471887 0
M  V30 35 H 2.886310 1.111802 -0.274917 0
M  V30 36 H 0.088281 3.346748 -0.737392 0
M  V30 37 H 2.143980 3.858832 3.259755 0
M  V30 38 H 1.860599 2.158153 2.888606 0
M  V30 39 H -0.295899 1.280988 2.927344 0
M  V30 40 H -3.535809 3.554606 4.272960 0
M  V30 41 H -2.189653 5.620358 4.146917 0
M  V30 42 H -1.348067 1.317218 -0.257766 0
M  V30 43 H -1.522060 -1.067643 -0.446466 0
M  V30 44 H -1.324944 -2.684230 -1.713163 0
M  V30 45 H -1.553956 -5.149616 -1.982605 0
M  V30 END ATOM
M  V30 BEGIN BOND
M  V30 1 1 1 2
M  V30 2 2 2 3
M  V30 3 1 3 4
M  V30 4 1 4 5
M  V30 5 2 5 6
M  V30 6 1 6 7
M  V30 7 1 7 8
M  V30 8 2 8 9
M  V30 9 1 9 10
M  V30 10 2 10 11
M  V30 11 1 11 12
M  V30 12 1 12 13
M  V30 13 2 13 14
M  V30 14 2 13 15
M  V30 15 1 13 16
M  V30 16 1 16 17
M  V30 17 2 17 18
M  V30 18 1 18 19
M  V30 19 1 19 20
M  V30 20 2 19 21
M  V30 21 1 21 22
M  V30 22 2 22 23
M  V30 23 1 23 24
M  V30 24 1 11 25
M  V30 25 2 25 26
M  V30 26 2 7 27
M  V30 27 1 27 28
M  V30 28 2 28 29
M  V30 29 1 29 2
M  V30 30 1 29 5
M  V30 31 1 26 8
M  V30 32 1 23 17
M  V30 33 1 1 30
M  V30 34 1 1 31
M  V30 35 1 4 32
M  V30 36 1 6 33
M  V30 37 1 9 34
M  V30 38 1 10 35
M  V30 39 1 12 36
M  V30 40 1 16 37
M  V30 41 1 16 38
M  V30 42 1 18 39
M  V30 43 1 21 40
M  V30 44 1 22 41
M  V30 45 1 25 42
M  V30 46 1 26 43
M  V30 47 1 27 44
M  V30 48 1 28 45
M  V30 END BOND
M  V30 END CTAB
M  END
>  <Dataset>  (960) 
ChEMBL_Kinases

>  <Ligand_Instance>  (960) 
nan

>  <PDB_ID>  (960) 
nan

>  <Standardized_SMILES>  (960) 
Nc1n[nH]c2cc(-c3ccc(NS(=O)(=O)Cc4cc(F)ccc4F)cc3)ccc12

>  <Name>  (960) 
nan

>  <Pocket>  (960) 
nan

>  <ATP_Site>  (960) 
nan

>  <Peripheral>  (960) 
nan

>  <Num_H_Atoms_ProtBoundConf>  (960) 
nan

>  <Num_Resolved_Atoms>  (960) 
nan

>  <Num_Not_Resolved_Atoms>  (960) 
nan

$$$$
CHEMBL3356018
     RDKit          3D

  0  0  0  0  0  0  0  0  0  0999 V3000
M  V30 BEGIN CTAB
M  V30 COUNTS 39 42 0 0 0
M  V30 BEGIN ATOM
M  V30 1 N 2.220021 -6.404180 3.643166 0
M  V30 2 C 1.673666 -5.834482 2.459141 0
M  V30 3 N 1.174846 -6.626893 1.504117 0
M  V30 4 N 0.719708 -5.887640 0.490729 0
M  V30 5 C 0.933940 -4.592316 0.808276 0
M  V30 6 C 0.697824 -3.360478 0.201022 0
M  V30 7 C 1.031965 -2.174982 0.777596 0
M  V30 8 C 0.773862 -0.898331 0.117754 0
M  V30 9 C -0.324998 -0.778265 -0.707439 0
M  V30 10 C -0.605331 0.413233 -1.352053 0
M  V30 11 C 0.210456 1.537947 -1.193504 0
M  V30 12 N -0.191190 2.688953 -1.909577 0
M  V30 13 S -0.168763 4.217532 -1.062151 0
M  V30 14 O 1.202767 4.516364 -0.576970 0
M  V30 15 O -0.679105 5.292685 -1.976410 0
M  V30 16 C -1.282984 4.067576 0.255870 0
M  V30 17 C -1.262234 4.142109 1.593931 0
M  V30 18 C -2.357784 3.967108 2.356587 0
M  V30 19 C -3.524563 3.697491 1.589300 0
M  V30 20 Br -5.273363 3.412169 2.692026 0
M  V30 21 S -2.973190 3.715215 -0.127530 0
M  V30 22 C 1.306091 1.403891 -0.365204 0
M  V30 23 C 1.583901 0.213544 0.277131 0
M  V30 24 C 1.634098 -2.192030 2.024552 0
M  V30 25 C 1.908482 -3.361860 2.705277 0
M  V30 26 C 1.538026 -4.514580 2.050752 0
M  V30 27 H 3.180671 -6.794344 3.521526 0
M  V30 28 H 1.753189 -6.463049 4.596946 0
M  V30 29 H 0.272260 -6.197318 -0.405934 0
M  V30 30 H 0.235332 -3.336123 -0.756847 0
M  V30 31 H -0.954772 -1.644718 -0.829948 0
M  V30 32 H -1.483514 0.401455 -1.971870 0
M  V30 33 H -0.481117 2.553020 -2.914887 0
M  V30 34 H -0.247863 4.360458 1.951662 0
M  V30 35 H -2.309979 4.033577 3.436003 0
M  V30 36 H 1.916523 2.292642 -0.263532 0
M  V30 37 H 2.448730 0.146250 0.916066 0
M  V30 38 H 1.914373 -1.245649 2.512013 0
M  V30 39 H 2.376983 -3.406786 3.678526 0
M  V30 END ATOM
M  V30 BEGIN BOND
M  V30 1 1 1 2
M  V30 2 2 2 3
M  V30 3 1 3 4
M  V30 4 1 4 5
M  V30 5 2 5 6
M  V30 6 1 6 7
M  V30 7 1 7 8
M  V30 8 2 8 9
M  V30 9 1 9 10
M  V30 10 2 10 11
M  V30 11 1 11 12
M  V30 12 1 12 13
M  V30 13 2 13 14
M  V30 14 2 13 15
M  V30 15 1 13 16
M  V30 16 2 16 17
M  V30 17 1 17 18
M  V30 18 2 18 19
M  V30 19 1 19 20
M  V30 20 1 19 21
M  V30 21 1 11 22
M  V30 22 2 22 23
M  V30 23 2 7 24
M  V30 24 1 24 25
M  V30 25 2 25 26
M  V30 26 1 26 2
M  V30 27 1 26 5
M  V30 28 1 23 8
M  V30 29 1 21 16
M  V30 30 1 1 27
M  V30 31 1 1 28
M  V30 32 1 4 29
M  V30 33 1 6 30
M  V30 34 1 9 31
M  V30 35 1 10 32
M  V30 36 1 12 33
M  V30 37 1 17 34
M  V30 38 1 18 35
M  V30 39 1 22 36
M  V30 40 1 23 37
M  V30 41 1 24 38
M  V30 42 1 25 39
M  V30 END BOND
M  V30 END CTAB
M  END
>  <Dataset>  (961) 
ChEMBL_Kinases

>  <Ligand_Instance>  (961) 
nan

>  <PDB_ID>  (961) 
nan

>  <Standardized_SMILES>  (961) 
Nc1n[nH]c2cc(-c3ccc(NS(=O)(=O)c4ccc(Br)s4)cc3)ccc12

>  <Name>  (961) 
nan

>  <Pocket>  (961) 
nan

>  <ATP_Site>  (961) 
nan

>  <Peripheral>  (961) 
nan

>  <Num_H_Atoms_ProtBoundConf>  (961) 
nan

>  <Num_Resolved_Atoms>  (961) 
nan

>  <Num_Not_Resolved_Atoms>  (961) 
nan

$$$$
CHEMBL3356019
     RDKit          3D

  0  0  0  0  0  0  0  0  0  0999 V3000
M  V30 BEGIN CTAB
M  V30 COUNTS 45 48 0 0 0
M  V30 BEGIN ATOM
M  V30 1 C 0.844205 -6.200547 -0.735225 0
M  V30 2 N 0.800576 -5.301289 -1.866363 0
M  V30 3 C -0.332204 -4.835867 -2.430645 0
M  V30 4 C -0.031721 -3.989383 -3.501974 0
M  V30 5 S -1.143170 -3.157016 -4.530879 0
M  V30 6 O -1.096891 -3.673409 -5.946463 0
M  V30 7 O -2.552225 -3.445833 -4.039772 0
M  V30 8 N -0.954934 -1.441401 -4.489742 0
M  V30 9 C -1.150908 -0.738752 -3.270372 0
M  V30 10 C -2.164664 -0.883365 -2.346535 0
M  V30 11 C -2.195756 -0.106682 -1.206875 0
M  V30 12 C -1.212188 0.846448 -0.947006 0
M  V30 13 C -1.362541 1.607744 0.302198 0
M  V30 14 C -1.947970 0.985806 1.397871 0
M  V30 15 C -2.091073 1.708990 2.582387 0
M  V30 16 C -1.636336 3.007461 2.585137 0
M  V30 17 C -1.625548 3.977263 3.567101 0
M  V30 18 N -2.097724 3.910281 4.907091 0
M  V30 19 N -1.068206 5.105845 3.085561 0
M  V30 20 N -0.708605 4.912965 1.811541 0
M  V30 21 C -1.050370 3.648308 1.507896 0
M  V30 22 C -0.909547 2.923969 0.329063 0
M  V30 23 C -0.188346 1.008803 -1.856902 0
M  V30 24 C -0.178479 0.213597 -2.999211 0
M  V30 25 C 1.351237 -3.991553 -3.525600 0
M  V30 26 C 2.133326 -3.215392 -4.516425 0
M  V30 27 F 1.893802 -1.871011 -4.449663 0
M  V30 28 F 3.488226 -3.431392 -4.304084 0
M  V30 29 F 1.845352 -3.720466 -5.777019 0
M  V30 30 N 1.797743 -4.787987 -2.531610 0
M  V30 31 H 1.189678 -7.208286 -1.111372 0
M  V30 32 H -0.158443 -6.290610 -0.265093 0
M  V30 33 H 1.610472 -5.849691 -0.023655 0
M  V30 34 H -1.358591 -5.042907 -2.150268 0
M  V30 35 H -0.698820 -0.899715 -5.345590 0
M  V30 36 H -2.894412 -1.637258 -2.606230 0
M  V30 37 H -3.062623 -0.340353 -0.572808 0
M  V30 38 H -2.296478 -0.022212 1.383119 0
M  V30 39 H -2.525711 1.337564 3.489880 0
M  V30 40 H -1.790008 3.762022 5.892418 0
M  V30 41 H -3.002484 3.993814 5.421977 0
M  V30 42 H -0.248595 5.598408 1.156180 0
M  V30 43 H -0.463321 3.335029 -0.571923 0
M  V30 44 H 0.543644 1.743162 -1.628189 0
M  V30 45 H 0.678051 0.432818 -3.642558 0
M  V30 END ATOM
M  V30 BEGIN BOND
M  V30 1 1 1 2
M  V30 2 1 2 3
M  V30 3 2 3 4
M  V30 4 1 4 5
M  V30 5 2 5 6
M  V30 6 2 5 7
M  V30 7 1 5 8
M  V30 8 1 8 9
M  V30 9 2 9 10
M  V30 10 1 10 11
M  V30 11 2 11 12
M  V30 12 1 12 13
M  V30 13 2 13 14
M  V30 14 1 14 15
M  V30 15 2 15 16
M  V30 16 1 16 17
M  V30 17 1 17 18
M  V30 18 2 17 19
M  V30 19 1 19 20
M  V30 20 1 20 21
M  V30 21 2 21 22
M  V30 22 1 12 23
M  V30 23 2 23 24
M  V30 24 1 4 25
M  V30 25 1 25 26
M  V30 26 1 26 27
M  V30 27 1 26 28
M  V30 28 1 26 29
M  V30 29 2 25 30
M  V30 30 1 30 2
M  V30 31 1 24 9
M  V30 32 1 22 13
M  V30 33 1 21 16
M  V30 34 1 1 31
M  V30 35 1 1 32
M  V30 36 1 1 33
M  V30 37 1 3 34
M  V30 38 1 8 35
M  V30 39 1 10 36
M  V30 40 1 11 37
M  V30 41 1 14 38
M  V30 42 1 15 39
M  V30 43 1 18 40
M  V30 44 1 18 41
M  V30 45 1 20 42
M  V30 46 1 22 43
M  V30 47 1 23 44
M  V30 48 1 24 45
M  V30 END BOND
M  V30 END CTAB
M  END
>  <Dataset>  (962) 
ChEMBL_Kinases

>  <Ligand_Instance>  (962) 
nan

>  <PDB_ID>  (962) 
nan

>  <Standardized_SMILES>  (962) 
Cn1cc(S(=O)(=O)Nc2ccc(-c3ccc4c(N)n[nH]c4c3)cc2)c(C(F)(F)F)n1

>  <Name>  (962) 
nan

>  <Pocket>  (962) 
nan

>  <ATP_Site>  (962) 
nan

>  <Peripheral>  (962) 
nan

>  <Num_H_Atoms_ProtBoundConf>  (962) 
nan

>  <Num_Resolved_Atoms>  (962) 
nan

>  <Num_Not_Resolved_Atoms>  (962) 
nan

$$$$
CHEMBL3356020
     RDKit          3D

  0  0  0  0  0  0  0  0  0  0999 V3000
M  V30 BEGIN CTAB
M  V30 COUNTS 39 42 0 0 0
M  V30 BEGIN ATOM
M  V30 1 N 0.674079 -6.886251 2.916530 0
M  V30 2 C 1.133241 -5.590503 3.282958 0
M  V30 3 N 1.700837 -5.156097 4.409818 0
M  V30 4 N 1.986095 -3.861019 4.354787 0
M  V30 5 C 1.571829 -3.459347 3.117374 0
M  V30 6 C 1.641099 -2.191164 2.553376 0
M  V30 7 C 1.166205 -1.986184 1.282529 0
M  V30 8 C 1.180030 -0.705045 0.575558 0
M  V30 9 C 1.296214 -0.512971 -0.786664 0
M  V30 10 C 1.293605 0.764361 -1.310901 0
M  V30 11 C 1.173638 1.864569 -0.466694 0
M  V30 12 N 1.184752 3.106455 -1.137633 0
M  V30 13 S -0.036229 4.178611 -0.570907 0
M  V30 14 O 0.053086 5.432692 -1.429768 0
M  V30 15 O 0.185393 4.632110 0.832265 0
M  V30 16 C -1.628057 3.523139 -0.827080 0
M  V30 17 C -2.561768 3.252838 0.161226 0
M  V30 18 C -3.670429 2.748935 -0.488833 0
M  V30 19 C -3.320031 2.751838 -1.842824 0
M  V30 20 O -2.104860 3.216395 -2.004746 0
M  V30 21 C 1.058444 1.654838 0.893038 0
M  V30 22 C 1.058350 0.388004 1.442629 0
M  V30 23 C 0.619225 -3.037505 0.562050 0
M  V30 24 C 0.550322 -4.307553 1.127786 0
M  V30 25 C 1.025462 -4.520873 2.403965 0
M  V30 26 H -0.300735 -7.266715 2.958626 0
M  V30 27 H 1.164730 -7.734590 2.535647 0
M  V30 28 H 2.427611 -3.250774 5.074182 0
M  V30 29 H 2.039036 -1.329667 3.022573 0
M  V30 30 H 1.384732 -1.420940 -1.368422 0
M  V30 31 H 1.391788 0.784569 -2.401447 0
M  V30 32 H 1.893573 3.299348 -1.900185 0
M  V30 33 H -2.388288 3.427437 1.218986 0
M  V30 34 H -4.579418 2.436032 -0.022393 0
M  V30 35 H -3.968726 2.415498 -2.636523 0
M  V30 36 H 0.968355 2.535878 1.502429 0
M  V30 37 H 0.963435 0.329561 2.513385 0
M  V30 38 H 0.216339 -2.986505 -0.445935 0
M  V30 39 H 0.144001 -5.180208 0.645355 0
M  V30 END ATOM
M  V30 BEGIN BOND
M  V30 1 1 1 2
M  V30 2 2 2 3
M  V30 3 1 3 4
M  V30 4 1 4 5
M  V30 5 2 5 6
M  V30 6 1 6 7
M  V30 7 1 7 8
M  V30 8 2 8 9
M  V30 9 1 9 10
M  V30 10 2 10 11
M  V30 11 1 11 12
M  V30 12 1 12 13
M  V30 13 2 13 14
M  V30 14 2 13 15
M  V30 15 1 13 16
M  V30 16 2 16 17
M  V30 17 1 17 18
M  V30 18 2 18 19
M  V30 19 1 19 20
M  V30 20 1 11 21
M  V30 21 2 21 22
M  V30 22 2 7 23
M  V30 23 1 23 24
M  V30 24 2 24 25
M  V30 25 1 25 2
M  V30 26 1 25 5
M  V30 27 1 22 8
M  V30 28 1 20 16
M  V30 29 1 1 26
M  V30 30 1 1 27
M  V30 31 1 4 28
M  V30 32 1 6 29
M  V30 33 1 9 30
M  V30 34 1 10 31
M  V30 35 1 12 32
M  V30 36 1 17 33
M  V30 37 1 18 34
M  V30 38 1 19 35
M  V30 39 1 21 36
M  V30 40 1 22 37
M  V30 41 1 23 38
M  V30 42 1 24 39
M  V30 END BOND
M  V30 END CTAB
M  END
>  <Dataset>  (963) 
ChEMBL_Kinases

>  <Ligand_Instance>  (963) 
nan

>  <PDB_ID>  (963) 
nan

>  <Standardized_SMILES>  (963) 
Nc1n[nH]c2cc(-c3ccc(NS(=O)(=O)c4ccco4)cc3)ccc12

>  <Name>  (963) 
nan

>  <Pocket>  (963) 
nan

>  <ATP_Site>  (963) 
nan

>  <Peripheral>  (963) 
nan

>  <Num_H_Atoms_ProtBoundConf>  (963) 
nan

>  <Num_Resolved_Atoms>  (963) 
nan

>  <Num_Not_Resolved_Atoms>  (963) 
nan

$$$$
CHEMBL3356021
     RDKit          3D

  0  0  0  0  0  0  0  0  0  0999 V3000
M  V30 BEGIN CTAB
M  V30 COUNTS 39 42 0 0 0
M  V30 BEGIN ATOM
M  V30 1 N 0.358031 -7.074901 2.864515 0
M  V30 2 C 1.290388 -6.007112 2.715410 0
M  V30 3 N 2.570160 -5.836556 3.115283 0
M  V30 4 N 3.003189 -4.649441 2.723331 0
M  V30 5 C 2.039818 -3.991898 2.055412 0
M  V30 6 C 2.020947 -2.743920 1.465690 0
M  V30 7 C 0.883916 -2.291011 0.828160 0
M  V30 8 C 0.708615 -1.002757 0.160845 0
M  V30 9 C -0.111870 -0.795963 -0.929373 0
M  V30 10 C -0.208003 0.461865 -1.487688 0
M  V30 11 C 0.498086 1.539368 -0.987684 0
M  V30 12 N 0.473710 2.866854 -1.481114 0
M  V30 13 S 0.345353 4.282560 -0.506932 0
M  V30 14 O 1.508497 4.457794 0.405032 0
M  V30 15 O 0.295210 5.464489 -1.438232 0
M  V30 16 C -1.164548 4.289051 0.392196 0
M  V30 17 C -2.102978 3.291827 0.315557 0
M  V30 18 C -3.241620 3.340353 1.021101 0
M  V30 19 Cl -4.611116 2.322162 1.186628 0
M  V30 20 S -3.109445 4.937094 1.955927 0
M  V30 21 C -1.472305 5.363535 1.256345 0
M  V30 22 Cl -0.492859 6.784297 1.577343 0
M  V30 23 C 1.312364 1.291793 0.109035 0
M  V30 24 C 1.447750 0.047820 0.711206 0
M  V30 25 C -0.238948 -3.125713 0.797104 0
M  V30 26 C -0.210280 -4.379863 1.393397 0
M  V30 27 C 0.937571 -4.843174 2.039848 0
M  V30 28 H -0.132856 -6.958085 3.780092 0
M  V30 29 H 0.367250 -7.733112 2.038731 0
M  V30 30 H 3.952387 -4.241172 2.888375 0
M  V30 31 H 2.845051 -2.066716 1.458321 0
M  V30 32 H -0.661800 -1.628705 -1.321118 0
M  V30 33 H -0.841620 0.664303 -2.344545 0
M  V30 34 H 0.548702 2.789866 -2.531583 0
M  V30 35 H -1.994271 2.415170 -0.305063 0
M  V30 36 H 1.893012 2.103735 0.546072 0
M  V30 37 H 2.097489 -0.064660 1.556576 0
M  V30 38 H -1.168663 -2.875968 0.332115 0
M  V30 39 H -1.047348 -5.044017 1.389799 0
M  V30 END ATOM
M  V30 BEGIN BOND
M  V30 1 1 1 2
M  V30 2 2 2 3
M  V30 3 1 3 4
M  V30 4 1 4 5
M  V30 5 2 5 6
M  V30 6 1 6 7
M  V30 7 1 7 8
M  V30 8 2 8 9
M  V30 9 1 9 10
M  V30 10 2 10 11
M  V30 11 1 11 12
M  V30 12 1 12 13
M  V30 13 2 13 14
M  V30 14 2 13 15
M  V30 15 1 13 16
M  V30 16 1 16 17
M  V30 17 2 17 18
M  V30 18 1 18 19
M  V30 19 1 18 20
M  V30 20 1 20 21
M  V30 21 1 21 22
M  V30 22 1 11 23
M  V30 23 2 23 24
M  V30 24 2 7 25
M  V30 25 1 25 26
M  V30 26 2 26 27
M  V30 27 1 27 2
M  V30 28 1 27 5
M  V30 29 1 24 8
M  V30 30 2 21 16
M  V30 31 1 1 28
M  V30 32 1 1 29
M  V30 33 1 4 30
M  V30 34 1 6 31
M  V30 35 1 9 32
M  V30 36 1 10 33
M  V30 37 1 12 34
M  V30 38 1 17 35
M  V30 39 1 23 36
M  V30 40 1 24 37
M  V30 41 1 25 38
M  V30 42 1 26 39
M  V30 END BOND
M  V30 END CTAB
M  END
>  <Dataset>  (964) 
ChEMBL_Kinases

>  <Ligand_Instance>  (964) 
nan

>  <PDB_ID>  (964) 
nan

>  <Standardized_SMILES>  (964) 
Nc1n[nH]c2cc(-c3ccc(NS(=O)(=O)c4cc(Cl)sc4Cl)cc3)ccc12

>  <Name>  (964) 
nan

>  <Pocket>  (964) 
nan

>  <ATP_Site>  (964) 
nan

>  <Peripheral>  (964) 
nan

>  <Num_H_Atoms_ProtBoundConf>  (964) 
nan

>  <Num_Resolved_Atoms>  (964) 
nan

>  <Num_Not_Resolved_Atoms>  (964) 
nan

$$$$
CHEMBL3356022
     RDKit          3D

  0  0  0  0  0  0  0  0  0  0999 V3000
M  V30 BEGIN CTAB
M  V30 COUNTS 42 45 0 0 0
M  V30 BEGIN ATOM
M  V30 1 N 3.421733 -7.033079 2.193674 0
M  V30 2 C 2.229103 -6.277727 1.940484 0
M  V30 3 N 0.963273 -6.663093 2.211552 0
M  V30 4 N 0.113852 -5.706173 1.840721 0
M  V30 5 C 0.839712 -4.685060 1.321441 0
M  V30 6 C 0.473079 -3.461680 0.792889 0
M  V30 7 C 1.447153 -2.593650 0.324422 0
M  V30 8 C 0.990253 -1.318019 -0.221048 0
M  V30 9 C -0.222574 -1.147142 -0.877849 0
M  V30 10 C -0.608604 0.079252 -1.375305 0
M  V30 11 C 0.216989 1.201350 -1.232955 0
M  V30 12 N -0.230908 2.419935 -1.759871 0
M  V30 13 S -0.052531 3.824490 -0.767208 0
M  V30 14 O 1.367038 4.082856 -0.393643 0
M  V30 15 O -0.628037 5.042663 -1.450267 0
M  V30 16 C -0.979768 3.638799 0.716687 0
M  V30 17 C -0.341036 3.057995 1.812566 0
M  V30 18 C -1.065422 2.907667 2.987513 0
M  V30 19 C -2.380160 3.313308 3.092344 0
M  V30 20 C -3.020400 3.893740 1.999091 0
M  V30 21 C -2.294723 4.040256 0.834240 0
M  V30 22 C 1.413273 0.998198 -0.576588 0
M  V30 23 C 1.833957 -0.212048 -0.065539 0
M  V30 24 C 2.780532 -2.910304 0.367463 0
M  V30 25 C 3.158007 -4.133671 0.895192 0
M  V30 26 C 2.190234 -5.016155 1.369755 0
M  V30 27 H 3.665670 -7.759193 1.509721 0
M  V30 28 H 4.136945 -6.994413 2.978327 0
M  V30 29 H -0.939519 -5.682502 1.909708 0
M  V30 30 H -0.585027 -3.216568 0.761542 0
M  V30 31 H -0.817795 -2.053454 -0.956528 0
M  V30 32 H -1.566050 0.161697 -1.880912 0
M  V30 33 H -0.647867 2.397459 -2.729579 0
M  V30 34 H 0.688110 2.721566 1.787010 0
M  V30 35 H -0.575577 2.456367 3.845525 0
M  V30 36 H -2.950440 3.200808 3.999858 0
M  V30 37 H -4.049288 4.240299 1.994156 0
M  V30 38 H -2.683451 4.479859 -0.090065 0
M  V30 39 H 2.063458 1.846136 -0.455661 0
M  V30 40 H 2.775608 -0.273029 0.426765 0
M  V30 41 H 3.522817 -2.234326 0.003861 0
M  V30 42 H 4.213272 -4.425958 0.948224 0
M  V30 END ATOM
M  V30 BEGIN BOND
M  V30 1 1 1 2
M  V30 2 2 2 3
M  V30 3 1 3 4
M  V30 4 1 4 5
M  V30 5 2 5 6
M  V30 6 1 6 7
M  V30 7 1 7 8
M  V30 8 2 8 9
M  V30 9 1 9 10
M  V30 10 2 10 11
M  V30 11 1 11 12
M  V30 12 1 12 13
M  V30 13 2 13 14
M  V30 14 2 13 15
M  V30 15 1 13 16
M  V30 16 2 16 17
M  V30 17 1 17 18
M  V30 18 2 18 19
M  V30 19 1 19 20
M  V30 20 2 20 21
M  V30 21 1 11 22
M  V30 22 2 22 23
M  V30 23 2 7 24
M  V30 24 1 24 25
M  V30 25 2 25 26
M  V30 26 1 26 2
M  V30 27 1 26 5
M  V30 28 1 23 8
M  V30 29 1 21 16
M  V30 30 1 1 27
M  V30 31 1 1 28
M  V30 32 1 4 29
M  V30 33 1 6 30
M  V30 34 1 9 31
M  V30 35 1 10 32
M  V30 36 1 12 33
M  V30 37 1 17 34
M  V30 38 1 18 35
M  V30 39 1 19 36
M  V30 40 1 20 37
M  V30 41 1 21 38
M  V30 42 1 22 39
M  V30 43 1 23 40
M  V30 44 1 24 41
M  V30 45 1 25 42
M  V30 END BOND
M  V30 END CTAB
M  END
>  <Dataset>  (965) 
ChEMBL_Kinases

>  <Ligand_Instance>  (965) 
nan

>  <PDB_ID>  (965) 
nan

>  <Standardized_SMILES>  (965) 
Nc1n[nH]c2cc(-c3ccc(NS(=O)(=O)c4ccccc4)cc3)ccc12

>  <Name>  (965) 
nan

>  <Pocket>  (965) 
nan

>  <ATP_Site>  (965) 
nan

>  <Peripheral>  (965) 
nan

>  <Num_H_Atoms_ProtBoundConf>  (965) 
nan

>  <Num_Resolved_Atoms>  (965) 
nan

>  <Num_Not_Resolved_Atoms>  (965) 
nan

$$$$
CHEMBL3356023
     RDKit          3D

  0  0  0  0  0  0  0  0  0  0999 V3000
M  V30 BEGIN CTAB
M  V30 COUNTS 42 45 0 0 0
M  V30 BEGIN ATOM
M  V30 1 N 3.545595 -7.189378 0.880169 0
M  V30 2 C 2.345863 -6.425347 0.805337 0
M  V30 3 N 1.108709 -6.934727 1.012289 0
M  V30 4 N 0.206483 -5.957041 0.865612 0
M  V30 5 C 0.883172 -4.834122 0.566046 0
M  V30 6 C 0.483153 -3.517537 0.305356 0
M  V30 7 C 1.422559 -2.542971 0.018181 0
M  V30 8 C 0.999714 -1.154778 -0.259103 0
M  V30 9 C -0.191608 -0.855848 -0.865917 0
M  V30 10 C -0.602537 0.439402 -1.133037 0
M  V30 11 C 0.230786 1.489935 -0.769422 0
M  V30 12 N -0.170388 2.818895 -1.034885 0
M  V30 13 S -0.019190 4.083700 0.142891 0
M  V30 14 O 1.410199 4.243084 0.578398 0
M  V30 15 O -0.582235 5.369191 -0.383765 0
M  V30 16 C -1.014785 3.621958 1.504789 0
M  V30 17 C -0.429832 3.450162 2.751250 0
M  V30 18 C -1.236878 3.081317 3.827873 0
M  V30 19 C -2.593934 2.896742 3.628142 0
M  V30 20 C -3.129382 3.080176 2.367257 0
M  V30 21 C -2.361975 3.447686 1.265400 0
M  V30 22 Cl -3.093117 3.664968 -0.298544 0
M  V30 23 C 1.443616 1.170456 -0.150884 0
M  V30 24 C 1.844319 -0.126902 0.111127 0
M  V30 25 C 2.774608 -2.832366 -0.020848 0
M  V30 26 C 3.218901 -4.132114 0.232623 0
M  V30 27 C 2.243720 -5.058575 0.511721 0
M  V30 28 H 4.098543 -7.900236 0.358148 0
M  V30 29 H 4.304038 -7.228965 1.615107 0
M  V30 30 H -0.843175 -5.965090 0.947907 0
M  V30 31 H -0.584418 -3.294019 0.337306 0
M  V30 32 H -0.857967 -1.648361 -1.158280 0
M  V30 33 H -1.547687 0.654839 -1.613910 0
M  V30 34 H -0.567275 3.002012 -1.987056 0
M  V30 35 H 0.635135 3.599705 2.883748 0
M  V30 36 H -0.769800 2.950821 4.794325 0
M  V30 37 H -3.189009 2.616217 4.462617 0
M  V30 38 H -4.193564 2.932422 2.230828 0
M  V30 39 H 2.097656 1.983100 0.135345 0
M  V30 40 H 2.792091 -0.274970 0.589571 0
M  V30 41 H 3.497619 -2.079410 -0.243014 0
M  V30 42 H 4.257171 -4.436578 0.221017 0
M  V30 END ATOM
M  V30 BEGIN BOND
M  V30 1 1 1 2
M  V30 2 2 2 3
M  V30 3 1 3 4
M  V30 4 1 4 5
M  V30 5 2 5 6
M  V30 6 1 6 7
M  V30 7 1 7 8
M  V30 8 2 8 9
M  V30 9 1 9 10
M  V30 10 2 10 11
M  V30 11 1 11 12
M  V30 12 1 12 13
M  V30 13 2 13 14
M  V30 14 2 13 15
M  V30 15 1 13 16
M  V30 16 2 16 17
M  V30 17 1 17 18
M  V30 18 2 18 19
M  V30 19 1 19 20
M  V30 20 2 20 21
M  V30 21 1 21 22
M  V30 22 1 11 23
M  V30 23 2 23 24
M  V30 24 2 7 25
M  V30 25 1 25 26
M  V30 26 2 26 27
M  V30 27 1 27 2
M  V30 28 1 27 5
M  V30 29 1 24 8
M  V30 30 1 21 16
M  V30 31 1 1 28
M  V30 32 1 1 29
M  V30 33 1 4 30
M  V30 34 1 6 31
M  V30 35 1 9 32
M  V30 36 1 10 33
M  V30 37 1 12 34
M  V30 38 1 17 35
M  V30 39 1 18 36
M  V30 40 1 19 37
M  V30 41 1 20 38
M  V30 42 1 23 39
M  V30 43 1 24 40
M  V30 44 1 25 41
M  V30 45 1 26 42
M  V30 END BOND
M  V30 END CTAB
M  END
>  <Dataset>  (966) 
ChEMBL_Kinases

>  <Ligand_Instance>  (966) 
nan

>  <PDB_ID>  (966) 
nan

>  <Standardized_SMILES>  (966) 
Nc1n[nH]c2cc(-c3ccc(NS(=O)(=O)c4ccccc4Cl)cc3)ccc12

>  <Name>  (966) 
nan

>  <Pocket>  (966) 
nan

>  <ATP_Site>  (966) 
nan

>  <Peripheral>  (966) 
nan

>  <Num_H_Atoms_ProtBoundConf>  (966) 
nan

>  <Num_Resolved_Atoms>  (966) 
nan

>  <Num_Not_Resolved_Atoms>  (966) 
nan

$$$$
CHEMBL3356014
     RDKit          3D

  0  0  0  0  0  0  0  0  0  0999 V3000
M  V30 BEGIN CTAB
M  V30 COUNTS 39 42 0 0 0
M  V30 BEGIN ATOM
M  V30 1 N 2.489706 -6.570408 3.559039 0
M  V30 2 C 1.949145 -5.976295 2.415970 0
M  V30 3 N 1.560588 -6.749023 1.406111 0
M  V30 4 N 1.087237 -5.961166 0.445809 0
M  V30 5 C 1.203788 -4.684104 0.911900 0
M  V30 6 C 0.848537 -3.488681 0.285095 0
M  V30 7 C 1.064558 -2.312944 0.962852 0
M  V30 8 C 0.692081 -1.057384 0.308244 0
M  V30 9 C 1.455085 0.060216 0.622551 0
M  V30 10 C 1.106509 1.245242 0.008469 0
M  V30 11 C 0.060796 1.370132 -0.881955 0
M  V30 12 N -0.302063 2.590341 -1.517102 0
M  V30 13 S -0.404473 4.087455 -0.621771 0
M  V30 14 O -0.693406 5.200591 -1.556846 0
M  V30 15 O 0.951698 4.306833 -0.012373 0
M  V30 16 C -1.649196 3.935969 0.640033 0
M  V30 17 C -3.068475 4.174394 0.349384 0
M  V30 18 C -2.256856 5.133103 1.260599 0
M  V30 19 C -0.686517 0.226303 -1.176237 0
M  V30 20 C -0.365002 -0.990025 -0.575654 0
M  V30 21 C 1.622570 -2.306993 2.240985 0
M  V30 22 C 1.974513 -3.481573 2.863509 0
M  V30 23 C 1.757024 -4.637994 2.185292 0
M  V30 24 H 2.916576 -7.026268 4.366851 0
M  V30 25 H 2.319614 -6.577677 4.585969 0
M  V30 26 H 0.701139 -6.212324 -0.477441 0
M  V30 27 H 0.423189 -3.490015 -0.688194 0
M  V30 28 H 2.299077 0.028407 1.322270 0
M  V30 29 H 1.694885 2.108224 0.250468 0
M  V30 30 H -0.494418 2.482498 -2.557118 0
M  V30 31 H -1.430370 3.112120 1.371601 0
M  V30 32 H -3.434450 4.597468 -0.597927 0
M  V30 33 H -3.855305 3.557265 0.862275 0
M  V30 34 H -2.108349 6.157887 0.908205 0
M  V30 35 H -2.558408 5.104297 2.339536 0
M  V30 36 H -1.534629 0.237905 -1.873688 0
M  V30 37 H -0.950371 -1.880500 -0.807969 0
M  V30 38 H 1.791778 -1.382688 2.772490 0
M  V30 39 H 2.409158 -3.571393 3.844882 0
M  V30 END ATOM
M  V30 BEGIN BOND
M  V30 1 1 1 2
M  V30 2 2 2 3
M  V30 3 1 3 4
M  V30 4 1 4 5
M  V30 5 2 5 6
M  V30 6 1 6 7
M  V30 7 1 7 8
M  V30 8 2 8 9
M  V30 9 1 9 10
M  V30 10 2 10 11
M  V30 11 1 11 12
M  V30 12 1 12 13
M  V30 13 2 13 14
M  V30 14 2 13 15
M  V30 15 1 13 16
M  V30 16 1 16 17
M  V30 17 1 17 18
M  V30 18 1 11 19
M  V30 19 2 19 20
M  V30 20 2 7 21
M  V30 21 1 21 22
M  V30 22 2 22 23
M  V30 23 1 23 2
M  V30 24 1 23 5
M  V30 25 1 20 8
M  V30 26 1 18 16
M  V30 27 1 1 24
M  V30 28 1 1 25
M  V30 29 1 4 26
M  V30 30 1 6 27
M  V30 31 1 9 28
M  V30 32 1 10 29
M  V30 33 1 12 30
M  V30 34 1 16 31
M  V30 35 1 17 32
M  V30 36 1 17 33
M  V30 37 1 18 34
M  V30 38 1 18 35
M  V30 39 1 19 36
M  V30 40 1 20 37
M  V30 41 1 21 38
M  V30 42 1 22 39
M  V30 END BOND
M  V30 END CTAB
M  END
>  <Dataset>  (967) 
ChEMBL_Kinases

>  <Ligand_Instance>  (967) 
nan

>  <PDB_ID>  (967) 
nan

>  <Standardized_SMILES>  (967) 
Nc1n[nH]c2cc(-c3ccc(NS(=O)(=O)C4CC4)cc3)ccc12

>  <Name>  (967) 
nan

>  <Pocket>  (967) 
nan

>  <ATP_Site>  (967) 
nan

>  <Peripheral>  (967) 
nan

>  <Num_H_Atoms_ProtBoundConf>  (967) 
nan

>  <Num_Resolved_Atoms>  (967) 
nan

>  <Num_Not_Resolved_Atoms>  (967) 
nan

$$$$
CHEMBL3329655
     RDKit          3D

  0  0  0  0  0  0  0  0  0  0999 V3000
M  V30 BEGIN CTAB
M  V30 COUNTS 44 47 0 0 0
M  V30 BEGIN ATOM
M  V30 1 O 0.883575 -2.431039 -1.870846 0
M  V30 2 C 1.088639 -2.619902 -0.620752 0
M  V30 3 N 1.900990 -3.707094 -0.172629 0
M  V30 4 C 2.455176 -4.522378 -1.232187 0
M  V30 5 O 2.241701 -4.330444 -2.462059 0
M  V30 6 C 3.318804 -5.629741 -0.757904 0
M  V30 7 C 3.539404 -5.914650 0.578120 0
M  V30 8 C 4.390605 -6.981627 0.885718 0
M  V30 9 C 4.999442 -7.735673 -0.089395 0
M  V30 10 C 4.774721 -7.445924 -1.443162 0
M  V30 11 C 3.938086 -6.398069 -1.750781 0
M  V30 12 N 0.442297 -1.661208 0.260812 0
M  V30 13 C -0.400639 -0.516522 -0.001059 0
M  V30 14 C 0.138962 0.750394 -0.142082 0
M  V30 15 C -0.714666 1.798980 -0.407819 0
M  V30 16 C -2.073268 1.617917 -0.535651 0
M  V30 17 C -2.633105 0.340560 -0.396252 0
M  V30 18 C -1.768945 -0.705113 -0.128546 0
M  V30 19 N -4.065186 0.388453 -0.573094 0
M  V30 20 C -4.443422 1.755376 -0.840509 0
M  V30 21 O -5.611759 2.103300 -1.037969 0
M  V30 22 C -3.210286 2.479388 -0.810087 0
M  V30 23 C -3.177661 3.779705 -1.035190 0
M  V30 24 C -4.264758 4.704103 -1.314493 0
M  V30 25 C -4.121027 5.618784 -2.380603 0
M  V30 26 C -5.224092 6.418217 -2.476916 0
M  V30 27 C -6.070951 6.017087 -1.472985 0
M  V30 28 N -5.482611 5.010725 -0.806684 0
M  V30 29 H 1.665946 -3.451011 -1.119214 0
M  V30 30 H 3.040146 -5.297023 1.329432 0
M  V30 31 H 4.557760 -7.194577 1.943224 0
M  V30 32 H 5.648886 -8.544445 0.159694 0
M  V30 33 H 5.271153 -8.060531 -2.177811 0
M  V30 34 H 3.771119 -6.177084 -2.815039 0
M  V30 35 H 0.765734 -1.999712 1.188805 0
M  V30 36 H 1.204564 0.905090 -0.043899 0
M  V30 37 H -0.345853 2.826921 -0.527958 0
M  V30 38 H -2.164255 -1.707587 -0.010664 0
M  V30 39 H -4.670436 -0.457199 -0.511036 0
M  V30 40 H -2.164490 4.231073 -1.000366 0
M  V30 41 H -3.270634 5.725688 -3.071279 0
M  V30 42 H -5.511465 7.230008 -3.137650 0
M  V30 43 H -7.048635 6.406919 -1.221377 0
M  V30 44 H -5.872917 4.508826 0.017205 0
M  V30 END ATOM
M  V30 BEGIN BOND
M  V30 1 2 1 2
M  V30 2 1 2 3
M  V30 3 1 3 4
M  V30 4 2 4 5
M  V30 5 1 4 6
M  V30 6 2 6 7
M  V30 7 1 7 8
M  V30 8 2 8 9
M  V30 9 1 9 10
M  V30 10 2 10 11
M  V30 11 1 2 12
M  V30 12 1 12 13
M  V30 13 2 13 14
M  V30 14 1 14 15
M  V30 15 2 15 16
M  V30 16 1 16 17
M  V30 17 2 17 18
M  V30 18 1 17 19
M  V30 19 1 19 20
M  V30 20 2 20 21
M  V30 21 1 20 22
M  V30 22 2 22 23
M  V30 23 1 23 24
M  V30 24 2 24 25
M  V30 25 1 25 26
M  V30 26 2 26 27
M  V30 27 1 27 28
M  V30 28 1 11 6
M  V30 29 1 18 13
M  V30 30 1 28 24
M  V30 31 1 22 16
M  V30 32 1 3 29
M  V30 33 1 7 30
M  V30 34 1 8 31
M  V30 35 1 9 32
M  V30 36 1 10 33
M  V30 37 1 11 34
M  V30 38 1 12 35
M  V30 39 1 14 36
M  V30 40 1 15 37
M  V30 41 1 18 38
M  V30 42 1 19 39
M  V30 43 1 23 40
M  V30 44 1 25 41
M  V30 45 1 26 42
M  V30 46 1 27 43
M  V30 47 1 28 44
M  V30 END BOND
M  V30 END CTAB
M  END
>  <Dataset>  (968) 
ChEMBL_Kinases

>  <Ligand_Instance>  (968) 
nan

>  <PDB_ID>  (968) 
nan

>  <Standardized_SMILES>  (968) 
O=C(NC(=O)c1ccccc1)Nc1ccc2c(c1)NC(=O)/C2=C\c1ccc[nH]1

>  <Name>  (968) 
nan

>  <Pocket>  (968) 
nan

>  <ATP_Site>  (968) 
nan

>  <Peripheral>  (968) 
nan

>  <Num_H_Atoms_ProtBoundConf>  (968) 
nan

>  <Num_Resolved_Atoms>  (968) 
nan

>  <Num_Not_Resolved_Atoms>  (968) 
nan

$$$$
CHEMBL3329652
     RDKit          3D

  0  0  0  0  0  0  0  0  0  0999 V3000
M  V30 BEGIN CTAB
M  V30 COUNTS 48 51 0 0 0
M  V30 BEGIN ATOM
M  V30 1 C 8.638568 -1.346482 -4.803639 0
M  V30 2 O 8.259053 -1.835341 -3.530681 0
M  V30 3 C 7.054658 -1.500415 -2.930456 0
M  V30 4 C 6.627488 -1.951990 -1.684642 0
M  V30 5 C 5.376700 -1.502957 -1.247448 0
M  V30 6 C 4.589494 -0.652102 -2.001481 0
M  V30 7 C 3.270464 -0.304753 -1.376400 0
M  V30 8 O 2.756642 0.627926 -2.120600 0
M  V30 9 N 2.482703 -0.755547 -0.191903 0
M  V30 10 C 1.259746 0.016626 -0.172617 0
M  V30 11 O 0.731664 0.919482 -0.829854 0
M  V30 12 N 0.755911 -0.678705 1.018358 0
M  V30 13 C -0.499356 -0.437458 1.675270 0
M  V30 14 C -0.647050 0.478160 2.694638 0
M  V30 15 C -1.918092 0.596241 3.217325 0
M  V30 16 C -2.945319 -0.179536 2.713844 0
M  V30 17 C -2.788815 -1.096790 1.690149 0
M  V30 18 C -1.503119 -1.215359 1.162540 0
M  V30 19 N -4.019790 -1.740067 1.389492 0
M  V30 20 C -5.004207 -1.197101 2.273778 0
M  V30 21 O -6.200130 -1.571109 2.252099 0
M  V30 22 C -4.346054 -0.207552 3.119892 0
M  V30 23 C -5.006881 0.437605 4.046709 0
M  V30 24 C -6.397582 0.381095 4.411870 0
M  V30 25 C -7.629442 0.410281 3.815903 0
M  V30 26 C -8.657442 0.279641 4.724694 0
M  V30 27 C -8.018585 0.162928 5.962899 0
M  V30 28 N -6.677654 0.227928 5.732233 0
M  V30 29 C 4.988647 -0.197339 -3.223392 0
M  V30 30 C 6.227124 -0.658909 -3.627074 0
M  V30 31 H 7.851025 -1.573502 -5.579571 0
M  V30 32 H 9.538227 -1.876407 -5.162190 0
M  V30 33 H 8.807016 -0.263689 -4.841270 0
M  V30 34 H 7.317858 -2.602706 -1.193804 0
M  V30 35 H 5.188706 -1.936631 -0.268628 0
M  V30 36 H 3.293330 -1.265164 -0.207298 0
M  V30 37 H 1.133424 -1.445493 1.636005 0
M  V30 38 H 0.204041 1.049133 3.036504 0
M  V30 39 H -2.088499 1.311151 4.030625 0
M  V30 40 H -1.403157 -1.936260 0.367090 0
M  V30 41 H -4.171418 -2.471826 0.659886 0
M  V30 42 H -4.332072 1.118244 4.596641 0
M  V30 43 H -7.726790 0.537021 2.748665 0
M  V30 44 H -9.712174 0.279219 4.439764 0
M  V30 45 H -8.631680 0.048876 6.835132 0
M  V30 46 H -6.115947 0.145674 6.632594 0
M  V30 47 H 4.352519 0.460585 -3.782515 0
M  V30 48 H 6.480270 -0.253839 -4.614410 0
M  V30 END ATOM
M  V30 BEGIN BOND
M  V30 1 1 1 2
M  V30 2 1 2 3
M  V30 3 2 3 4
M  V30 4 1 4 5
M  V30 5 2 5 6
M  V30 6 1 6 7
M  V30 7 2 7 8
M  V30 8 1 7 9
M  V30 9 1 9 10
M  V30 10 2 10 11
M  V30 11 1 10 12
M  V30 12 1 12 13
M  V30 13 2 13 14
M  V30 14 1 14 15
M  V30 15 2 15 16
M  V30 16 1 16 17
M  V30 17 2 17 18
M  V30 18 1 17 19
M  V30 19 1 19 20
M  V30 20 2 20 21
M  V30 21 1 20 22
M  V30 22 2 22 23
M  V30 23 1 23 24
M  V30 24 2 24 25
M  V30 25 1 25 26
M  V30 26 2 26 27
M  V30 27 1 27 28
M  V30 28 1 6 29
M  V30 29 2 29 30
M  V30 30 1 30 3
M  V30 31 1 18 13
M  V30 32 1 28 24
M  V30 33 1 22 16
M  V30 34 1 1 31
M  V30 35 1 1 32
M  V30 36 1 1 33
M  V30 37 1 4 34
M  V30 38 1 5 35
M  V30 39 1 9 36
M  V30 40 1 12 37
M  V30 41 1 14 38
M  V30 42 1 15 39
M  V30 43 1 18 40
M  V30 44 1 19 41
M  V30 45 1 23 42
M  V30 46 1 25 43
M  V30 47 1 26 44
M  V30 48 1 27 45
M  V30 49 1 28 46
M  V30 50 1 29 47
M  V30 51 1 30 48
M  V30 END BOND
M  V30 END CTAB
M  END
>  <Dataset>  (969) 
ChEMBL_Kinases

>  <Ligand_Instance>  (969) 
nan

>  <PDB_ID>  (969) 
nan

>  <Standardized_SMILES>  (969) 
COc1ccc(C(=O)NC(=O)Nc2ccc3c(c2)NC(=O)/C3=C\c2ccc[nH]2)cc1

>  <Name>  (969) 
nan

>  <Pocket>  (969) 
nan

>  <ATP_Site>  (969) 
nan

>  <Peripheral>  (969) 
nan

>  <Num_H_Atoms_ProtBoundConf>  (969) 
nan

>  <Num_Resolved_Atoms>  (969) 
nan

>  <Num_Not_Resolved_Atoms>  (969) 
nan

$$$$
CHEMBL3329232
     RDKit          3D

  0  0  0  0  0  0  0  0  0  0999 V3000
M  V30 BEGIN CTAB
M  V30 COUNTS 55 58 0 0 0
M  V30 BEGIN ATOM
M  V30 1 C 3.229135 -1.598696 4.808650 0
M  V30 2 N 2.184330 -2.391868 4.230691 0
M  V30 3 C 1.826643 -3.542724 4.992515 0
M  V30 4 C 2.268349 -2.585853 2.816112 0
M  V30 5 C 2.221149 -1.266556 2.122071 0
M  V30 6 O 2.126744 -0.065354 2.502878 0
M  V30 7 N 2.298516 -1.364154 0.718699 0
M  V30 8 C 2.260699 -0.137733 -0.045800 0
M  V30 9 C 3.398010 0.567347 -0.381534 0
M  V30 10 C 3.228298 1.722250 -1.113440 0
M  V30 11 C 1.982190 2.184141 -1.511647 0
M  V30 12 N 1.485471 3.230207 -2.205280 0
M  V30 13 N 0.166819 3.152152 -2.274895 0
M  V30 14 C -0.263599 2.038834 -1.622533 0
M  V30 15 C -1.680090 1.695065 -1.536008 0
M  V30 16 C -2.224159 1.281621 -0.319321 0
M  V30 17 C -3.551678 0.947574 -0.188276 0
M  V30 18 C -4.402705 1.009347 -1.264644 0
M  V30 19 C -3.846020 1.416877 -2.444347 0
M  V30 20 S -4.821779 1.543689 -3.913961 0
M  V30 21 N -5.496773 3.129158 -4.032701 0
M  V30 22 O -5.984674 0.589154 -3.740838 0
M  V30 23 O -4.044021 1.152363 -5.123073 0
M  V30 24 C -2.531791 1.760718 -2.629330 0
M  V30 25 C 0.880879 1.433016 -1.144115 0
M  V30 26 C 0.973110 0.256666 -0.405838 0
M  V30 27 C 1.095191 -3.408945 2.411534 0
M  V30 28 C 1.252253 -4.478647 1.537548 0
M  V30 29 C 0.172542 -5.248366 1.155629 0
M  V30 30 C -1.097211 -4.985745 1.625138 0
M  V30 31 C -1.284156 -3.915523 2.505722 0
M  V30 32 C -0.187516 -3.136744 2.891262 0
M  V30 33 H 2.862888 -0.531723 4.805851 0
M  V30 34 H 4.211071 -1.713845 4.350387 0
M  V30 35 H 3.290001 -1.869529 5.899690 0
M  V30 36 H 1.797703 -4.469284 4.389406 0
M  V30 37 H 2.451045 -3.729302 5.888530 0
M  V30 38 H 0.788605 -3.382017 5.398113 0
M  V30 39 H 3.178674 -3.098740 2.485019 0
M  V30 40 H 2.382794 -2.211283 0.101685 0
M  V30 41 H 4.357413 0.206567 -0.071752 0
M  V30 42 H 4.087250 2.305206 -1.398308 0
M  V30 43 H 2.114270 3.978011 -2.613053 0
M  V30 44 H -1.630130 1.201791 0.586379 0
M  V30 45 H -3.957476 0.626986 0.770592 0
M  V30 46 H -5.457396 0.749786 -1.185042 0
M  V30 47 H -5.579091 3.488382 -3.056885 0
M  V30 48 H -6.440958 3.059798 -4.460542 0
M  V30 49 H -2.098697 2.081512 -3.562859 0
M  V30 50 H 0.093371 -0.307474 -0.134509 0
M  V30 51 H 2.246769 -4.727417 1.135925 0
M  V30 52 H 0.246948 -6.098475 0.471491 0
M  V30 53 H -2.014611 -5.512087 1.401075 0
M  V30 54 H -2.271421 -3.652140 2.917346 0
M  V30 55 H -0.348097 -2.318931 3.567841 0
M  V30 END ATOM
M  V30 BEGIN BOND
M  V30 1 1 1 2
M  V30 2 1 2 3
M  V30 3 1 2 4
M  V30 4 1 4 5
M  V30 5 2 5 6
M  V30 6 1 5 7
M  V30 7 1 7 8
M  V30 8 2 8 9
M  V30 9 1 9 10
M  V30 10 2 10 11
M  V30 11 1 11 12
M  V30 12 1 12 13
M  V30 13 2 13 14
M  V30 14 1 14 15
M  V30 15 2 15 16
M  V30 16 1 16 17
M  V30 17 2 17 18
M  V30 18 1 18 19
M  V30 19 1 19 20
M  V30 20 1 20 21
M  V30 21 2 20 22
M  V30 22 2 20 23
M  V30 23 2 19 24
M  V30 24 1 14 25
M  V30 25 2 25 26
M  V30 26 1 4 27
M  V30 27 2 27 28
M  V30 28 1 28 29
M  V30 29 2 29 30
M  V30 30 1 30 31
M  V30 31 2 31 32
M  V30 32 1 26 8
M  V30 33 1 32 27
M  V30 34 1 25 11
M  V30 35 1 24 15
M  V30 36 1 1 33
M  V30 37 1 1 34
M  V30 38 1 1 35
M  V30 39 1 3 36
M  V30 40 1 3 37
M  V30 41 1 3 38
M  V30 42 1 4 39
M  V30 43 1 7 40
M  V30 44 1 9 41
M  V30 45 1 10 42
M  V30 46 1 12 43
M  V30 47 1 16 44
M  V30 48 1 17 45
M  V30 49 1 18 46
M  V30 50 1 21 47
M  V30 51 1 21 48
M  V30 52 1 24 49
M  V30 53 1 26 50
M  V30 54 1 28 51
M  V30 55 1 29 52
M  V30 56 1 30 53
M  V30 57 1 31 54
M  V30 58 1 32 55
M  V30 END BOND
M  V30 END CTAB
M  END
>  <Dataset>  (970) 
ChEMBL_Kinases

>  <Ligand_Instance>  (970) 
nan

>  <PDB_ID>  (970) 
nan

>  <Standardized_SMILES>  (970) 
CN(C)C(C(=O)Nc1ccc2[nH]nc(-c3cccc(S(N)(=O)=O)c3)c2c1)c1ccccc1

>  <Name>  (970) 
nan

>  <Pocket>  (970) 
nan

>  <ATP_Site>  (970) 
nan

>  <Peripheral>  (970) 
nan

>  <Num_H_Atoms_ProtBoundConf>  (970) 
nan

>  <Num_Resolved_Atoms>  (970) 
nan

>  <Num_Not_Resolved_Atoms>  (970) 
nan

$$$$
CHEMBL3326804
     RDKit          3D

  0  0  0  0  0  0  0  0  0  0999 V3000
M  V30 BEGIN CTAB
M  V30 COUNTS 58 62 0 0 0
M  V30 BEGIN ATOM
M  V30 1 C 6.730086 -0.192587 2.660315 0
M  V30 2 N 6.215012 0.996413 2.005084 0
M  V30 3 C 6.416479 1.378224 0.626185 0
M  V30 4 O 7.134012 0.473463 0.089017 0
M  V30 5 C 5.728362 2.680018 0.305060 0
M  V30 6 C 6.254051 3.774663 1.181214 0
M  V30 7 C 5.908564 2.955878 -1.149336 0
M  V30 8 N 4.300854 2.487266 0.608262 0
M  V30 9 C 3.556771 1.381821 0.366737 0
M  V30 10 C 2.255303 1.641679 0.816974 0
M  V30 11 C 1.155966 0.682875 0.733234 0
M  V30 12 C 0.205789 0.765353 1.730341 0
M  V30 13 C -0.879760 -0.082737 1.785364 0
M  V30 14 C -1.041839 -1.068424 0.804679 0
M  V30 15 C -2.158672 -2.003646 0.832934 0
M  V30 16 C -2.964233 -2.714000 -0.026209 0
M  V30 17 C -3.859282 -3.456854 0.711520 0
M  V30 18 C -4.824179 -4.306831 0.225360 0
M  V30 19 N -5.084427 -4.553587 -1.135365 0
M  V30 20 C -6.314958 -4.074900 -1.665301 0
M  V30 21 C -7.255592 -3.425242 -0.858891 0
M  V30 22 C -8.436339 -2.980796 -1.372641 0
M  V30 23 N -8.706982 -3.167372 -2.676204 0
M  V30 24 C -7.866580 -3.777548 -3.519664 0
M  V30 25 C -6.690571 -4.211436 -2.972915 0
M  V30 26 N -5.580041 -4.937426 1.148432 0
M  V30 27 C -5.379649 -4.727442 2.470778 0
M  V30 28 N -4.421082 -3.885485 2.890699 0
M  V30 29 N -3.669100 -3.257190 2.021148 0
M  V30 30 C -2.654768 -2.389612 2.096100 0
M  V30 31 C -0.075687 -1.150231 -0.208504 0
M  V30 32 C 1.019783 -0.277057 -0.243456 0
M  V30 33 C 2.272130 2.925482 1.323041 0
M  V30 34 N 3.528530 3.420052 1.184596 0
M  V30 35 H 7.076584 0.037499 3.686811 0
M  V30 36 H 5.948119 -1.004018 2.685714 0
M  V30 37 H 7.603591 -0.640707 2.124886 0
M  V30 38 H 5.646886 1.576242 2.692148 0
M  V30 39 H 5.423160 4.262434 1.702045 0
M  V30 40 H 6.982483 3.452385 1.931409 0
M  V30 41 H 6.671163 4.553426 0.494596 0
M  V30 42 H 5.899788 4.040753 -1.394273 0
M  V30 43 H 5.090426 2.420257 -1.704738 0
M  V30 44 H 6.854874 2.495807 -1.486318 0
M  V30 45 H 3.975868 0.512202 -0.090891 0
M  V30 46 H 0.225818 1.492664 2.548306 0
M  V30 47 H -1.640260 -0.021510 2.577236 0
M  V30 48 H -2.778333 -2.586239 -1.097955 0
M  V30 49 H -4.470877 -5.054892 -1.815383 0
M  V30 50 H -7.064947 -3.264854 0.183339 0
M  V30 51 H -9.199544 -2.475428 -0.799323 0
M  V30 52 H -8.086316 -3.923007 -4.550720 0
M  V30 53 H -5.985922 -4.711491 -3.636673 0
M  V30 54 H -5.968707 -5.215879 3.239048 0
M  V30 55 H -2.312640 -2.068106 3.094474 0
M  V30 56 H -0.134235 -1.895691 -1.012371 0
M  V30 57 H 1.783583 -0.308445 -1.007110 0
M  V30 58 H 1.386094 3.365963 1.734420 0
M  V30 END ATOM
M  V30 BEGIN BOND
M  V30 1 1 1 2
M  V30 2 1 2 3
M  V30 3 2 3 4
M  V30 4 1 3 5
M  V30 5 1 5 6
M  V30 6 1 5 7
M  V30 7 1 5 8
M  V30 8 1 8 9
M  V30 9 2 9 10
M  V30 10 1 10 11
M  V30 11 2 11 12
M  V30 12 1 12 13
M  V30 13 2 13 14
M  V30 14 1 14 15
M  V30 15 1 15 16
M  V30 16 2 16 17
M  V30 17 1 17 18
M  V30 18 1 18 19
M  V30 19 1 19 20
M  V30 20 2 20 21
M  V30 21 1 21 22
M  V30 22 2 22 23
M  V30 23 1 23 24
M  V30 24 2 24 25
M  V30 25 2 18 26
M  V30 26 1 26 27
M  V30 27 2 27 28
M  V30 28 1 28 29
M  V30 29 1 29 30
M  V30 30 1 14 31
M  V30 31 2 31 32
M  V30 32 1 10 33
M  V30 33 2 33 34
M  V30 34 1 34 8
M  V30 35 1 32 11
M  V30 36 2 30 15
M  V30 37 1 29 17
M  V30 38 1 25 20
M  V30 39 1 1 35
M  V30 40 1 1 36
M  V30 41 1 1 37
M  V30 42 1 2 38
M  V30 43 1 6 39
M  V30 44 1 6 40
M  V30 45 1 6 41
M  V30 46 1 7 42
M  V30 47 1 7 43
M  V30 48 1 7 44
M  V30 49 1 9 45
M  V30 50 1 12 46
M  V30 51 1 13 47
M  V30 52 1 16 48
M  V30 53 1 19 49
M  V30 54 1 21 50
M  V30 55 1 22 51
M  V30 56 1 24 52
M  V30 57 1 25 53
M  V30 58 1 27 54
M  V30 59 1 30 55
M  V30 60 1 31 56
M  V30 61 1 32 57
M  V30 62 1 33 58
M  V30 END BOND
M  V30 END CTAB
M  END
>  <Dataset>  (971) 
ChEMBL_Kinases

>  <Ligand_Instance>  (971) 
nan

>  <PDB_ID>  (971) 
nan

>  <Standardized_SMILES>  (971) 
CNC(=O)C(C)(C)n1cc(-c2ccc(-c3cc4c(Nc5ccncc5)ncnn4c3)cc2)cn1

>  <Name>  (971) 
nan

>  <Pocket>  (971) 
nan

>  <ATP_Site>  (971) 
nan

>  <Peripheral>  (971) 
nan

>  <Num_H_Atoms_ProtBoundConf>  (971) 
nan

>  <Num_Resolved_Atoms>  (971) 
nan

>  <Num_Not_Resolved_Atoms>  (971) 
nan

$$$$
CHEMBL3326803
     RDKit          3D

  0  0  0  0  0  0  0  0  0  0999 V3000
M  V30 BEGIN CTAB
M  V30 COUNTS 52 56 0 0 0
M  V30 BEGIN ATOM
M  V30 1 C 6.929806 0.568166 5.624491 0
M  V30 2 N 5.620795 1.007278 5.115252 0
M  V30 3 C 4.592356 0.754136 6.090276 0
M  V30 4 O 5.061283 0.215458 7.136272 0
M  V30 5 C 3.178923 1.118561 5.813639 0
M  V30 6 N 2.410991 0.084127 5.191159 0
M  V30 7 C 2.178267 -0.249121 3.915639 0
M  V30 8 C 1.329956 -1.376871 3.866633 0
M  V30 9 C 1.010524 -1.837090 2.523005 0
M  V30 10 C 0.875058 -3.143022 2.073766 0
M  V30 11 C 0.386942 -3.435657 0.825049 0
M  V30 12 C -0.000434 -2.439764 -0.057434 0
M  V30 13 C -0.498634 -2.622792 -1.408474 0
M  V30 14 C -1.518366 -1.788107 -1.913381 0
M  V30 15 C -1.797953 -2.144737 -3.225361 0
M  V30 16 C -2.762028 -1.540354 -4.023629 0
M  V30 17 N -3.572185 -0.503829 -3.575918 0
M  V30 18 C -4.318148 0.579224 -3.172043 0
M  V30 19 C -4.271424 1.679102 -4.048346 0
M  V30 20 C -5.021564 2.775841 -3.636343 0
M  V30 21 N -5.730875 2.816753 -2.518614 0
M  V30 22 C -5.791896 1.804009 -1.674227 0
M  V30 23 C -5.080170 0.688206 -2.013254 0
M  V30 24 N -2.876161 -2.050674 -5.282251 0
M  V30 25 C -2.055231 -3.090727 -5.645897 0
M  V30 26 N -1.197245 -3.540263 -4.745882 0
M  V30 27 N -0.976944 -3.160565 -3.524359 0
M  V30 28 C -0.211012 -3.451630 -2.468050 0
M  V30 29 C 0.121023 -1.117714 0.358180 0
M  V30 30 C 0.618302 -0.880988 1.614703 0
M  V30 31 C 1.090680 -1.669020 5.208139 0
M  V30 32 N 1.755447 -0.771331 5.945694 0
M  V30 33 H 7.680960 0.956234 4.894948 0
M  V30 34 H 7.079441 0.988724 6.653064 0
M  V30 35 H 6.992552 -0.529048 5.617833 0
M  V30 36 H 5.333691 1.453016 4.205265 0
M  V30 37 H 2.739531 1.475225 6.782993 0
M  V30 38 H 3.113436 2.035910 5.161657 0
M  V30 39 H 2.641768 0.354075 3.126893 0
M  V30 40 H 1.185669 -3.903367 2.774564 0
M  V30 41 H 0.283659 -4.453282 0.476314 0
M  V30 42 H -1.997381 -0.979323 -1.328944 0
M  V30 43 H -4.203787 -1.285556 -3.184037 0
M  V30 44 H -3.751080 1.776232 -4.973666 0
M  V30 45 H -5.129421 3.733773 -4.176484 0
M  V30 46 H -6.366332 1.816267 -0.737327 0
M  V30 47 H -5.102038 -0.183183 -1.339557 0
M  V30 48 H -2.099745 -3.547039 -6.636842 0
M  V30 49 H 0.538022 -4.226424 -2.434615 0
M  V30 50 H -0.173600 -0.290667 -0.310110 0
M  V30 51 H 0.697290 0.192193 1.877175 0
M  V30 52 H 0.421623 -2.556904 5.166132 0
M  V30 END ATOM
M  V30 BEGIN BOND
M  V30 1 1 1 2
M  V30 2 1 2 3
M  V30 3 2 3 4
M  V30 4 1 3 5
M  V30 5 1 5 6
M  V30 6 1 6 7
M  V30 7 2 7 8
M  V30 8 1 8 9
M  V30 9 2 9 10
M  V30 10 1 10 11
M  V30 11 2 11 12
M  V30 12 1 12 13
M  V30 13 1 13 14
M  V30 14 2 14 15
M  V30 15 1 15 16
M  V30 16 1 16 17
M  V30 17 1 17 18
M  V30 18 2 18 19
M  V30 19 1 19 20
M  V30 20 2 20 21
M  V30 21 1 21 22
M  V30 22 2 22 23
M  V30 23 2 16 24
M  V30 24 1 24 25
M  V30 25 2 25 26
M  V30 26 1 26 27
M  V30 27 1 27 28
M  V30 28 1 12 29
M  V30 29 2 29 30
M  V30 30 1 8 31
M  V30 31 2 31 32
M  V30 32 1 32 6
M  V30 33 1 30 9
M  V30 34 2 28 13
M  V30 35 1 27 15
M  V30 36 1 23 18
M  V30 37 1 1 33
M  V30 38 1 1 34
M  V30 39 1 1 35
M  V30 40 1 2 36
M  V30 41 1 5 37
M  V30 42 1 5 38
M  V30 43 1 7 39
M  V30 44 1 10 40
M  V30 45 1 11 41
M  V30 46 1 14 42
M  V30 47 1 17 43
M  V30 48 1 19 44
M  V30 49 1 20 45
M  V30 50 1 22 46
M  V30 51 1 23 47
M  V30 52 1 25 48
M  V30 53 1 28 49
M  V30 54 1 29 50
M  V30 55 1 30 51
M  V30 56 1 31 52
M  V30 END BOND
M  V30 END CTAB
M  END
>  <Dataset>  (972) 
ChEMBL_Kinases

>  <Ligand_Instance>  (972) 
nan

>  <PDB_ID>  (972) 
nan

>  <Standardized_SMILES>  (972) 
CNC(=O)Cn1cc(-c2ccc(-c3cc4c(Nc5ccncc5)ncnn4c3)cc2)cn1

>  <Name>  (972) 
nan

>  <Pocket>  (972) 
nan

>  <ATP_Site>  (972) 
nan

>  <Peripheral>  (972) 
nan

>  <Num_H_Atoms_ProtBoundConf>  (972) 
nan

>  <Num_Resolved_Atoms>  (972) 
nan

>  <Num_Not_Resolved_Atoms>  (972) 
nan

$$$$
CHEMBL3326802
     RDKit          3D

  0  0  0  0  0  0  0  0  0  0999 V3000
M  V30 BEGIN CTAB
M  V30 COUNTS 55 59 0 0 0
M  V30 BEGIN ATOM
M  V30 1 C 6.253606 3.060901 2.951941 0
M  V30 2 C 6.276556 1.592115 3.264300 0
M  V30 3 C 7.533438 1.276941 4.035205 0
M  V30 4 O 5.181216 1.301664 4.089879 0
M  V30 5 C 6.255789 0.731540 2.014789 0
M  V30 6 N 5.065282 0.972865 1.221830 0
M  V30 7 C 3.904527 0.274333 1.392021 0
M  V30 8 C 2.953188 0.740901 0.480857 0
M  V30 9 C 1.604271 0.166476 0.438859 0
M  V30 10 C 1.055017 -0.299691 1.619130 0
M  V30 11 C -0.209906 -0.853444 1.655127 0
M  V30 12 C -0.976499 -0.958180 0.485822 0
M  V30 13 C -2.312928 -1.548126 0.549437 0
M  V30 14 C -3.461854 -1.319579 -0.178395 0
M  V30 15 C -4.417881 -2.175005 0.329284 0
M  V30 16 C -5.731207 -2.315429 -0.074561 0
M  V30 17 N -6.334581 -1.568246 -1.126043 0
M  V30 18 C -6.284885 -2.094540 -2.466134 0
M  V30 19 C -6.824998 -1.471406 -3.576334 0
M  V30 20 C -6.726884 -2.056676 -4.822642 0
M  V30 21 N -6.102979 -3.243922 -4.974019 0
M  V30 22 C -5.554278 -3.906556 -3.937029 0
M  V30 23 C -5.666724 -3.303905 -2.717682 0
M  V30 24 N -6.488762 -3.235008 0.585610 0
M  V30 25 C -5.966268 -3.971295 1.589911 0
M  V30 26 N -4.678793 -3.800735 1.950702 0
M  V30 27 N -3.918250 -2.920007 1.333165 0
M  V30 28 C -2.631947 -2.543513 1.474707 0
M  V30 29 C -0.407778 -0.486073 -0.681651 0
M  V30 30 C 0.857135 0.068173 -0.720199 0
M  V30 31 C 3.605284 1.734221 -0.222319 0
M  V30 32 N 4.869527 1.845848 0.248757 0
M  V30 33 H 5.591558 3.594431 3.683327 0
M  V30 34 H 7.258467 3.471851 3.055823 0
M  V30 35 H 5.911744 3.222608 1.910824 0
M  V30 36 H 8.287172 2.072815 3.812612 0
M  V30 37 H 7.302812 1.238085 5.126721 0
M  V30 38 H 7.883259 0.284276 3.739721 0
M  V30 39 H 5.180157 0.359951 4.395916 0
M  V30 40 H 7.131844 0.985740 1.416858 0
M  V30 41 H 6.264282 -0.329272 2.383308 0
M  V30 42 H 3.760062 -0.525073 2.133569 0
M  V30 43 H 1.613645 -0.240930 2.561772 0
M  V30 44 H -0.635343 -1.220585 2.600976 0
M  V30 45 H -3.507233 -0.589136 -0.975269 0
M  V30 46 H -6.829324 -0.644873 -1.034819 0
M  V30 47 H -7.321942 -0.512545 -3.415399 0
M  V30 48 H -7.144056 -1.579379 -5.692333 0
M  V30 49 H -5.051939 -4.855816 -4.037699 0
M  V30 50 H -5.233070 -3.813636 -1.856648 0
M  V30 51 H -6.603212 -4.692805 2.089911 0
M  V30 52 H -1.997242 -2.995904 2.223877 0
M  V30 53 H -1.002679 -0.571393 -1.568030 0
M  V30 54 H 1.295010 0.438725 -1.655339 0
M  V30 55 H 3.073675 2.267286 -1.006753 0
M  V30 END ATOM
M  V30 BEGIN BOND
M  V30 1 1 1 2
M  V30 2 1 2 3
M  V30 3 1 2 4
M  V30 4 1 2 5
M  V30 5 1 5 6
M  V30 6 1 6 7
M  V30 7 2 7 8
M  V30 8 1 8 9
M  V30 9 2 9 10
M  V30 10 1 10 11
M  V30 11 2 11 12
M  V30 12 1 12 13
M  V30 13 1 13 14
M  V30 14 2 14 15
M  V30 15 1 15 16
M  V30 16 1 16 17
M  V30 17 1 17 18
M  V30 18 2 18 19
M  V30 19 1 19 20
M  V30 20 2 20 21
M  V30 21 1 21 22
M  V30 22 2 22 23
M  V30 23 2 16 24
M  V30 24 1 24 25
M  V30 25 2 25 26
M  V30 26 1 26 27
M  V30 27 1 27 28
M  V30 28 1 12 29
M  V30 29 2 29 30
M  V30 30 1 8 31
M  V30 31 2 31 32
M  V30 32 1 32 6
M  V30 33 1 30 9
M  V30 34 2 28 13
M  V30 35 1 27 15
M  V30 36 1 23 18
M  V30 37 1 1 33
M  V30 38 1 1 34
M  V30 39 1 1 35
M  V30 40 1 3 36
M  V30 41 1 3 37
M  V30 42 1 3 38
M  V30 43 1 4 39
M  V30 44 1 5 40
M  V30 45 1 5 41
M  V30 46 1 7 42
M  V30 47 1 10 43
M  V30 48 1 11 44
M  V30 49 1 14 45
M  V30 50 1 17 46
M  V30 51 1 19 47
M  V30 52 1 20 48
M  V30 53 1 22 49
M  V30 54 1 23 50
M  V30 55 1 25 51
M  V30 56 1 28 52
M  V30 57 1 29 53
M  V30 58 1 30 54
M  V30 59 1 31 55
M  V30 END BOND
M  V30 END CTAB
M  END
>  <Dataset>  (973) 
ChEMBL_Kinases

>  <Ligand_Instance>  (973) 
nan

>  <PDB_ID>  (973) 
nan

>  <Standardized_SMILES>  (973) 
CC(C)(O)Cn1cc(-c2ccc(-c3cc4c(Nc5ccncc5)ncnn4c3)cc2)cn1

>  <Name>  (973) 
nan

>  <Pocket>  (973) 
nan

>  <ATP_Site>  (973) 
nan

>  <Peripheral>  (973) 
nan

>  <Num_H_Atoms_ProtBoundConf>  (973) 
nan

>  <Num_Resolved_Atoms>  (973) 
nan

>  <Num_Not_Resolved_Atoms>  (973) 
nan

$$$$
CHEMBL3326801
     RDKit          3D

  0  0  0  0  0  0  0  0  0  0999 V3000
M  V30 BEGIN CTAB
M  V30 COUNTS 49 53 0 0 0
M  V30 BEGIN ATOM
M  V30 1 O 5.367460 -5.078219 5.030610 0
M  V30 2 C 4.219803 -5.859795 5.062453 0
M  V30 3 C 3.843799 -6.366964 3.681329 0
M  V30 4 N 3.610273 -5.192493 2.847601 0
M  V30 5 C 2.379896 -4.644851 2.766967 0
M  V30 6 C 2.392433 -3.538121 1.917621 0
M  V30 7 C 1.284376 -2.663362 1.554062 0
M  V30 8 C 1.563667 -1.321304 1.273796 0
M  V30 9 C 0.544925 -0.477207 0.931210 0
M  V30 10 C -0.774511 -0.872885 0.840969 0
M  V30 11 C -1.906958 -0.031525 0.484476 0
M  V30 12 C -1.966139 1.056426 -0.359886 0
M  V30 13 C -3.257283 1.517656 -0.370027 0
M  V30 14 C -3.828465 2.566795 -1.052269 0
M  V30 15 N -3.165621 3.470796 -1.902072 0
M  V30 16 C -1.902155 3.867239 -2.311286 0
M  V30 17 C -0.874077 4.166584 -1.403378 0
M  V30 18 C 0.410206 4.545703 -1.674014 0
M  V30 19 N 0.701579 4.636578 -2.963841 0
M  V30 20 C -0.183224 4.380336 -3.929220 0
M  V30 21 C -1.469973 4.000402 -3.616367 0
M  V30 22 N -5.132356 2.742234 -0.843253 0
M  V30 23 C -5.896237 1.995374 -0.044008 0
M  V30 24 N -5.275647 0.993180 0.588708 0
M  V30 25 N -3.993070 0.743326 0.443775 0
M  V30 26 C -3.170934 -0.210630 0.973364 0
M  V30 27 C -0.998293 -2.206539 1.126769 0
M  V30 28 C -0.013859 -3.105844 1.477946 0
M  V30 29 C 3.705645 -3.467640 1.503528 0
M  V30 30 N 4.405809 -4.470915 2.078011 0
M  V30 31 H 5.456650 -4.570134 4.204184 0
M  V30 32 H 3.417869 -5.210897 5.484509 0
M  V30 33 H 4.387917 -6.669840 5.771315 0
M  V30 34 H 4.742243 -6.923142 3.296545 0
M  V30 35 H 2.942237 -6.994626 3.753118 0
M  V30 36 H 1.426948 -4.926193 3.243196 0
M  V30 37 H 2.568054 -0.955185 1.325342 0
M  V30 38 H 0.730593 0.578628 0.706075 0
M  V30 39 H -1.136795 1.437768 -0.897407 0
M  V30 40 H -3.782895 4.127035 -2.470249 0
M  V30 41 H -1.154898 4.078778 -0.339954 0
M  V30 42 H 1.088840 4.741989 -0.868809 0
M  V30 43 H 0.048797 4.454356 -4.989711 0
M  V30 44 H -2.204193 3.787011 -4.404231 0
M  V30 45 H -6.947262 2.237521 0.044556 0
M  V30 46 H -3.496118 -0.984329 1.677973 0
M  V30 47 H -1.999805 -2.614141 1.083847 0
M  V30 48 H -0.248258 -4.149196 1.692752 0
M  V30 49 H 4.131908 -2.727188 0.818974 0
M  V30 END ATOM
M  V30 BEGIN BOND
M  V30 1 1 1 2
M  V30 2 1 2 3
M  V30 3 1 3 4
M  V30 4 1 4 5
M  V30 5 2 5 6
M  V30 6 1 6 7
M  V30 7 2 7 8
M  V30 8 1 8 9
M  V30 9 2 9 10
M  V30 10 1 10 11
M  V30 11 1 11 12
M  V30 12 2 12 13
M  V30 13 1 13 14
M  V30 14 1 14 15
M  V30 15 1 15 16
M  V30 16 2 16 17
M  V30 17 1 17 18
M  V30 18 2 18 19
M  V30 19 1 19 20
M  V30 20 2 20 21
M  V30 21 2 14 22
M  V30 22 1 22 23
M  V30 23 2 23 24
M  V30 24 1 24 25
M  V30 25 1 25 26
M  V30 26 1 10 27
M  V30 27 2 27 28
M  V30 28 1 6 29
M  V30 29 2 29 30
M  V30 30 1 30 4
M  V30 31 1 28 7
M  V30 32 2 26 11
M  V30 33 1 25 13
M  V30 34 1 21 16
M  V30 35 1 1 31
M  V30 36 1 2 32
M  V30 37 1 2 33
M  V30 38 1 3 34
M  V30 39 1 3 35
M  V30 40 1 5 36
M  V30 41 1 8 37
M  V30 42 1 9 38
M  V30 43 1 12 39
M  V30 44 1 15 40
M  V30 45 1 17 41
M  V30 46 1 18 42
M  V30 47 1 20 43
M  V30 48 1 21 44
M  V30 49 1 23 45
M  V30 50 1 26 46
M  V30 51 1 27 47
M  V30 52 1 28 48
M  V30 53 1 29 49
M  V30 END BOND
M  V30 END CTAB
M  END
>  <Dataset>  (974) 
ChEMBL_Kinases

>  <Ligand_Instance>  (974) 
nan

>  <PDB_ID>  (974) 
nan

>  <Standardized_SMILES>  (974) 
OCCn1cc(-c2ccc(-c3cc4c(Nc5ccncc5)ncnn4c3)cc2)cn1

>  <Name>  (974) 
nan

>  <Pocket>  (974) 
nan

>  <ATP_Site>  (974) 
nan

>  <Peripheral>  (974) 
nan

>  <Num_H_Atoms_ProtBoundConf>  (974) 
nan

>  <Num_Resolved_Atoms>  (974) 
nan

>  <Num_Not_Resolved_Atoms>  (974) 
nan

$$$$
CHEMBL3326800
     RDKit          3D

  0  0  0  0  0  0  0  0  0  0999 V3000
M  V30 BEGIN CTAB
M  V30 COUNTS 61 66 0 0 0
M  V30 BEGIN ATOM
M  V30 1 C 7.107752 -4.434322 -2.231283 0
M  V30 2 C 6.677311 -3.833043 -1.068184 0
M  V30 3 C 5.584740 -4.372924 -0.422300 0
M  V30 4 N 5.138767 -3.750936 0.780641 0
M  V30 5 C 5.538411 -2.634068 1.551745 0
M  V30 6 N 6.654634 -2.546816 2.292393 0
M  V30 7 C 6.900157 -1.412030 3.011707 0
M  V30 8 N 6.025017 -0.397552 2.971791 0
M  V30 9 N 4.918492 -0.449734 2.254776 0
M  V30 10 C 3.906876 0.447008 2.086255 0
M  V30 11 C 2.956612 -0.077901 1.240440 0
M  V30 12 C 1.671821 0.384531 0.724281 0
M  V30 13 C 0.850831 1.188052 1.492654 0
M  V30 14 C -0.383164 1.666905 1.078189 0
M  V30 15 C -0.837828 1.326111 -0.189720 0
M  V30 16 C -2.124346 1.745564 -0.734019 0
M  V30 17 C -2.638805 2.055649 -1.978289 0
M  V30 18 N -3.948876 2.361415 -1.866260 0
M  V30 19 N -4.303504 2.257415 -0.577232 0
M  V30 20 C -5.658487 2.522332 -0.125831 0
M  V30 21 C -6.487426 1.225280 -0.198882 0
M  V30 22 N -6.004670 0.186786 0.566653 0
M  V30 23 C -6.064601 0.322758 1.958118 0
M  V30 24 C -5.457970 -0.886264 2.652745 0
M  V30 25 O -6.036269 -2.018368 2.129397 0
M  V30 26 C -5.753544 -2.235547 0.803812 0
M  V30 27 C -5.386798 -0.951468 0.071389 0
M  V30 28 C -3.212921 1.884775 0.134465 0
M  V30 29 C -0.011566 0.512536 -0.975888 0
M  V30 30 C 1.213699 0.051684 -0.532044 0
M  V30 31 C 3.415128 -1.351796 0.879734 0
M  V30 32 C 4.628709 -1.566392 1.515612 0
M  V30 33 C 4.886306 -5.475882 -0.855571 0
M  V30 34 C 5.389428 -6.021413 -2.039968 0
M  V30 35 N 6.451003 -5.503077 -2.674546 0
M  V30 36 H 7.981149 -3.989378 -2.729874 0
M  V30 37 H 7.162658 -2.946441 -0.631996 0
M  V30 38 H 4.308409 -4.158486 1.305793 0
M  V30 39 H 7.831191 -1.431539 3.582516 0
M  V30 40 H 3.783338 1.431594 2.504723 0
M  V30 41 H 1.221838 1.442561 2.473479 0
M  V30 42 H -1.008880 2.294649 1.696880 0
M  V30 43 H -1.955881 2.011371 -2.823281 0
M  V30 44 H -5.630973 2.796191 0.958196 0
M  V30 45 H -6.147681 3.285105 -0.727253 0
M  V30 46 H -6.605903 0.947785 -1.274910 0
M  V30 47 H -7.521529 1.574298 0.110423 0
M  V30 48 H -7.124965 0.448921 2.260918 0
M  V30 49 H -5.472701 1.236846 2.248212 0
M  V30 50 H -5.672786 -0.806234 3.732023 0
M  V30 51 H -4.376689 -0.925094 2.452055 0
M  V30 52 H -4.878152 -2.909280 0.732820 0
M  V30 53 H -6.620593 -2.713488 0.259460 0
M  V30 54 H -4.255771 -0.883947 0.092018 0
M  V30 55 H -5.661414 -1.138165 -1.010667 0
M  V30 56 H -3.297321 1.744489 1.221441 0
M  V30 57 H -0.385316 0.252483 -1.976279 0
M  V30 58 H 1.827868 -0.571442 -1.156739 0
M  V30 59 H 2.931429 -2.079755 0.217959 0
M  V30 60 H 4.032107 -5.896312 -0.347503 0
M  V30 61 H 4.903835 -6.896616 -2.461765 0
M  V30 END ATOM
M  V30 BEGIN BOND
M  V30 1 2 1 2
M  V30 2 1 2 3
M  V30 3 1 3 4
M  V30 4 1 4 5
M  V30 5 2 5 6
M  V30 6 1 6 7
M  V30 7 2 7 8
M  V30 8 1 8 9
M  V30 9 1 9 10
M  V30 10 2 10 11
M  V30 11 1 11 12
M  V30 12 2 12 13
M  V30 13 1 13 14
M  V30 14 2 14 15
M  V30 15 1 15 16
M  V30 16 1 16 17
M  V30 17 2 17 18
M  V30 18 1 18 19
M  V30 19 1 19 20
M  V30 20 1 20 21
M  V30 21 1 21 22
M  V30 22 1 22 23
M  V30 23 1 23 24
M  V30 24 1 24 25
M  V30 25 1 25 26
M  V30 26 1 26 27
M  V30 27 1 19 28
M  V30 28 1 15 29
M  V30 29 2 29 30
M  V30 30 1 11 31
M  V30 31 2 31 32
M  V30 32 2 3 33
M  V30 33 1 33 34
M  V30 34 2 34 35
M  V30 35 1 35 1
M  V30 36 1 32 5
M  V30 37 1 32 9
M  V30 38 1 30 12
M  V30 39 2 28 16
M  V30 40 1 27 22
M  V30 41 1 1 36
M  V30 42 1 2 37
M  V30 43 1 4 38
M  V30 44 1 7 39
M  V30 45 1 10 40
M  V30 46 1 13 41
M  V30 47 1 14 42
M  V30 48 1 17 43
M  V30 49 1 20 44
M  V30 50 1 20 45
M  V30 51 1 21 46
M  V30 52 1 21 47
M  V30 53 1 23 48
M  V30 54 1 23 49
M  V30 55 1 24 50
M  V30 56 1 24 51
M  V30 57 1 26 52
M  V30 58 1 26 53
M  V30 59 1 27 54
M  V30 60 1 27 55
M  V30 61 1 28 56
M  V30 62 1 29 57
M  V30 63 1 30 58
M  V30 64 1 31 59
M  V30 65 1 33 60
M  V30 66 1 34 61
M  V30 END BOND
M  V30 END CTAB
M  END
>  <Dataset>  (975) 
ChEMBL_Kinases

>  <Ligand_Instance>  (975) 
nan

>  <PDB_ID>  (975) 
nan

>  <Standardized_SMILES>  (975) 
c1cc(Nc2ncnn3cc(-c4ccc(-c5cnn(CCN6CCOCC6)c5)cc4)cc23)ccn1

>  <Name>  (975) 
nan

>  <Pocket>  (975) 
nan

>  <ATP_Site>  (975) 
nan

>  <Peripheral>  (975) 
nan

>  <Num_H_Atoms_ProtBoundConf>  (975) 
nan

>  <Num_Resolved_Atoms>  (975) 
nan

>  <Num_Not_Resolved_Atoms>  (975) 
nan

$$$$
CHEMBL3326799
     RDKit          3D

  0  0  0  0  0  0  0  0  0  0999 V3000
M  V30 BEGIN CTAB
M  V30 COUNTS 47 51 0 0 0
M  V30 BEGIN ATOM
M  V30 1 C -0.926783 -5.260617 0.403678 0
M  V30 2 C -0.621199 -4.645375 -0.784738 0
M  V30 3 C -1.473776 -4.376607 -1.857604 0
M  V30 4 N -1.031161 -3.713361 -3.020657 0
M  V30 5 C -0.340743 -2.576769 -3.444570 0
M  V30 6 N -0.010406 -2.498602 -4.761911 0
M  V30 7 C 0.643783 -1.440184 -5.251967 0
M  V30 8 N 0.980887 -0.436100 -4.431158 0
M  V30 9 N 0.707141 -0.414290 -3.141414 0
M  V30 10 C 0.931596 0.465494 -2.150213 0
M  V30 11 C 0.400562 -0.044662 -0.977484 0
M  V30 12 C 0.436174 0.603844 0.330018 0
M  V30 13 C 1.540884 1.394538 0.582512 0
M  V30 14 C 1.689550 2.060005 1.783713 0
M  V30 15 C 0.704344 1.929906 2.759164 0
M  V30 16 N 0.678908 2.528591 4.052509 0
M  V30 17 C -0.406128 2.374842 5.027257 0
M  V30 18 C 0.243445 1.837529 6.299306 0
M  V30 19 O 1.570241 1.471911 6.090891 0
M  V30 20 C 2.343324 2.585793 5.753457 0
M  V30 21 C 1.729820 3.376513 4.594196 0
M  V30 22 N -0.359526 1.153316 2.484304 0
M  V30 23 C -0.518820 0.499206 1.320221 0
M  V30 24 C -0.137927 -1.259565 -1.349433 0
M  V30 25 C 0.050336 -1.495040 -2.691798 0
M  V30 26 C -2.780915 -4.816077 -1.621199 0
M  V30 27 C -3.091443 -5.431436 -0.434903 0
M  V30 28 N -2.190146 -5.634025 0.519631 0
M  V30 29 H -0.146972 -5.390717 1.129327 0
M  V30 30 H 0.405141 -4.310599 -0.946856 0
M  V30 31 H -1.381120 -4.370524 -3.755541 0
M  V30 32 H 0.883936 -1.425805 -6.306009 0
M  V30 33 H 1.443400 1.386131 -2.322607 0
M  V30 34 H 2.335076 1.531861 -0.135331 0
M  V30 35 H 2.507794 2.690265 2.064371 0
M  V30 36 H -0.827741 3.393946 5.189410 0
M  V30 37 H -1.203141 1.726878 4.645089 0
M  V30 38 H -0.298950 0.910417 6.629621 0
M  V30 39 H 0.211833 2.629940 7.069997 0
M  V30 40 H 3.374400 2.245909 5.527358 0
M  V30 41 H 2.376165 3.213309 6.681859 0
M  V30 42 H 1.268168 4.296515 4.987149 0
M  V30 43 H 2.496823 3.661725 3.855560 0
M  V30 44 H -1.370296 -0.123335 1.098491 0
M  V30 45 H -0.627686 -1.869484 -0.624656 0
M  V30 46 H -3.486673 -4.624409 -2.443316 0
M  V30 47 H -4.132091 -5.755070 -0.304125 0
M  V30 END ATOM
M  V30 BEGIN BOND
M  V30 1 2 1 2
M  V30 2 1 2 3
M  V30 3 1 3 4
M  V30 4 1 4 5
M  V30 5 2 5 6
M  V30 6 1 6 7
M  V30 7 2 7 8
M  V30 8 1 8 9
M  V30 9 1 9 10
M  V30 10 2 10 11
M  V30 11 1 11 12
M  V30 12 2 12 13
M  V30 13 1 13 14
M  V30 14 2 14 15
M  V30 15 1 15 16
M  V30 16 1 16 17
M  V30 17 1 17 18
M  V30 18 1 18 19
M  V30 19 1 19 20
M  V30 20 1 20 21
M  V30 21 1 15 22
M  V30 22 2 22 23
M  V30 23 1 11 24
M  V30 24 2 24 25
M  V30 25 2 3 26
M  V30 26 1 26 27
M  V30 27 2 27 28
M  V30 28 1 28 1
M  V30 29 1 25 5
M  V30 30 1 25 9
M  V30 31 1 23 12
M  V30 32 1 21 16
M  V30 33 1 1 29
M  V30 34 1 2 30
M  V30 35 1 4 31
M  V30 36 1 7 32
M  V30 37 1 10 33
M  V30 38 1 13 34
M  V30 39 1 14 35
M  V30 40 1 17 36
M  V30 41 1 17 37
M  V30 42 1 18 38
M  V30 43 1 18 39
M  V30 44 1 20 40
M  V30 45 1 20 41
M  V30 46 1 21 42
M  V30 47 1 21 43
M  V30 48 1 23 44
M  V30 49 1 24 45
M  V30 50 1 26 46
M  V30 51 1 27 47
M  V30 END BOND
M  V30 END CTAB
M  END
>  <Dataset>  (976) 
ChEMBL_Kinases

>  <Ligand_Instance>  (976) 
nan

>  <PDB_ID>  (976) 
nan

>  <Standardized_SMILES>  (976) 
c1cc(Nc2ncnn3cc(-c4ccc(N5CCOCC5)nc4)cc23)ccn1

>  <Name>  (976) 
nan

>  <Pocket>  (976) 
nan

>  <ATP_Site>  (976) 
nan

>  <Peripheral>  (976) 
nan

>  <Num_H_Atoms_ProtBoundConf>  (976) 
nan

>  <Num_Resolved_Atoms>  (976) 
nan

>  <Num_Not_Resolved_Atoms>  (976) 
nan

$$$$
CHEMBL3326766
     RDKit          3D

  0  0  0  0  0  0  0  0  0  0999 V3000
M  V30 BEGIN CTAB
M  V30 COUNTS 51 55 0 0 0
M  V30 BEGIN ATOM
M  V30 1 C 0.377062 -4.777765 -2.258503 0
M  V30 2 N 1.328211 -5.643776 -1.593801 0
M  V30 3 C 2.510720 -4.966840 -1.127976 0
M  V30 4 C 2.449986 -4.566142 0.329311 0
M  V30 5 N 1.043387 -4.447412 0.653081 0
M  V30 6 C 0.359993 -3.247623 0.947802 0
M  V30 7 C 1.020978 -2.066263 1.198799 0
M  V30 8 C 0.377821 -0.878043 1.476335 0
M  V30 9 C -1.018801 -0.854247 1.508748 0
M  V30 10 C -1.678792 0.409367 1.808649 0
M  V30 11 C -1.124143 1.634291 1.438447 0
M  V30 12 C -1.982741 2.596849 1.859349 0
M  V30 13 C -2.028403 3.968118 1.803926 0
M  V30 14 N -0.986071 4.712448 1.221170 0
M  V30 15 C 0.290135 4.406514 0.691247 0
M  V30 16 C 1.232343 4.123541 1.687082 0
M  V30 17 C 2.547805 3.786276 1.338346 0
M  V30 18 N 2.880804 3.741839 0.017239 0
M  V30 19 C 1.965507 4.016021 -0.925474 0
M  V30 20 C 0.658768 4.353602 -0.646222 0
M  V30 21 N -3.046731 4.680782 2.317634 0
M  V30 22 C -4.080360 4.079290 2.917094 0
M  V30 23 N -4.068488 2.721438 2.991017 0
M  V30 24 N -3.053858 2.060206 2.476752 0
M  V30 25 C -2.883175 0.710760 2.455190 0
M  V30 26 C -1.658766 -2.062821 1.251829 0
M  V30 27 N -0.967636 -3.191770 0.986338 0
M  V30 28 C 0.351503 -5.735522 0.657477 0
M  V30 29 C 0.716128 -6.479422 -0.596867 0
M  V30 30 H 0.604008 -3.725460 -2.023120 0
M  V30 31 H 0.382498 -4.998144 -3.339506 0
M  V30 32 H -0.633572 -5.031820 -1.841882 0
M  V30 33 H 3.411791 -5.564146 -1.379828 0
M  V30 34 H 2.593378 -4.015053 -1.715663 0
M  V30 35 H 2.881906 -5.416810 0.918894 0
M  V30 36 H 3.033490 -3.652388 0.497146 0
M  V30 37 H 2.096389 -1.994954 1.193149 0
M  V30 38 H 0.931285 0.047300 1.672311 0
M  V30 39 H -0.197357 1.796101 0.914833 0
M  V30 40 H -1.006222 5.743691 1.075415 0
M  V30 41 H 1.045240 4.138569 2.763537 0
M  V30 42 H 3.292165 3.562364 2.087702 0
M  V30 43 H 2.229941 3.982389 -1.984758 0
M  V30 44 H -0.128066 4.587224 -1.348547 0
M  V30 45 H -4.893724 4.658627 3.328524 0
M  V30 46 H -3.473551 -0.130948 2.825295 0
M  V30 47 H -2.746880 -2.038755 1.279895 0
M  V30 48 H -0.715662 -5.607691 0.838035 0
M  V30 49 H 0.845655 -6.295436 1.507005 0
M  V30 50 H -0.219025 -6.893135 -1.025866 0
M  V30 51 H 1.380830 -7.361924 -0.401926 0
M  V30 END ATOM
M  V30 BEGIN BOND
M  V30 1 1 1 2
M  V30 2 1 2 3
M  V30 3 1 3 4
M  V30 4 1 4 5
M  V30 5 1 5 6
M  V30 6 2 6 7
M  V30 7 1 7 8
M  V30 8 2 8 9
M  V30 9 1 9 10
M  V30 10 1 10 11
M  V30 11 2 11 12
M  V30 12 1 12 13
M  V30 13 1 13 14
M  V30 14 1 14 15
M  V30 15 2 15 16
M  V30 16 1 16 17
M  V30 17 2 17 18
M  V30 18 1 18 19
M  V30 19 2 19 20
M  V30 20 2 13 21
M  V30 21 1 21 22
M  V30 22 2 22 23
M  V30 23 1 23 24
M  V30 24 1 24 25
M  V30 25 1 9 26
M  V30 26 2 26 27
M  V30 27 1 5 28
M  V30 28 1 28 29
M  V30 29 1 29 2
M  V30 30 1 27 6
M  V30 31 2 25 10
M  V30 32 1 24 12
M  V30 33 1 20 15
M  V30 34 1 1 30
M  V30 35 1 1 31
M  V30 36 1 1 32
M  V30 37 1 3 33
M  V30 38 1 3 34
M  V30 39 1 4 35
M  V30 40 1 4 36
M  V30 41 1 7 37
M  V30 42 1 8 38
M  V30 43 1 11 39
M  V30 44 1 14 40
M  V30 45 1 16 41
M  V30 46 1 17 42
M  V30 47 1 19 43
M  V30 48 1 20 44
M  V30 49 1 22 45
M  V30 50 1 25 46
M  V30 51 1 26 47
M  V30 52 1 28 48
M  V30 53 1 28 49
M  V30 54 1 29 50
M  V30 55 1 29 51
M  V30 END BOND
M  V30 END CTAB
M  END
>  <Dataset>  (977) 
ChEMBL_Kinases

>  <Ligand_Instance>  (977) 
nan

>  <PDB_ID>  (977) 
nan

>  <Standardized_SMILES>  (977) 
CN1CCN(c2ccc(-c3cc4c(Nc5ccncc5)ncnn4c3)cn2)CC1

>  <Name>  (977) 
nan

>  <Pocket>  (977) 
nan

>  <ATP_Site>  (977) 
nan

>  <Peripheral>  (977) 
nan

>  <Num_H_Atoms_ProtBoundConf>  (977) 
nan

>  <Num_Resolved_Atoms>  (977) 
nan

>  <Num_Not_Resolved_Atoms>  (977) 
nan

$$$$
CHEMBL3326765
     RDKit          3D

  0  0  0  0  0  0  0  0  0  0999 V3000
M  V30 BEGIN CTAB
M  V30 COUNTS 48 52 0 0 0
M  V30 BEGIN ATOM
M  V30 1 C -0.188884 -5.257682 0.187061 0
M  V30 2 C 0.167460 -4.664073 -1.020498 0
M  V30 3 C -0.768786 -4.480506 -2.045303 0
M  V30 4 N -0.248847 -3.846135 -3.197341 0
M  V30 5 C 0.437734 -2.686046 -3.608704 0
M  V30 6 N 0.930517 -2.673108 -4.883803 0
M  V30 7 C 1.579481 -1.577050 -5.287721 0
M  V30 8 N 1.744177 -0.522794 -4.473965 0
M  V30 9 N 1.280107 -0.501946 -3.237851 0
M  V30 10 C 1.342356 0.461070 -2.298420 0
M  V30 11 C 0.686889 -0.024075 -1.187327 0
M  V30 12 C 0.461385 0.607369 0.125879 0
M  V30 13 C 1.411836 1.469638 0.625936 0
M  V30 14 C 1.214562 2.075687 1.847998 0
M  V30 15 C 0.076178 1.832389 2.581830 0
M  V30 16 N -0.204740 2.418020 3.867576 0
M  V30 17 C -1.454502 2.340745 4.598002 0
M  V30 18 C -1.107858 1.826304 5.995414 0
M  V30 19 O 0.177569 1.235597 5.971859 0
M  V30 20 C 1.132876 2.262019 5.809253 0
M  V30 21 C 0.745711 3.185334 4.646802 0
M  V30 22 C -0.876922 0.970171 2.084248 0
M  V30 23 C -0.692831 0.349082 0.850656 0
M  V30 24 C 0.239746 -1.292935 -1.496212 0
M  V30 25 C 0.616850 -1.586404 -2.783582 0
M  V30 26 C -2.066561 -4.894761 -1.853596 0
M  V30 27 C -2.366263 -5.482419 -0.624236 0
M  V30 28 N -1.464843 -5.661060 0.365878 0
M  V30 29 H 0.563841 -5.378492 0.946097 0
M  V30 30 H 1.219474 -4.350992 -1.121303 0
M  V30 31 H -0.513693 -4.554539 -3.935107 0
M  V30 32 H 1.974161 -1.553448 -6.292638 0
M  V30 33 H 1.782278 1.438922 -2.298354 0
M  V30 34 H 2.303442 1.657070 0.048896 0
M  V30 35 H 1.961115 2.749353 2.234620 0
M  V30 36 H -1.874909 3.391042 4.687796 0
M  V30 37 H -2.243234 1.764093 4.127540 0
M  V30 38 H -1.835087 1.079825 6.353179 0
M  V30 39 H -1.011668 2.707637 6.643927 0
M  V30 40 H 2.101432 1.757245 5.644570 0
M  V30 41 H 1.240078 2.840445 6.737876 0
M  V30 42 H 0.278825 4.078488 5.095013 0
M  V30 43 H 1.650464 3.489795 4.076966 0
M  V30 44 H -1.816663 0.666744 2.517863 0
M  V30 45 H -1.404988 -0.347957 0.389733 0
M  V30 46 H -0.315621 -1.924414 -0.835293 0
M  V30 47 H -2.753218 -4.744888 -2.645882 0
M  V30 48 H -3.366401 -5.815572 -0.440606 0
M  V30 END ATOM
M  V30 BEGIN BOND
M  V30 1 2 1 2
M  V30 2 1 2 3
M  V30 3 1 3 4
M  V30 4 1 4 5
M  V30 5 2 5 6
M  V30 6 1 6 7
M  V30 7 2 7 8
M  V30 8 1 8 9
M  V30 9 1 9 10
M  V30 10 2 10 11
M  V30 11 1 11 12
M  V30 12 2 12 13
M  V30 13 1 13 14
M  V30 14 2 14 15
M  V30 15 1 15 16
M  V30 16 1 16 17
M  V30 17 1 17 18
M  V30 18 1 18 19
M  V30 19 1 19 20
M  V30 20 1 20 21
M  V30 21 1 15 22
M  V30 22 2 22 23
M  V30 23 1 11 24
M  V30 24 2 24 25
M  V30 25 2 3 26
M  V30 26 1 26 27
M  V30 27 2 27 28
M  V30 28 1 28 1
M  V30 29 1 25 5
M  V30 30 1 25 9
M  V30 31 1 23 12
M  V30 32 1 21 16
M  V30 33 1 1 29
M  V30 34 1 2 30
M  V30 35 1 4 31
M  V30 36 1 7 32
M  V30 37 1 10 33
M  V30 38 1 13 34
M  V30 39 1 14 35
M  V30 40 1 17 36
M  V30 41 1 17 37
M  V30 42 1 18 38
M  V30 43 1 18 39
M  V30 44 1 20 40
M  V30 45 1 20 41
M  V30 46 1 21 42
M  V30 47 1 21 43
M  V30 48 1 22 44
M  V30 49 1 23 45
M  V30 50 1 24 46
M  V30 51 1 26 47
M  V30 52 1 27 48
M  V30 END BOND
M  V30 END CTAB
M  END
>  <Dataset>  (978) 
ChEMBL_Kinases

>  <Ligand_Instance>  (978) 
nan

>  <PDB_ID>  (978) 
nan

>  <Standardized_SMILES>  (978) 
c1cc(Nc2ncnn3cc(-c4ccc(N5CCOCC5)cc4)cc23)ccn1

>  <Name>  (978) 
nan

>  <Pocket>  (978) 
nan

>  <ATP_Site>  (978) 
nan

>  <Peripheral>  (978) 
nan

>  <Num_H_Atoms_ProtBoundConf>  (978) 
nan

>  <Num_Resolved_Atoms>  (978) 
nan

>  <Num_Not_Resolved_Atoms>  (978) 
nan

$$$$
CHEMBL3326764
     RDKit          3D

  0  0  0  0  0  0  0  0  0  0999 V3000
M  V30 BEGIN CTAB
M  V30 COUNTS 52 56 0 0 0
M  V30 BEGIN ATOM
M  V30 1 C 0.652359 -5.578916 2.289737 0
M  V30 2 N 1.454164 -6.340482 1.377643 0
M  V30 3 C 2.544880 -5.564086 0.815961 0
M  V30 4 C 2.215257 -5.188134 -0.636985 0
M  V30 5 N 0.827824 -4.777137 -0.601220 0
M  V30 6 C 0.337328 -3.447336 -0.611360 0
M  V30 7 C 1.174839 -2.356898 -0.611109 0
M  V30 8 C 0.703804 -1.058274 -0.621233 0
M  V30 9 C -0.651733 -0.797713 -0.632226 0
M  V30 10 C -1.148500 0.572707 -0.642318 0
M  V30 11 C -0.603584 1.712705 -0.082408 0
M  V30 12 C -1.389613 2.815940 -0.317776 0
M  V30 13 C -1.243874 4.135206 0.044123 0
M  V30 14 N -0.151346 4.635677 0.792234 0
M  V30 15 C 0.105846 4.797068 2.179493 0
M  V30 16 C -0.843077 4.392165 3.089057 0
M  V30 17 C -0.428566 4.625213 4.399368 0
M  V30 18 N 0.730961 5.168521 4.765161 0
M  V30 19 C 1.619529 5.544392 3.816855 0
M  V30 20 C 1.323389 5.364505 2.474805 0
M  V30 21 N -2.218229 4.968159 -0.357924 0
M  V30 22 C -3.279023 4.522073 -1.078660 0
M  V30 23 N -3.370870 3.202580 -1.408880 0
M  V30 24 N -2.417935 2.354592 -1.022453 0
M  V30 25 C -2.326697 1.031491 -1.244145 0
M  V30 26 C -1.488264 -1.893957 -0.632565 0
M  V30 27 C -1.013980 -3.193432 -0.622435 0
M  V30 28 C 0.005018 -5.964552 -0.547404 0
M  V30 29 C 0.659756 -6.980003 0.366404 0
M  V30 30 H 1.272028 -4.753333 2.741841 0
M  V30 31 H -0.172833 -5.090836 1.737590 0
M  V30 32 H 0.287434 -6.176711 3.150423 0
M  V30 33 H 2.564509 -4.602437 1.372753 0
M  V30 34 H 3.528443 -6.023305 0.914728 0
M  V30 35 H 2.847420 -4.336035 -0.954465 0
M  V30 36 H 2.415114 -6.041613 -1.316239 0
M  V30 37 H 2.245731 -2.445589 -0.602173 0
M  V30 38 H 1.374098 -0.207448 -0.620632 0
M  V30 39 H 0.335304 1.698766 0.470216 0
M  V30 40 H 0.489095 4.885131 0.011666 0
M  V30 41 H -1.784514 3.952112 2.835058 0
M  V30 42 H -1.096795 4.346472 5.228035 0
M  V30 43 H 2.559804 5.985683 4.139812 0
M  V30 44 H 2.032733 5.664296 1.718186 0
M  V30 45 H -4.021250 5.255879 -1.363914 0
M  V30 46 H -3.013447 0.384565 -1.785504 0
M  V30 47 H -2.551116 -1.673625 -0.641416 0
M  V30 48 H -1.767474 -3.943248 -0.624745 0
M  V30 49 H -1.044765 -5.802357 -0.326302 0
M  V30 50 H 0.074261 -6.407083 -1.584701 0
M  V30 51 H -0.179963 -7.490195 0.912085 0
M  V30 52 H 1.190859 -7.777709 -0.168352 0
M  V30 END ATOM
M  V30 BEGIN BOND
M  V30 1 1 1 2
M  V30 2 1 2 3
M  V30 3 1 3 4
M  V30 4 1 4 5
M  V30 5 1 5 6
M  V30 6 2 6 7
M  V30 7 1 7 8
M  V30 8 2 8 9
M  V30 9 1 9 10
M  V30 10 1 10 11
M  V30 11 2 11 12
M  V30 12 1 12 13
M  V30 13 1 13 14
M  V30 14 1 14 15
M  V30 15 2 15 16
M  V30 16 1 16 17
M  V30 17 2 17 18
M  V30 18 1 18 19
M  V30 19 2 19 20
M  V30 20 2 13 21
M  V30 21 1 21 22
M  V30 22 2 22 23
M  V30 23 1 23 24
M  V30 24 1 24 25
M  V30 25 1 9 26
M  V30 26 2 26 27
M  V30 27 1 5 28
M  V30 28 1 28 29
M  V30 29 1 29 2
M  V30 30 1 27 6
M  V30 31 2 25 10
M  V30 32 1 24 12
M  V30 33 1 20 15
M  V30 34 1 1 30
M  V30 35 1 1 31
M  V30 36 1 1 32
M  V30 37 1 3 33
M  V30 38 1 3 34
M  V30 39 1 4 35
M  V30 40 1 4 36
M  V30 41 1 7 37
M  V30 42 1 8 38
M  V30 43 1 11 39
M  V30 44 1 14 40
M  V30 45 1 16 41
M  V30 46 1 17 42
M  V30 47 1 19 43
M  V30 48 1 20 44
M  V30 49 1 22 45
M  V30 50 1 25 46
M  V30 51 1 26 47
M  V30 52 1 27 48
M  V30 53 1 28 49
M  V30 54 1 28 50
M  V30 55 1 29 51
M  V30 56 1 29 52
M  V30 END BOND
M  V30 END CTAB
M  END
>  <Dataset>  (979) 
ChEMBL_Kinases

>  <Ligand_Instance>  (979) 
nan

>  <PDB_ID>  (979) 
nan

>  <Standardized_SMILES>  (979) 
CN1CCN(c2ccc(-c3cc4c(Nc5ccncc5)ncnn4c3)cc2)CC1

>  <Name>  (979) 
nan

>  <Pocket>  (979) 
nan

>  <ATP_Site>  (979) 
nan

>  <Peripheral>  (979) 
nan

>  <Num_H_Atoms_ProtBoundConf>  (979) 
nan

>  <Num_Resolved_Atoms>  (979) 
nan

>  <Num_Not_Resolved_Atoms>  (979) 
nan

$$$$
CHEMBL3326763
     RDKit          3D

  0  0  0  0  0  0  0  0  0  0999 V3000
M  V30 BEGIN CTAB
M  V30 COUNTS 43 46 0 0 0
M  V30 BEGIN ATOM
M  V30 1 C -0.574136 -5.550017 3.091904 0
M  V30 2 N -0.028063 -6.387581 2.026959 0
M  V30 3 S -0.354450 -5.730036 0.481018 0
M  V30 4 O 0.216196 -6.596362 -0.586677 0
M  V30 5 O -1.819846 -5.572794 0.263510 0
M  V30 6 C 0.402311 -4.160865 0.340092 0
M  V30 7 C -0.353003 -3.076117 0.796486 0
M  V30 8 C 0.228740 -1.822769 0.674449 0
M  V30 9 C 1.495828 -1.600060 0.133668 0
M  V30 10 C 1.926837 -0.212445 0.086148 0
M  V30 11 C 1.035890 0.828898 -0.098736 0
M  V30 12 C 1.702060 2.053682 -0.095749 0
M  V30 13 C 1.266107 3.379284 -0.232560 0
M  V30 14 N -0.134826 3.505238 -0.446645 0
M  V30 15 C -0.978717 3.092040 0.621331 0
M  V30 16 C -0.512352 2.699889 1.854175 0
M  V30 17 C -1.400219 2.284257 2.853769 0
M  V30 18 N -2.742893 2.247502 2.662776 0
M  V30 19 C -3.219229 2.632600 1.448893 0
M  V30 20 C -2.350756 3.038731 0.471668 0
M  V30 21 N 2.213407 4.344138 -0.166185 0
M  V30 22 C 3.513851 4.041993 0.021396 0
M  V30 23 N 3.881507 2.742066 0.147124 0
M  V30 24 N 2.997392 1.752765 0.091506 0
M  V30 25 C 3.144324 0.413364 0.200292 0
M  V30 26 C 2.218501 -2.681955 -0.306998 0
M  V30 27 C 1.655509 -3.945830 -0.194542 0
M  V30 28 H -0.267268 -5.931372 4.077873 0
M  V30 29 H -0.182506 -4.518926 2.880491 0
M  V30 30 H -1.677926 -5.510868 2.996915 0
M  V30 31 H 0.975855 -6.592895 2.191425 0
M  V30 32 H -1.347308 -3.180755 1.232494 0
M  V30 33 H -0.376903 -0.981535 1.039831 0
M  V30 34 H -0.049093 0.711466 -0.226963 0
M  V30 35 H -0.586563 3.875197 -1.313307 0
M  V30 36 H 0.562647 2.713358 2.051668 0
M  V30 37 H -1.045836 1.972176 3.825335 0
M  V30 38 H -4.289325 2.596130 1.315267 0
M  V30 39 H -2.817909 3.331676 -0.477428 0
M  V30 40 H 4.185432 4.890791 0.056879 0
M  V30 41 H 4.066128 -0.169833 0.355902 0
M  V30 42 H 3.187567 -2.498556 -0.720214 0
M  V30 43 H 2.208005 -4.805050 -0.536449 0
M  V30 END ATOM
M  V30 BEGIN BOND
M  V30 1 1 1 2
M  V30 2 1 2 3
M  V30 3 2 3 4
M  V30 4 2 3 5
M  V30 5 1 3 6
M  V30 6 2 6 7
M  V30 7 1 7 8
M  V30 8 2 8 9
M  V30 9 1 9 10
M  V30 10 1 10 11
M  V30 11 2 11 12
M  V30 12 1 12 13
M  V30 13 1 13 14
M  V30 14 1 14 15
M  V30 15 2 15 16
M  V30 16 1 16 17
M  V30 17 2 17 18
M  V30 18 1 18 19
M  V30 19 2 19 20
M  V30 20 2 13 21
M  V30 21 1 21 22
M  V30 22 2 22 23
M  V30 23 1 23 24
M  V30 24 1 24 25
M  V30 25 1 9 26
M  V30 26 2 26 27
M  V30 27 1 27 6
M  V30 28 2 25 10
M  V30 29 1 24 12
M  V30 30 1 20 15
M  V30 31 1 1 28
M  V30 32 1 1 29
M  V30 33 1 1 30
M  V30 34 1 2 31
M  V30 35 1 7 32
M  V30 36 1 8 33
M  V30 37 1 11 34
M  V30 38 1 14 35
M  V30 39 1 16 36
M  V30 40 1 17 37
M  V30 41 1 19 38
M  V30 42 1 20 39
M  V30 43 1 22 40
M  V30 44 1 25 41
M  V30 45 1 26 42
M  V30 46 1 27 43
M  V30 END BOND
M  V30 END CTAB
M  END
>  <Dataset>  (980) 
ChEMBL_Kinases

>  <Ligand_Instance>  (980) 
nan

>  <PDB_ID>  (980) 
nan

>  <Standardized_SMILES>  (980) 
CNS(=O)(=O)c1ccc(-c2cc3c(Nc4ccncc4)ncnn3c2)cc1

>  <Name>  (980) 
nan

>  <Pocket>  (980) 
nan

>  <ATP_Site>  (980) 
nan

>  <Peripheral>  (980) 
nan

>  <Num_H_Atoms_ProtBoundConf>  (980) 
nan

>  <Num_Resolved_Atoms>  (980) 
nan

>  <Num_Not_Resolved_Atoms>  (980) 
nan

$$$$
CHEMBL3326762
     RDKit          3D

  0  0  0  0  0  0  0  0  0  0999 V3000
M  V30 BEGIN CTAB
M  V30 COUNTS 44 47 0 0 0
M  V30 BEGIN ATOM
M  V30 1 C -0.329063 -6.764776 1.456475 0
M  V30 2 C -1.637243 -6.278897 0.886025 0
M  V30 3 S -1.307935 -5.378664 -0.620142 0
M  V30 4 O -2.591097 -5.004531 -1.305333 0
M  V30 5 O -0.638574 -6.391068 -1.538526 0
M  V30 6 C -0.283662 -4.009998 -0.337798 0
M  V30 7 C -0.968982 -2.835457 -0.017975 0
M  V30 8 C -0.245376 -1.667451 0.228650 0
M  V30 9 C 1.150573 -1.625504 0.167782 0
M  V30 10 C 1.827950 -0.363138 0.439179 0
M  V30 11 C 1.226597 0.855434 0.112208 0
M  V30 12 C 2.108563 1.856851 0.487930 0
M  V30 13 C 1.940018 3.219114 0.357974 0
M  V30 14 N 0.793408 3.831470 -0.200322 0
M  V30 15 C -0.221468 4.135354 0.753677 0
M  V30 16 C -0.103724 3.869684 2.093284 0
M  V30 17 C -1.038407 4.136312 3.056672 0
M  V30 18 N -2.188206 4.713562 2.672561 0
M  V30 19 C -2.388879 5.009313 1.377581 0
M  V30 20 C -1.436345 4.733506 0.421675 0
M  V30 21 N 2.947339 4.026576 0.799217 0
M  V30 22 C 4.043783 3.415014 1.335328 0
M  V30 23 N 4.164576 2.076375 1.442128 0
M  V30 24 N 3.193085 1.264032 1.017897 0
M  V30 25 C 3.052814 -0.074078 1.002048 0
M  V30 26 C 1.795574 -2.803689 -0.150852 0
M  V30 27 C 1.094082 -3.967088 -0.397409 0
M  V30 28 H -0.316081 -7.882894 1.386877 0
M  V30 29 H 0.546473 -6.388024 0.928110 0
M  V30 30 H -0.289303 -6.545541 2.560941 0
M  V30 31 H -2.176755 -5.587398 1.566288 0
M  V30 32 H -2.310286 -7.111929 0.672519 0
M  V30 33 H -2.042020 -2.757734 0.055429 0
M  V30 34 H -0.787665 -0.746172 0.480157 0
M  V30 35 H 0.242044 1.000359 -0.354168 0
M  V30 36 H 0.564988 4.099078 -1.195290 0
M  V30 37 H 0.809902 3.400824 2.465176 0
M  V30 38 H -0.892168 3.903626 4.108693 0
M  V30 39 H -3.325001 5.471963 1.109381 0
M  V30 40 H -1.614205 4.980530 -0.633189 0
M  V30 41 H 4.855927 4.030321 1.692589 0
M  V30 42 H 3.729902 -0.818190 1.346562 0
M  V30 43 H 2.874426 -2.798747 -0.204288 0
M  V30 44 H 1.568304 -4.899149 -0.648131 0
M  V30 END ATOM
M  V30 BEGIN BOND
M  V30 1 1 1 2
M  V30 2 1 2 3
M  V30 3 2 3 4
M  V30 4 2 3 5
M  V30 5 1 3 6
M  V30 6 2 6 7
M  V30 7 1 7 8
M  V30 8 2 8 9
M  V30 9 1 9 10
M  V30 10 1 10 11
M  V30 11 2 11 12
M  V30 12 1 12 13
M  V30 13 1 13 14
M  V30 14 1 14 15
M  V30 15 2 15 16
M  V30 16 1 16 17
M  V30 17 2 17 18
M  V30 18 1 18 19
M  V30 19 2 19 20
M  V30 20 2 13 21
M  V30 21 1 21 22
M  V30 22 2 22 23
M  V30 23 1 23 24
M  V30 24 1 24 25
M  V30 25 1 9 26
M  V30 26 2 26 27
M  V30 27 1 27 6
M  V30 28 2 25 10
M  V30 29 1 24 12
M  V30 30 1 20 15
M  V30 31 1 1 28
M  V30 32 1 1 29
M  V30 33 1 1 30
M  V30 34 1 2 31
M  V30 35 1 2 32
M  V30 36 1 7 33
M  V30 37 1 8 34
M  V30 38 1 11 35
M  V30 39 1 14 36
M  V30 40 1 16 37
M  V30 41 1 17 38
M  V30 42 1 19 39
M  V30 43 1 20 40
M  V30 44 1 22 41
M  V30 45 1 25 42
M  V30 46 1 26 43
M  V30 47 1 27 44
M  V30 END BOND
M  V30 END CTAB
M  END
>  <Dataset>  (981) 
ChEMBL_Kinases

>  <Ligand_Instance>  (981) 
nan

>  <PDB_ID>  (981) 
nan

>  <Standardized_SMILES>  (981) 
CCS(=O)(=O)c1ccc(-c2cc3c(Nc4ccncc4)ncnn3c2)cc1

>  <Name>  (981) 
nan

>  <Pocket>  (981) 
nan

>  <ATP_Site>  (981) 
nan

>  <Peripheral>  (981) 
nan

>  <Num_H_Atoms_ProtBoundConf>  (981) 
nan

>  <Num_Resolved_Atoms>  (981) 
nan

>  <Num_Not_Resolved_Atoms>  (981) 
nan

$$$$
CHEMBL3326761
     RDKit          3D

  0  0  0  0  0  0  0  0  0  0999 V3000
M  V30 BEGIN CTAB
M  V30 COUNTS 41 44 0 0 0
M  V30 BEGIN ATOM
M  V30 1 C -0.946090 -6.664548 4.214906 0
M  V30 2 S 0.543106 -6.228464 3.366316 0
M  V30 3 O 0.683004 -7.113933 2.178083 0
M  V30 4 O 1.692540 -6.417613 4.322971 0
M  V30 5 C 0.452312 -4.563346 2.830740 0
M  V30 6 C 1.167220 -3.629188 3.537739 0
M  V30 7 C 1.146129 -2.299317 3.204576 0
M  V30 8 C 0.393167 -1.874109 2.137485 0
M  V30 9 C 0.181265 -0.567399 1.531630 0
M  V30 10 C -0.083418 0.212964 0.472696 0
M  V30 11 C -0.121526 1.542407 0.781077 0
M  V30 12 C -0.383918 2.544576 -0.131210 0
M  V30 13 N -0.632315 2.343564 -1.510831 0
M  V30 14 C 0.375107 2.777506 -2.410906 0
M  V30 15 C 1.586740 3.331626 -1.994787 0
M  V30 16 C 2.554739 3.771095 -2.896267 0
M  V30 17 N 2.297024 3.650095 -4.216660 0
M  V30 18 C 1.141866 3.121480 -4.677988 0
M  V30 19 C 0.197320 2.692142 -3.771308 0
M  V30 20 N -0.372083 3.786396 0.440552 0
M  V30 21 C -0.129918 3.955458 1.737695 0
M  V30 22 N 0.112665 2.908244 2.535317 0
M  V30 23 N 0.127110 1.661690 2.093227 0
M  V30 24 C 0.310253 0.402646 2.554636 0
M  V30 25 C -0.343093 -2.823180 1.405204 0
M  V30 26 C -0.317431 -4.183785 1.749894 0
M  V30 27 H -1.168846 -6.024419 5.071793 0
M  V30 28 H -0.911938 -7.737207 4.531065 0
M  V30 29 H -1.829183 -6.555383 3.516318 0
M  V30 30 H 1.800467 -3.817738 4.398581 0
M  V30 31 H 1.648366 -1.462807 3.659500 0
M  V30 32 H -0.209577 -0.417447 -0.406307 0
M  V30 33 H -1.487423 1.906496 -1.895494 0
M  V30 34 H 1.788971 3.426259 -0.948238 0
M  V30 35 H 3.484977 4.196827 -2.529804 0
M  V30 36 H 0.953645 3.037498 -5.743830 0
M  V30 37 H -0.715167 2.275068 -4.218091 0
M  V30 38 H -0.118971 4.950439 2.210258 0
M  V30 39 H 0.523893 0.413068 3.645960 0
M  V30 40 H -0.990556 -2.667617 0.535620 0
M  V30 41 H -0.847597 -4.956095 1.242964 0
M  V30 END ATOM
M  V30 BEGIN BOND
M  V30 1 1 1 2
M  V30 2 2 2 3
M  V30 3 2 2 4
M  V30 4 1 2 5
M  V30 5 2 5 6
M  V30 6 1 6 7
M  V30 7 2 7 8
M  V30 8 1 8 9
M  V30 9 1 9 10
M  V30 10 2 10 11
M  V30 11 1 11 12
M  V30 12 1 12 13
M  V30 13 1 13 14
M  V30 14 2 14 15
M  V30 15 1 15 16
M  V30 16 2 16 17
M  V30 17 1 17 18
M  V30 18 2 18 19
M  V30 19 2 12 20
M  V30 20 1 20 21
M  V30 21 2 21 22
M  V30 22 1 22 23
M  V30 23 1 23 24
M  V30 24 1 8 25
M  V30 25 2 25 26
M  V30 26 1 26 5
M  V30 27 2 24 9
M  V30 28 1 23 11
M  V30 29 1 19 14
M  V30 30 1 1 27
M  V30 31 1 1 28
M  V30 32 1 1 29
M  V30 33 1 6 30
M  V30 34 1 7 31
M  V30 35 1 10 32
M  V30 36 1 13 33
M  V30 37 1 15 34
M  V30 38 1 16 35
M  V30 39 1 18 36
M  V30 40 1 19 37
M  V30 41 1 21 38
M  V30 42 1 24 39
M  V30 43 1 25 40
M  V30 44 1 26 41
M  V30 END BOND
M  V30 END CTAB
M  END
>  <Dataset>  (982) 
ChEMBL_Kinases

>  <Ligand_Instance>  (982) 
nan

>  <PDB_ID>  (982) 
nan

>  <Standardized_SMILES>  (982) 
CS(=O)(=O)c1ccc(-c2cc3c(Nc4ccncc4)ncnn3c2)cc1

>  <Name>  (982) 
nan

>  <Pocket>  (982) 
nan

>  <ATP_Site>  (982) 
nan

>  <Peripheral>  (982) 
nan

>  <Num_H_Atoms_ProtBoundConf>  (982) 
nan

>  <Num_Resolved_Atoms>  (982) 
nan

>  <Num_Not_Resolved_Atoms>  (982) 
nan

$$$$
CHEMBL3342920
     RDKit          3D

  0  0  0  0  0  0  0  0  0  0999 V3000
M  V30 BEGIN CTAB
M  V30 COUNTS 44 46 0 0 0
M  V30 BEGIN ATOM
M  V30 1 C 1.722175 -6.726413 0.535764 0
M  V30 2 O 0.850704 -6.104663 -0.368108 0
M  V30 3 C 0.990489 -4.818904 -0.826603 0
M  V30 4 C 2.072692 -4.058209 -0.371650 0
M  V30 5 C 2.231676 -2.760578 -0.821020 0
M  V30 6 C 1.356633 -2.151602 -1.721860 0
M  V30 7 C 1.577801 -0.756544 -2.170921 0
M  V30 8 N 0.921969 0.187075 -1.308399 0
M  V30 9 C 1.281295 0.661201 -0.024308 0
M  V30 10 O 2.333961 0.216844 0.494821 0
M  V30 11 C 0.465664 1.637815 0.692442 0
M  V30 12 C 0.743602 2.117846 1.956408 0
M  V30 13 C -0.261149 3.020824 2.258029 0
M  V30 14 C -0.354752 3.768889 3.517053 0
M  V30 15 C 0.598200 3.616353 4.532706 0
M  V30 16 C 0.470454 4.341148 5.706128 0
M  V30 17 C -0.588707 5.215999 5.888400 0
M  V30 18 C -1.543675 5.372284 4.877217 0
M  V30 19 C -1.428917 4.646809 3.685173 0
M  V30 20 N -1.112957 3.078479 1.207480 0
M  V30 21 N -0.659223 2.247005 0.288620 0
M  V30 22 C 0.298300 -2.941511 -2.146778 0
M  V30 23 C 0.126263 -4.241996 -1.705514 0
M  V30 24 O -0.918550 -5.049232 -2.114084 0
M  V30 25 C -1.864754 -4.536478 -3.025624 0
M  V30 26 H 1.440219 -7.798063 0.675478 0
M  V30 27 H 2.790586 -6.685508 0.186851 0
M  V30 28 H 1.699935 -6.254742 1.524261 0
M  V30 29 H 2.765985 -4.509144 0.328177 0
M  V30 30 H 3.088130 -2.252958 -0.420525 0
M  V30 31 H 1.255831 -0.667724 -3.207974 0
M  V30 32 H 2.681608 -0.605595 -2.166316 0
M  V30 33 H 0.033591 0.596377 -1.680034 0
M  V30 34 H 1.601616 1.810058 2.552420 0
M  V30 35 H 1.419897 2.937912 4.388730 0
M  V30 36 H 1.207470 4.224316 6.493868 0
M  V30 37 H -0.689164 5.784982 6.810984 0
M  V30 38 H -2.398374 6.053807 4.981417 0
M  V30 39 H -2.154286 4.751542 2.892309 0
M  V30 40 H -1.981942 3.688101 1.152153 0
M  V30 41 H -0.404171 -2.518901 -2.840999 0
M  V30 42 H -2.714569 -5.258945 -3.144283 0
M  V30 43 H -2.191309 -3.554019 -2.682829 0
M  V30 44 H -1.362363 -4.394755 -4.001474 0
M  V30 END ATOM
M  V30 BEGIN BOND
M  V30 1 1 1 2
M  V30 2 1 2 3
M  V30 3 2 3 4
M  V30 4 1 4 5
M  V30 5 2 5 6
M  V30 6 1 6 7
M  V30 7 1 7 8
M  V30 8 1 8 9
M  V30 9 2 9 10
M  V30 10 1 9 11
M  V30 11 1 11 12
M  V30 12 2 12 13
M  V30 13 1 13 14
M  V30 14 2 14 15
M  V30 15 1 15 16
M  V30 16 2 16 17
M  V30 17 1 17 18
M  V30 18 2 18 19
M  V30 19 1 13 20
M  V30 20 1 20 21
M  V30 21 1 6 22
M  V30 22 2 22 23
M  V30 23 1 23 24
M  V30 24 1 24 25
M  V30 25 1 23 3
M  V30 26 2 21 11
M  V30 27 1 19 14
M  V30 28 1 1 26
M  V30 29 1 1 27
M  V30 30 1 1 28
M  V30 31 1 4 29
M  V30 32 1 5 30
M  V30 33 1 7 31
M  V30 34 1 7 32
M  V30 35 1 8 33
M  V30 36 1 12 34
M  V30 37 1 15 35
M  V30 38 1 16 36
M  V30 39 1 17 37
M  V30 40 1 18 38
M  V30 41 1 19 39
M  V30 42 1 20 40
M  V30 43 1 22 41
M  V30 44 1 25 42
M  V30 45 1 25 43
M  V30 46 1 25 44
M  V30 END BOND
M  V30 END CTAB
M  END
>  <Dataset>  (983) 
ChEMBL_Kinases

>  <Ligand_Instance>  (983) 
nan

>  <PDB_ID>  (983) 
nan

>  <Standardized_SMILES>  (983) 
COc1ccc(CNC(=O)c2cc(-c3ccccc3)[nH]n2)cc1OC

>  <Name>  (983) 
nan

>  <Pocket>  (983) 
nan

>  <ATP_Site>  (983) 
nan

>  <Peripheral>  (983) 
nan

>  <Num_H_Atoms_ProtBoundConf>  (983) 
nan

>  <Num_Resolved_Atoms>  (983) 
nan

>  <Num_Not_Resolved_Atoms>  (983) 
nan

$$$$
CHEMBL3326740
     RDKit          3D

  0  0  0  0  0  0  0  0  0  0999 V3000
M  V30 BEGIN CTAB
M  V30 COUNTS 34 36 0 0 0
M  V30 BEGIN ATOM
M  V30 1 C -1.243398 -4.108880 4.664346 0
M  V30 2 C -0.888273 -4.924280 3.422268 0
M  V30 3 O -1.027171 -4.142047 2.245015 0
M  V30 4 C -0.266753 -2.984536 2.032671 0
M  V30 5 O 0.581172 -2.541720 2.839942 0
M  V30 6 C -0.520562 -2.299118 0.778353 0
M  V30 7 C 0.154338 -1.190828 0.398187 0
M  V30 8 C -0.276736 -0.750881 -0.851103 0
M  V30 9 C 0.085275 0.305222 -1.697915 0
M  V30 10 N 1.099291 1.184275 -1.248573 0
M  V30 11 C 1.282284 2.475217 -0.691155 0
M  V30 12 C 0.328658 3.457881 -0.835781 0
M  V30 13 C 0.687670 4.654165 -0.207231 0
M  V30 14 N 1.840756 4.813369 0.461214 0
M  V30 15 C 2.752224 3.838519 0.586442 0
M  V30 16 C 2.469891 2.626346 -0.007275 0
M  V30 17 N -0.584579 0.383826 -2.887394 0
M  V30 18 C -1.530467 -0.521501 -3.190129 0
M  V30 19 N -1.844804 -1.518215 -2.349077 0
M  V30 20 N -1.227377 -1.637282 -1.188656 0
M  V30 21 C -1.407411 -2.580095 -0.246516 0
M  V30 22 H -0.996118 -3.056976 4.442279 0
M  V30 23 H -2.357457 -4.111509 4.792015 0
M  V30 24 H -0.688066 -4.430021 5.552750 0
M  V30 25 H 0.119298 -5.377154 3.529422 0
M  V30 26 H -1.612713 -5.754892 3.358465 0
M  V30 27 H 0.926925 -0.666753 0.937572 0
M  V30 28 H 1.935414 0.552740 -1.453713 0
M  V30 29 H -0.595547 3.322579 -1.374140 0
M  V30 30 H 0.032702 5.511730 -0.242957 0
M  V30 31 H 3.681905 3.957362 1.124463 0
M  V30 32 H 3.203253 1.829401 0.091342 0
M  V30 33 H -2.037906 -0.438228 -4.131909 0
M  V30 34 H -2.077324 -3.421201 -0.194979 0
M  V30 END ATOM
M  V30 BEGIN BOND
M  V30 1 1 1 2
M  V30 2 1 2 3
M  V30 3 1 3 4
M  V30 4 2 4 5
M  V30 5 1 4 6
M  V30 6 1 6 7
M  V30 7 2 7 8
M  V30 8 1 8 9
M  V30 9 1 9 10
M  V30 10 1 10 11
M  V30 11 2 11 12
M  V30 12 1 12 13
M  V30 13 2 13 14
M  V30 14 1 14 15
M  V30 15 2 15 16
M  V30 16 2 9 17
M  V30 17 1 17 18
M  V30 18 2 18 19
M  V30 19 1 19 20
M  V30 20 1 20 21
M  V30 21 2 21 6
M  V30 22 1 20 8
M  V30 23 1 16 11
M  V30 24 1 1 22
M  V30 25 1 1 23
M  V30 26 1 1 24
M  V30 27 1 2 25
M  V30 28 1 2 26
M  V30 29 1 7 27
M  V30 30 1 10 28
M  V30 31 1 12 29
M  V30 32 1 13 30
M  V30 33 1 15 31
M  V30 34 1 16 32
M  V30 35 1 18 33
M  V30 36 1 21 34
M  V30 END BOND
M  V30 END CTAB
M  END
>  <Dataset>  (984) 
ChEMBL_Kinases

>  <Ligand_Instance>  (984) 
nan

>  <PDB_ID>  (984) 
nan

>  <Standardized_SMILES>  (984) 
CCOC(=O)c1cc2c(Nc3ccncc3)ncnn2c1

>  <Name>  (984) 
nan

>  <Pocket>  (984) 
nan

>  <ATP_Site>  (984) 
nan

>  <Peripheral>  (984) 
nan

>  <Num_H_Atoms_ProtBoundConf>  (984) 
nan

>  <Num_Resolved_Atoms>  (984) 
nan

>  <Num_Not_Resolved_Atoms>  (984) 
nan

$$$$
CHEMBL3326741
     RDKit          3D

  0  0  0  0  0  0  0  0  0  0999 V3000
M  V30 BEGIN CTAB
M  V30 COUNTS 26 28 0 0 0
M  V30 BEGIN ATOM
M  V30 1 N -1.376423 -5.601032 0.845177 0
M  V30 2 C -1.094713 -4.535837 1.232441 0
M  V30 3 C -0.736279 -3.226453 1.686691 0
M  V30 4 C 0.102907 -2.288637 1.129932 0
M  V30 5 C 0.154514 -1.139549 1.928258 0
M  V30 6 C 0.869510 0.051665 1.755484 0
M  V30 7 N 1.683330 0.152760 0.594247 0
M  V30 8 C 1.101871 0.728305 -0.568948 0
M  V30 9 C -0.193768 1.189680 -0.483423 0
M  V30 10 C -0.782931 1.759650 -1.617152 0
M  V30 11 N -0.082694 1.850410 -2.771479 0
M  V30 12 C 1.193297 1.392848 -2.845732 0
M  V30 13 C 1.836491 0.816598 -1.757208 0
M  V30 14 N 0.683478 0.976419 2.745630 0
M  V30 15 C -0.137408 0.693149 3.773140 0
M  V30 16 N -0.811448 -0.462734 3.910798 0
M  V30 17 N -0.658213 -1.384685 2.973178 0
M  V30 18 C -1.192488 -2.609176 2.848924 0
M  V30 19 H 0.624038 -2.476974 0.196506 0
M  V30 20 H 2.650268 -0.202361 0.676847 0
M  V30 21 H -0.790409 1.131671 0.435219 0
M  V30 22 H -1.814690 2.142784 -1.596991 0
M  V30 23 H 1.824140 1.427678 -3.732618 0
M  V30 24 H 2.826904 0.429627 -1.712771 0
M  V30 25 H -0.226503 1.498303 4.522320 0
M  V30 26 H -1.876823 -3.051037 3.549673 0
M  V30 END ATOM
M  V30 BEGIN BOND
M  V30 1 3 1 2
M  V30 2 1 2 3
M  V30 3 1 3 4
M  V30 4 2 4 5
M  V30 5 1 5 6
M  V30 6 1 6 7
M  V30 7 1 7 8
M  V30 8 2 8 9
M  V30 9 1 9 10
M  V30 10 2 10 11
M  V30 11 1 11 12
M  V30 12 2 12 13
M  V30 13 2 6 14
M  V30 14 1 14 15
M  V30 15 2 15 16
M  V30 16 1 16 17
M  V30 17 1 17 18
M  V30 18 2 18 3
M  V30 19 1 17 5
M  V30 20 1 13 8
M  V30 21 1 4 19
M  V30 22 1 7 20
M  V30 23 1 9 21
M  V30 24 1 10 22
M  V30 25 1 12 23
M  V30 26 1 13 24
M  V30 27 1 15 25
M  V30 28 1 18 26
M  V30 END BOND
M  V30 END CTAB
M  END
>  <Dataset>  (985) 
ChEMBL_Kinases

>  <Ligand_Instance>  (985) 
nan

>  <PDB_ID>  (985) 
nan

>  <Standardized_SMILES>  (985) 
N#Cc1cc2c(Nc3ccncc3)ncnn2c1

>  <Name>  (985) 
nan

>  <Pocket>  (985) 
nan

>  <ATP_Site>  (985) 
nan

>  <Peripheral>  (985) 
nan

>  <Num_H_Atoms_ProtBoundConf>  (985) 
nan

>  <Num_Resolved_Atoms>  (985) 
nan

>  <Num_Not_Resolved_Atoms>  (985) 
nan

$$$$
CHEMBL3326742
     RDKit          3D

  0  0  0  0  0  0  0  0  0  0999 V3000
M  V30 BEGIN CTAB
M  V30 COUNTS 35 38 0 0 0
M  V30 BEGIN ATOM
M  V30 1 C -0.866247 -3.522020 4.934715 0
M  V30 2 C 0.158419 -3.589055 3.989275 0
M  V30 3 C -0.057709 -2.944574 2.776410 0
M  V30 4 C -1.212227 -2.255490 2.466888 0
M  V30 5 C -1.296332 -1.625181 1.132514 0
M  V30 6 C -0.169633 -1.132402 0.479597 0
M  V30 7 C -0.521545 -0.602569 -0.748099 0
M  V30 8 C 0.167610 0.005817 -1.807153 0
M  V30 9 N 1.581127 0.124506 -1.551265 0
M  V30 10 C 2.160815 1.380161 -1.159535 0
M  V30 11 C 3.473491 1.502513 -0.689968 0
M  V30 12 C 4.014544 2.719323 -0.341354 0
M  V30 13 N 3.221224 3.803842 -0.471125 0
M  V30 14 C 1.954306 3.725956 -0.918287 0
M  V30 15 C 1.360037 2.515185 -1.284462 0
M  V30 16 N -0.528230 0.401225 -2.884258 0
M  V30 17 C -1.854927 0.204899 -2.915984 0
M  V30 18 N -2.542294 -0.384136 -1.896566 0
M  V30 19 N -1.855067 -0.776831 -0.829915 0
M  V30 20 C -2.343987 -1.380244 0.268267 0
M  V30 21 C -2.224610 -2.189095 3.400729 0
M  V30 22 C -2.039793 -2.827160 4.632377 0
M  V30 23 H -0.756933 -4.005869 5.903825 0
M  V30 24 H 1.072450 -4.124710 4.216258 0
M  V30 25 H 0.767246 -3.016816 2.053508 0
M  V30 26 H 0.841483 -1.157617 0.869402 0
M  V30 27 H 2.246021 -0.703911 -1.640392 0
M  V30 28 H 4.072392 0.625551 -0.601862 0
M  V30 29 H 5.041590 2.787758 0.023127 0
M  V30 30 H 1.338343 4.634563 -1.015628 0
M  V30 31 H 0.340460 2.503777 -1.636947 0
M  V30 32 H -2.367440 0.545839 -3.812662 0
M  V30 33 H -3.340571 -1.664868 0.531273 0
M  V30 34 H -3.135703 -1.648470 3.165949 0
M  V30 35 H -2.804147 -2.801352 5.390639 0
M  V30 END ATOM
M  V30 BEGIN BOND
M  V30 1 2 1 2
M  V30 2 1 2 3
M  V30 3 2 3 4
M  V30 4 1 4 5
M  V30 5 1 5 6
M  V30 6 2 6 7
M  V30 7 1 7 8
M  V30 8 1 8 9
M  V30 9 1 9 10
M  V30 10 2 10 11
M  V30 11 1 11 12
M  V30 12 2 12 13
M  V30 13 1 13 14
M  V30 14 2 14 15
M  V30 15 2 8 16
M  V30 16 1 16 17
M  V30 17 2 17 18
M  V30 18 1 18 19
M  V30 19 1 19 20
M  V30 20 1 4 21
M  V30 21 2 21 22
M  V30 22 1 22 1
M  V30 23 2 20 5
M  V30 24 1 19 7
M  V30 25 1 15 10
M  V30 26 1 1 23
M  V30 27 1 2 24
M  V30 28 1 3 25
M  V30 29 1 6 26
M  V30 30 1 9 27
M  V30 31 1 11 28
M  V30 32 1 12 29
M  V30 33 1 14 30
M  V30 34 1 15 31
M  V30 35 1 17 32
M  V30 36 1 20 33
M  V30 37 1 21 34
M  V30 38 1 22 35
M  V30 END BOND
M  V30 END CTAB
M  END
>  <Dataset>  (986) 
ChEMBL_Kinases

>  <Ligand_Instance>  (986) 
nan

>  <PDB_ID>  (986) 
nan

>  <Standardized_SMILES>  (986) 
c1ccc(-c2cc3c(Nc4ccncc4)ncnn3c2)cc1

>  <Name>  (986) 
nan

>  <Pocket>  (986) 
nan

>  <ATP_Site>  (986) 
nan

>  <Peripheral>  (986) 
nan

>  <Num_H_Atoms_ProtBoundConf>  (986) 
nan

>  <Num_Resolved_Atoms>  (986) 
nan

>  <Num_Not_Resolved_Atoms>  (986) 
nan

$$$$
CHEMBL3326743
     RDKit          3D

  0  0  0  0  0  0  0  0  0  0999 V3000
M  V30 BEGIN CTAB
M  V30 COUNTS 29 31 0 0 0
M  V30 BEGIN ATOM
M  V30 1 O -2.523851 -2.776758 3.185423 0
M  V30 2 C -2.716823 -1.531241 2.597314 0
M  V30 3 C -1.426883 -0.805472 2.556698 0
M  V30 4 C -0.473064 -0.797482 1.587186 0
M  V30 5 C 0.580828 0.012536 1.937636 0
M  V30 6 C 1.746412 0.301766 1.272664 0
M  V30 7 N 2.116104 -0.147078 0.000529 0
M  V30 8 C 1.626178 -0.800101 -1.154561 0
M  V30 9 C 2.173032 -1.839720 -1.884043 0
M  V30 10 C 1.525662 -2.302629 -3.008290 0
M  V30 11 N 0.368227 -1.776580 -3.430417 0
M  V30 12 C -0.209306 -0.778945 -2.778959 0
M  V30 13 C 0.427467 -0.303014 -1.647817 0
M  V30 14 N 2.595737 1.126841 1.891004 0
M  V30 15 C 2.291338 1.626820 3.096358 0
M  V30 16 N 1.132261 1.301966 3.689541 0
M  V30 17 N 0.247860 0.496882 3.144127 0
M  V30 18 C -0.945110 0.030673 3.545776 0
M  V30 19 H -2.308288 -2.611991 4.150323 0
M  V30 20 H -3.441870 -0.900923 3.150479 0
M  V30 21 H -3.101399 -1.640886 1.559254 0
M  V30 22 H -0.588073 -1.376696 0.701132 0
M  V30 23 H 3.109563 0.010975 -0.317746 0
M  V30 24 H 3.116677 -2.201279 -1.462720 0
M  V30 25 H 2.028778 -3.123136 -3.517942 0
M  V30 26 H -1.141733 -0.367428 -3.134021 0
M  V30 27 H -0.095625 0.520265 -1.152281 0
M  V30 28 H 3.007293 2.300455 3.580040 0
M  V30 29 H -1.398497 0.299780 4.492006 0
M  V30 END ATOM
M  V30 BEGIN BOND
M  V30 1 1 1 2
M  V30 2 1 2 3
M  V30 3 1 3 4
M  V30 4 2 4 5
M  V30 5 1 5 6
M  V30 6 1 6 7
M  V30 7 1 7 8
M  V30 8 2 8 9
M  V30 9 1 9 10
M  V30 10 2 10 11
M  V30 11 1 11 12
M  V30 12 2 12 13
M  V30 13 2 6 14
M  V30 14 1 14 15
M  V30 15 2 15 16
M  V30 16 1 16 17
M  V30 17 1 17 18
M  V30 18 2 18 3
M  V30 19 1 17 5
M  V30 20 1 13 8
M  V30 21 1 1 19
M  V30 22 1 2 20
M  V30 23 1 2 21
M  V30 24 1 4 22
M  V30 25 1 7 23
M  V30 26 1 9 24
M  V30 27 1 10 25
M  V30 28 1 12 26
M  V30 29 1 13 27
M  V30 30 1 15 28
M  V30 31 1 18 29
M  V30 END BOND
M  V30 END CTAB
M  END
>  <Dataset>  (987) 
ChEMBL_Kinases

>  <Ligand_Instance>  (987) 
nan

>  <PDB_ID>  (987) 
nan

>  <Standardized_SMILES>  (987) 
OCc1cc2c(Nc3ccncc3)ncnn2c1

>  <Name>  (987) 
nan

>  <Pocket>  (987) 
nan

>  <ATP_Site>  (987) 
nan

>  <Peripheral>  (987) 
nan

>  <Num_H_Atoms_ProtBoundConf>  (987) 
nan

>  <Num_Resolved_Atoms>  (987) 
nan

>  <Num_Not_Resolved_Atoms>  (987) 
nan

$$$$
CHEMBL3326744
     RDKit          3D

  0  0  0  0  0  0  0  0  0  0999 V3000
M  V30 BEGIN CTAB
M  V30 COUNTS 35 37 0 0 0
M  V30 BEGIN ATOM
M  V30 1 C -1.700389 -2.831560 1.404042 0
M  V30 2 C -0.311451 -3.362597 1.046192 0
M  V30 3 C 0.056001 -4.436189 2.008521 0
M  V30 4 O -0.464112 -3.900334 -0.248834 0
M  V30 5 C 0.656414 -2.238392 0.972697 0
M  V30 6 C 0.236564 -0.921448 1.132508 0
M  V30 7 C 1.319820 -0.075769 1.025140 0
M  V30 8 C 1.506351 1.295847 1.090430 0
M  V30 9 N 0.403058 2.163791 1.332650 0
M  V30 10 C -0.454801 2.430620 0.222695 0
M  V30 11 C -0.323867 1.737336 -0.973938 0
M  V30 12 C -1.107031 1.923223 -2.092309 0
M  V30 13 N -2.083555 2.853558 -2.027884 0
M  V30 14 C -2.247880 3.550012 -0.888759 0
M  V30 15 C -1.473397 3.375453 0.237238 0
M  V30 16 N 2.747761 1.813310 0.931729 0
M  V30 17 C 3.819498 1.002240 0.708304 0
M  V30 18 N 3.634424 -0.332184 0.644956 0
M  V30 19 N 2.412931 -0.863515 0.799183 0
M  V30 20 C 2.015920 -2.167441 0.766754 0
M  V30 21 H -1.686092 -2.345366 2.401556 0
M  V30 22 H -2.428323 -3.643748 1.385416 0
M  V30 23 H -1.936042 -2.028937 0.664798 0
M  V30 24 H -0.888918 -5.010985 2.223600 0
M  V30 25 H 0.406908 -4.020842 2.951814 0
M  V30 26 H 0.790947 -5.147162 1.541303 0
M  V30 27 H -0.588183 -4.859592 -0.164898 0
M  V30 28 H -0.734513 -0.500839 1.313848 0
M  V30 29 H 0.122296 2.649141 2.228330 0
M  V30 30 H 0.439554 0.980124 -1.086115 0
M  V30 31 H -0.961067 1.354280 -2.996767 0
M  V30 32 H -3.053787 4.299998 -0.871717 0
M  V30 33 H -1.626470 3.951086 1.142220 0
M  V30 34 H 4.782961 1.490842 0.594695 0
M  V30 35 H 2.612636 -3.055419 0.609893 0
M  V30 END ATOM
M  V30 BEGIN BOND
M  V30 1 1 1 2
M  V30 2 1 2 3
M  V30 3 1 2 4
M  V30 4 1 2 5
M  V30 5 1 5 6
M  V30 6 2 6 7
M  V30 7 1 7 8
M  V30 8 1 8 9
M  V30 9 1 9 10
M  V30 10 2 10 11
M  V30 11 1 11 12
M  V30 12 2 12 13
M  V30 13 1 13 14
M  V30 14 2 14 15
M  V30 15 2 8 16
M  V30 16 1 16 17
M  V30 17 2 17 18
M  V30 18 1 18 19
M  V30 19 1 19 20
M  V30 20 2 20 5
M  V30 21 1 19 7
M  V30 22 1 15 10
M  V30 23 1 1 21
M  V30 24 1 1 22
M  V30 25 1 1 23
M  V30 26 1 3 24
M  V30 27 1 3 25
M  V30 28 1 3 26
M  V30 29 1 4 27
M  V30 30 1 6 28
M  V30 31 1 9 29
M  V30 32 1 11 30
M  V30 33 1 12 31
M  V30 34 1 14 32
M  V30 35 1 15 33
M  V30 36 1 17 34
M  V30 37 1 20 35
M  V30 END BOND
M  V30 END CTAB
M  END
>  <Dataset>  (988) 
ChEMBL_Kinases

>  <Ligand_Instance>  (988) 
nan

>  <PDB_ID>  (988) 
nan

>  <Standardized_SMILES>  (988) 
CC(C)(O)c1cc2c(Nc3ccncc3)ncnn2c1

>  <Name>  (988) 
nan

>  <Pocket>  (988) 
nan

>  <ATP_Site>  (988) 
nan

>  <Peripheral>  (988) 
nan

>  <Num_H_Atoms_ProtBoundConf>  (988) 
nan

>  <Num_Resolved_Atoms>  (988) 
nan

>  <Num_Not_Resolved_Atoms>  (988) 
nan

$$$$
CHEMBL3326745
     RDKit          3D

  0  0  0  0  0  0  0  0  0  0999 V3000
M  V30 BEGIN CTAB
M  V30 COUNTS 29 31 0 0 0
M  V30 BEGIN ATOM
M  V30 1 N -2.996972 -1.530984 2.983642 0
M  V30 2 C -1.849895 -2.281100 3.354455 0
M  V30 3 O -2.158092 -3.240978 4.113810 0
M  V30 4 C -0.526541 -1.906298 2.864281 0
M  V30 5 C -0.260051 -0.815348 2.050304 0
M  V30 6 C 1.079374 -0.860202 1.835563 0
M  V30 7 C 1.899598 -0.031730 1.094987 0
M  V30 8 N 1.374628 1.108260 0.415893 0
M  V30 9 C 0.660507 0.829434 -0.776251 0
M  V30 10 C 0.417184 -0.450268 -1.180856 0
M  V30 11 C -0.279489 -0.820118 -2.331228 0
M  V30 12 N -0.756502 0.184535 -3.112642 0
M  V30 13 C -0.523372 1.463592 -2.725077 0
M  V30 14 C 0.171390 1.828823 -1.580131 0
M  V30 15 N 3.242292 -0.258246 0.997513 0
M  V30 16 C 3.787264 -1.308787 1.634728 0
M  V30 17 N 2.996116 -2.126004 2.362288 0
M  V30 18 N 1.679540 -1.899306 2.453120 0
M  V30 19 C 0.674093 -2.542131 3.088948 0
M  V30 20 H -3.802885 -1.197296 3.562152 0
M  V30 21 H -2.982882 -1.300501 1.961159 0
M  V30 22 H -0.947210 -0.056941 1.642522 0
M  V30 23 H 1.485338 2.112575 0.735408 0
M  V30 24 H 0.761099 -1.310539 -0.619690 0
M  V30 25 H -0.443801 -1.859157 -2.610610 0
M  V30 26 H -0.949435 2.181143 -3.415929 0
M  V30 27 H 0.309402 2.881627 -1.342300 0
M  V30 28 H 4.851399 -1.409135 1.500815 0
M  V30 29 H 0.810798 -3.437319 3.691820 0
M  V30 END ATOM
M  V30 BEGIN BOND
M  V30 1 1 1 2
M  V30 2 2 2 3
M  V30 3 1 2 4
M  V30 4 1 4 5
M  V30 5 2 5 6
M  V30 6 1 6 7
M  V30 7 1 7 8
M  V30 8 1 8 9
M  V30 9 2 9 10
M  V30 10 1 10 11
M  V30 11 2 11 12
M  V30 12 1 12 13
M  V30 13 2 13 14
M  V30 14 2 7 15
M  V30 15 1 15 16
M  V30 16 2 16 17
M  V30 17 1 17 18
M  V30 18 1 18 19
M  V30 19 2 19 4
M  V30 20 1 18 6
M  V30 21 1 14 9
M  V30 22 1 1 20
M  V30 23 1 1 21
M  V30 24 1 5 22
M  V30 25 1 8 23
M  V30 26 1 10 24
M  V30 27 1 11 25
M  V30 28 1 13 26
M  V30 29 1 14 27
M  V30 30 1 16 28
M  V30 31 1 19 29
M  V30 END BOND
M  V30 END CTAB
M  END
>  <Dataset>  (989) 
ChEMBL_Kinases

>  <Ligand_Instance>  (989) 
nan

>  <PDB_ID>  (989) 
nan

>  <Standardized_SMILES>  (989) 
NC(=O)c1cc2c(Nc3ccncc3)ncnn2c1

>  <Name>  (989) 
nan

>  <Pocket>  (989) 
nan

>  <ATP_Site>  (989) 
nan

>  <Peripheral>  (989) 
nan

>  <Num_H_Atoms_ProtBoundConf>  (989) 
nan

>  <Num_Resolved_Atoms>  (989) 
nan

>  <Num_Not_Resolved_Atoms>  (989) 
nan

$$$$
CHEMBL3326746
     RDKit          3D

  0  0  0  0  0  0  0  0  0  0999 V3000
M  V30 BEGIN CTAB
M  V30 COUNTS 35 37 0 0 0
M  V30 BEGIN ATOM
M  V30 1 C 0.135911 -5.905472 2.435178 0
M  V30 2 C 1.298312 -5.286059 1.653961 0
M  V30 3 N 0.995703 -3.871832 1.389764 0
M  V30 4 C 0.811308 -3.113615 2.575348 0
M  V30 5 O 0.907858 -3.645280 3.706054 0
M  V30 6 C 0.504984 -1.692388 2.442222 0
M  V30 7 C 0.365372 -0.960261 1.282409 0
M  V30 8 C 0.070638 0.377482 1.540496 0
M  V30 9 C -0.147085 1.446361 0.680239 0
M  V30 10 N -0.076190 1.227363 -0.719960 0
M  V30 11 C -0.266750 2.183430 -1.744893 0
M  V30 12 C -0.556171 3.504418 -1.602801 0
M  V30 13 C -0.735684 4.409505 -2.626191 0
M  V30 14 N -0.616693 3.959298 -3.888953 0
M  V30 15 C -0.331999 2.666988 -4.120869 0
M  V30 16 C -0.159536 1.792702 -3.075993 0
M  V30 17 N -0.411258 2.617812 1.270292 0
M  V30 18 C -0.449317 2.690631 2.604865 0
M  V30 19 N -0.235734 1.645443 3.404950 0
M  V30 20 N 0.029993 0.462055 2.877060 0
M  V30 21 C 0.282530 -0.742556 3.416299 0
M  V30 22 H -0.713516 -5.184994 2.503908 0
M  V30 23 H -0.234780 -6.826523 1.942979 0
M  V30 24 H 0.432578 -6.127834 3.495399 0
M  V30 25 H 2.242401 -5.367466 2.197471 0
M  V30 26 H 1.394304 -5.809887 0.682025 0
M  V30 27 H 0.910035 -3.404859 0.448953 0
M  V30 28 H 0.471890 -1.372991 0.268072 0
M  V30 29 H 0.140505 0.254131 -1.039700 0
M  V30 30 H -0.662458 3.918343 -0.627681 0
M  V30 31 H -0.964826 5.450103 -2.445561 0
M  V30 32 H -0.248481 2.361184 -5.138934 0
M  V30 33 H 0.067522 0.769751 -3.361350 0
M  V30 34 H -0.663347 3.637792 3.108077 0
M  V30 35 H 0.306143 -0.934230 4.496154 0
M  V30 END ATOM
M  V30 BEGIN BOND
M  V30 1 1 1 2
M  V30 2 1 2 3
M  V30 3 1 3 4
M  V30 4 2 4 5
M  V30 5 1 4 6
M  V30 6 1 6 7
M  V30 7 2 7 8
M  V30 8 1 8 9
M  V30 9 1 9 10
M  V30 10 1 10 11
M  V30 11 2 11 12
M  V30 12 1 12 13
M  V30 13 2 13 14
M  V30 14 1 14 15
M  V30 15 2 15 16
M  V30 16 2 9 17
M  V30 17 1 17 18
M  V30 18 2 18 19
M  V30 19 1 19 20
M  V30 20 1 20 21
M  V30 21 2 21 6
M  V30 22 1 20 8
M  V30 23 1 16 11
M  V30 24 1 1 22
M  V30 25 1 1 23
M  V30 26 1 1 24
M  V30 27 1 2 25
M  V30 28 1 2 26
M  V30 29 1 3 27
M  V30 30 1 7 28
M  V30 31 1 10 29
M  V30 32 1 12 30
M  V30 33 1 13 31
M  V30 34 1 15 32
M  V30 35 1 16 33
M  V30 36 1 18 34
M  V30 37 1 21 35
M  V30 END BOND
M  V30 END CTAB
M  END
>  <Dataset>  (990) 
ChEMBL_Kinases

>  <Ligand_Instance>  (990) 
nan

>  <PDB_ID>  (990) 
nan

>  <Standardized_SMILES>  (990) 
CCNC(=O)c1cc2c(Nc3ccncc3)ncnn2c1

>  <Name>  (990) 
nan

>  <Pocket>  (990) 
nan

>  <ATP_Site>  (990) 
nan

>  <Peripheral>  (990) 
nan

>  <Num_H_Atoms_ProtBoundConf>  (990) 
nan

>  <Num_Resolved_Atoms>  (990) 
nan

>  <Num_Not_Resolved_Atoms>  (990) 
nan

$$$$
CHEMBL3326760
     RDKit          3D

  0  0  0  0  0  0  0  0  0  0999 V3000
M  V30 BEGIN CTAB
M  V30 COUNTS 46 49 0 0 0
M  V30 BEGIN ATOM
M  V30 1 C 0.370899 -6.794909 3.560353 0
M  V30 2 N 0.115151 -5.480397 3.007949 0
M  V30 3 C 0.947246 -4.531643 3.668913 0
M  V30 4 C 0.202097 -5.522316 1.586480 0
M  V30 5 C -0.043909 -4.212439 0.947041 0
M  V30 6 C 0.965562 -3.313303 0.679642 0
M  V30 7 C 0.781084 -2.079087 0.085788 0
M  V30 8 C -0.507889 -1.710981 -0.269653 0
M  V30 9 C -0.689308 -0.398429 -0.898859 0
M  V30 10 C 0.142470 0.677758 -0.569695 0
M  V30 11 C -0.334785 1.725952 -1.357767 0
M  V30 12 C 0.127171 3.027372 -1.427904 0
M  V30 13 N 1.194034 3.570243 -0.706995 0
M  V30 14 C 1.191086 4.187528 0.559810 0
M  V30 15 C -0.007208 4.287740 1.241761 0
M  V30 16 C 0.119007 4.917598 2.484807 0
M  V30 17 N 1.277899 5.385839 2.985349 0
M  V30 18 C 2.426172 5.269645 2.290279 0
M  V30 19 C 2.396032 4.654604 1.039594 0
M  V30 20 N -0.482949 3.900425 -2.266966 0
M  V30 21 C -1.531945 3.486111 -3.021167 0
M  V30 22 N -1.964730 2.199640 -2.931365 0
M  V30 23 N -1.381326 1.335663 -2.118485 0
M  V30 24 C -1.607440 0.027608 -1.842568 0
M  V30 25 C -1.569899 -2.579378 -0.024086 0
M  V30 26 C -1.312951 -3.801122 0.574517 0
M  V30 27 H -0.016078 -7.590699 2.863956 0
M  V30 28 H 1.478267 -7.007370 3.603496 0
M  V30 29 H 0.000539 -6.930469 4.593716 0
M  V30 30 H 1.211596 -4.870849 4.713565 0
M  V30 31 H 1.897358 -4.287180 3.200451 0
M  V30 32 H 0.300869 -3.623299 3.852739 0
M  V30 33 H -0.493511 -6.298708 1.222481 0
M  V30 34 H 1.226658 -5.917922 1.329067 0
M  V30 35 H 1.985675 -3.536428 0.928464 0
M  V30 36 H 1.602010 -1.395217 -0.110034 0
M  V30 37 H 0.972428 0.740514 0.122300 0
M  V30 38 H 2.048133 3.439313 -1.289919 0
M  V30 39 H -0.932781 3.921139 0.857554 0
M  V30 40 H -0.766850 5.040599 3.089722 0
M  V30 41 H 3.375967 5.632752 2.658800 0
M  V30 42 H 3.318144 4.571265 0.502539 0
M  V30 43 H -2.026338 4.187404 -3.698719 0
M  V30 44 H -2.376953 -0.619919 -2.272198 0
M  V30 45 H -2.570034 -2.267446 -0.312109 0
M  V30 46 H -2.168375 -4.463668 0.755256 0
M  V30 END ATOM
M  V30 BEGIN BOND
M  V30 1 1 1 2
M  V30 2 1 2 3
M  V30 3 1 2 4
M  V30 4 1 4 5
M  V30 5 2 5 6
M  V30 6 1 6 7
M  V30 7 2 7 8
M  V30 8 1 8 9
M  V30 9 1 9 10
M  V30 10 2 10 11
M  V30 11 1 11 12
M  V30 12 1 12 13
M  V30 13 1 13 14
M  V30 14 2 14 15
M  V30 15 1 15 16
M  V30 16 2 16 17
M  V30 17 1 17 18
M  V30 18 2 18 19
M  V30 19 2 12 20
M  V30 20 1 20 21
M  V30 21 2 21 22
M  V30 22 1 22 23
M  V30 23 1 23 24
M  V30 24 1 8 25
M  V30 25 2 25 26
M  V30 26 1 26 5
M  V30 27 2 24 9
M  V30 28 1 23 11
M  V30 29 1 19 14
M  V30 30 1 1 27
M  V30 31 1 1 28
M  V30 32 1 1 29
M  V30 33 1 3 30
M  V30 34 1 3 31
M  V30 35 1 3 32
M  V30 36 1 4 33
M  V30 37 1 4 34
M  V30 38 1 6 35
M  V30 39 1 7 36
M  V30 40 1 10 37
M  V30 41 1 13 38
M  V30 42 1 15 39
M  V30 43 1 16 40
M  V30 44 1 18 41
M  V30 45 1 19 42
M  V30 46 1 21 43
M  V30 47 1 24 44
M  V30 48 1 25 45
M  V30 49 1 26 46
M  V30 END BOND
M  V30 END CTAB
M  END
>  <Dataset>  (991) 
ChEMBL_Kinases

>  <Ligand_Instance>  (991) 
nan

>  <PDB_ID>  (991) 
nan

>  <Standardized_SMILES>  (991) 
CN(C)Cc1ccc(-c2cc3c(Nc4ccncc4)ncnn3c2)cc1

>  <Name>  (991) 
nan

>  <Pocket>  (991) 
nan

>  <ATP_Site>  (991) 
nan

>  <Peripheral>  (991) 
nan

>  <Num_H_Atoms_ProtBoundConf>  (991) 
nan

>  <Num_Resolved_Atoms>  (991) 
nan

>  <Num_Not_Resolved_Atoms>  (991) 
nan

$$$$
CHEMBL3326748
     RDKit          3D

  0  0  0  0  0  0  0  0  0  0999 V3000
M  V30 BEGIN CTAB
M  V30 COUNTS 40 43 0 0 0
M  V30 BEGIN ATOM
M  V30 1 O -2.403909 -3.304227 2.022739 0
M  V30 2 C -1.691649 -2.287335 1.886451 0
M  V30 3 C -0.277699 -1.953874 2.112330 0
M  V30 4 C 0.605049 -1.903426 1.035834 0
M  V30 5 C 1.869504 -1.564430 1.526704 0
M  V30 6 C 3.066229 -1.398147 0.842234 0
M  V30 7 N 3.116131 -1.572032 -0.570055 0
M  V30 8 C 2.917381 -0.316210 -1.193740 0
M  V30 9 C 4.125191 0.377849 -1.315908 0
M  V30 10 C 4.188853 1.636985 -1.897188 0
M  V30 11 N 3.026661 2.172483 -2.345649 0
M  V30 12 C 1.863698 1.545099 -2.246397 0
M  V30 13 C 1.761320 0.298047 -1.676699 0
M  V30 14 N 4.169049 -1.067294 1.584292 0
M  V30 15 C 4.016041 -0.924888 2.931523 0
M  V30 16 N 2.822725 -1.096431 3.563557 0
M  V30 17 N 1.730207 -1.419166 2.862162 0
M  V30 18 C 0.456550 -1.647168 3.238611 0
M  V30 19 N -2.454298 -1.176541 1.383623 0
M  V30 20 C -3.865601 -1.360198 1.115277 0
M  V30 21 C -4.360907 -0.050095 0.488085 0
M  V30 22 O -4.175368 1.029270 1.351389 0
M  V30 23 C -2.881925 1.114478 1.838366 0
M  V30 24 C -1.943728 0.172466 1.102767 0
M  V30 25 H 0.393402 -2.090783 -0.024203 0
M  V30 26 H 3.280723 -2.521052 -0.994175 0
M  V30 27 H 5.103998 0.028867 -0.989731 0
M  V30 28 H 5.099479 2.204291 -2.015043 0
M  V30 29 H 0.916855 1.948874 -2.592700 0
M  V30 30 H 0.903225 -0.313535 -1.523954 0
M  V30 31 H 4.931719 -0.661027 3.455190 0
M  V30 32 H 0.010770 -1.610795 4.213904 0
M  V30 33 H -4.450670 -1.585270 2.024954 0
M  V30 34 H -4.003827 -2.128482 0.321761 0
M  V30 35 H -5.461599 -0.165785 0.350121 0
M  V30 36 H -3.908878 0.111405 -0.488104 0
M  V30 37 H -2.484503 2.141845 1.900563 0
M  V30 38 H -2.927567 0.749877 2.899240 0
M  V30 39 H -0.920272 0.307041 1.480967 0
M  V30 40 H -1.958878 0.430871 0.046728 0
M  V30 END ATOM
M  V30 BEGIN BOND
M  V30 1 2 1 2
M  V30 2 1 2 3
M  V30 3 1 3 4
M  V30 4 2 4 5
M  V30 5 1 5 6
M  V30 6 1 6 7
M  V30 7 1 7 8
M  V30 8 2 8 9
M  V30 9 1 9 10
M  V30 10 2 10 11
M  V30 11 1 11 12
M  V30 12 2 12 13
M  V30 13 2 6 14
M  V30 14 1 14 15
M  V30 15 2 15 16
M  V30 16 1 16 17
M  V30 17 1 17 18
M  V30 18 1 2 19
M  V30 19 1 19 20
M  V30 20 1 20 21
M  V30 21 1 21 22
M  V30 22 1 22 23
M  V30 23 1 23 24
M  V30 24 2 18 3
M  V30 25 1 24 19
M  V30 26 1 17 5
M  V30 27 1 13 8
M  V30 28 1 4 25
M  V30 29 1 7 26
M  V30 30 1 9 27
M  V30 31 1 10 28
M  V30 32 1 12 29
M  V30 33 1 13 30
M  V30 34 1 15 31
M  V30 35 1 18 32
M  V30 36 1 20 33
M  V30 37 1 20 34
M  V30 38 1 21 35
M  V30 39 1 21 36
M  V30 40 1 23 37
M  V30 41 1 23 38
M  V30 42 1 24 39
M  V30 43 1 24 40
M  V30 END BOND
M  V30 END CTAB
M  END
>  <Dataset>  (992) 
ChEMBL_Kinases

>  <Ligand_Instance>  (992) 
nan

>  <PDB_ID>  (992) 
nan

>  <Standardized_SMILES>  (992) 
O=C(c1cc2c(Nc3ccncc3)ncnn2c1)N1CCOCC1

>  <Name>  (992) 
nan

>  <Pocket>  (992) 
nan

>  <ATP_Site>  (992) 
nan

>  <Peripheral>  (992) 
nan

>  <Num_H_Atoms_ProtBoundConf>  (992) 
nan

>  <Num_Resolved_Atoms>  (992) 
nan

>  <Num_Not_Resolved_Atoms>  (992) 
nan

$$$$
CHEMBL3326749
     RDKit          3D

  0  0  0  0  0  0  0  0  0  0999 V3000
M  V30 BEGIN CTAB
M  V30 COUNTS 34 37 0 0 0
M  V30 BEGIN ATOM
M  V30 1 O 0.907202 -2.239540 2.793250 0
M  V30 2 C 0.540015 -2.904984 1.762224 0
M  V30 3 C 0.712304 -4.345055 1.856983 0
M  V30 4 C 1.681131 -4.910466 2.696015 0
M  V30 5 C 1.592533 -6.291946 2.561924 0
M  V30 6 O 0.648672 -6.559058 1.712108 0
M  V30 7 C 0.125971 -5.456918 1.291560 0
M  V30 8 C 0.005545 -2.145289 0.642660 0
M  V30 9 C 0.372782 -0.829280 0.455617 0
M  V30 10 C -0.254553 -0.321679 -0.658502 0
M  V30 11 C -0.282953 0.894748 -1.330629 0
M  V30 12 N 0.533395 1.916650 -0.756043 0
M  V30 13 C 0.114230 2.850429 0.233028 0
M  V30 14 C 0.999404 3.802102 0.726086 0
M  V30 15 C 0.579348 4.701320 1.684973 0
M  V30 16 N -0.687010 4.661151 2.146537 0
M  V30 17 C -1.567545 3.739899 1.678685 0
M  V30 18 C -1.184214 2.813746 0.710194 0
M  V30 19 N -1.047875 1.043465 -2.445409 0
M  V30 20 C -1.785665 0.033641 -2.919835 0
M  V30 21 N -1.742724 -1.139000 -2.250600 0
M  V30 22 N -1.013709 -1.313459 -1.171143 0
M  V30 23 C -0.860212 -2.400498 -0.397133 0
M  V30 24 H 2.391045 -4.418137 3.346828 0
M  V30 25 H 2.200778 -7.003749 3.074347 0
M  V30 26 H -0.675073 -5.361974 0.583887 0
M  V30 27 H 1.051553 -0.201173 1.048693 0
M  V30 28 H 1.514293 1.958788 -1.109008 0
M  V30 29 H 2.000738 3.781920 0.315107 0
M  V30 30 H 1.325423 5.426068 2.032848 0
M  V30 31 H -2.560869 3.788623 2.111303 0
M  V30 32 H -1.918997 2.091877 0.361442 0
M  V30 33 H -2.394218 0.163005 -3.812892 0
M  V30 34 H -1.322353 -3.368711 -0.516861 0
M  V30 END ATOM
M  V30 BEGIN BOND
M  V30 1 2 1 2
M  V30 2 1 2 3
M  V30 3 1 3 4
M  V30 4 2 4 5
M  V30 5 1 5 6
M  V30 6 1 6 7
M  V30 7 1 2 8
M  V30 8 1 8 9
M  V30 9 2 9 10
M  V30 10 1 10 11
M  V30 11 1 11 12
M  V30 12 1 12 13
M  V30 13 2 13 14
M  V30 14 1 14 15
M  V30 15 2 15 16
M  V30 16 1 16 17
M  V30 17 2 17 18
M  V30 18 2 11 19
M  V30 19 1 19 20
M  V30 20 2 20 21
M  V30 21 1 21 22
M  V30 22 1 22 23
M  V30 23 2 7 3
M  V30 24 2 23 8
M  V30 25 1 22 10
M  V30 26 1 18 13
M  V30 27 1 4 24
M  V30 28 1 5 25
M  V30 29 1 7 26
M  V30 30 1 9 27
M  V30 31 1 12 28
M  V30 32 1 14 29
M  V30 33 1 15 30
M  V30 34 1 17 31
M  V30 35 1 18 32
M  V30 36 1 20 33
M  V30 37 1 23 34
M  V30 END BOND
M  V30 END CTAB
M  END
>  <Dataset>  (993) 
ChEMBL_Kinases

>  <Ligand_Instance>  (993) 
nan

>  <PDB_ID>  (993) 
nan

>  <Standardized_SMILES>  (993) 
O=C(c1ccoc1)c1cc2c(Nc3ccncc3)ncnn2c1

>  <Name>  (993) 
nan

>  <Pocket>  (993) 
nan

>  <ATP_Site>  (993) 
nan

>  <Peripheral>  (993) 
nan

>  <Num_H_Atoms_ProtBoundConf>  (993) 
nan

>  <Num_Resolved_Atoms>  (993) 
nan

>  <Num_Not_Resolved_Atoms>  (993) 
nan

$$$$
CHEMBL3326750
     RDKit          3D

  0  0  0  0  0  0  0  0  0  0999 V3000
M  V30 BEGIN CTAB
M  V30 COUNTS 32 35 0 0 0
M  V30 BEGIN ATOM
M  V30 1 O -1.047478 -4.569248 2.563026 0
M  V30 2 C -1.354607 -3.353445 2.286689 0
M  V30 3 C -0.255857 -2.413775 2.164837 0
M  V30 4 C -0.133249 -1.182707 1.560522 0
M  V30 5 C 1.127932 -0.646624 1.713503 0
M  V30 6 C 1.689310 0.536362 1.283562 0
M  V30 7 N 0.952800 1.497832 0.536710 0
M  V30 8 C 0.840276 1.420630 -0.880038 0
M  V30 9 C 1.395257 0.357382 -1.558623 0
M  V30 10 C 1.279346 0.306042 -2.916509 0
M  V30 11 N 0.623902 1.296031 -3.579814 0
M  V30 12 C 0.066361 2.356018 -2.948120 0
M  V30 13 C 0.188750 2.398940 -1.562747 0
M  V30 14 N 2.984770 0.754377 1.611171 0
M  V30 15 C 3.668435 -0.159454 2.324756 0
M  V30 16 N 3.052657 -1.285310 2.706388 0
M  V30 17 N 1.789898 -1.564191 2.422087 0
M  V30 18 C 1.002232 -2.614834 2.702087 0
M  V30 19 C -2.776151 -3.095279 2.134825 0
M  V30 20 N -3.682876 -4.084679 2.228434 0
M  V30 21 N -4.895732 -3.575228 2.055668 0
M  V30 22 N -4.792507 -2.269464 1.850893 0
M  V30 23 N -3.499613 -1.991472 1.902029 0
M  V30 24 H -0.912488 -0.674689 1.020940 0
M  V30 25 H 0.495497 2.268007 1.075114 0
M  V30 26 H 1.907084 -0.408348 -0.987798 0
M  V30 27 H 1.710800 -0.526557 -3.444870 0
M  V30 28 H -0.453782 3.137654 -3.478608 0
M  V30 29 H -0.247606 3.243231 -1.019715 0
M  V30 30 H 4.704597 0.000498 2.592777 0
M  V30 31 H 1.367470 -3.459179 3.269339 0
M  V30 32 H -3.097541 -1.042819 1.778862 0
M  V30 END ATOM
M  V30 BEGIN BOND
M  V30 1 2 1 2
M  V30 2 1 2 3
M  V30 3 1 3 4
M  V30 4 2 4 5
M  V30 5 1 5 6
M  V30 6 1 6 7
M  V30 7 1 7 8
M  V30 8 2 8 9
M  V30 9 1 9 10
M  V30 10 2 10 11
M  V30 11 1 11 12
M  V30 12 2 12 13
M  V30 13 2 6 14
M  V30 14 1 14 15
M  V30 15 2 15 16
M  V30 16 1 16 17
M  V30 17 1 17 18
M  V30 18 1 2 19
M  V30 19 2 19 20
M  V30 20 1 20 21
M  V30 21 2 21 22
M  V30 22 1 22 23
M  V30 23 2 18 3
M  V30 24 1 23 19
M  V30 25 1 17 5
M  V30 26 1 13 8
M  V30 27 1 4 24
M  V30 28 1 7 25
M  V30 29 1 9 26
M  V30 30 1 10 27
M  V30 31 1 12 28
M  V30 32 1 13 29
M  V30 33 1 15 30
M  V30 34 1 18 31
M  V30 35 1 23 32
M  V30 END BOND
M  V30 END CTAB
M  END
>  <Dataset>  (994) 
ChEMBL_Kinases

>  <Ligand_Instance>  (994) 
nan

>  <PDB_ID>  (994) 
nan

>  <Standardized_SMILES>  (994) 
O=C(c1cc2c(Nc3ccncc3)ncnn2c1)c1nnn[nH]1

>  <Name>  (994) 
nan

>  <Pocket>  (994) 
nan

>  <ATP_Site>  (994) 
nan

>  <Peripheral>  (994) 
nan

>  <Num_H_Atoms_ProtBoundConf>  (994) 
nan

>  <Num_Resolved_Atoms>  (994) 
nan

>  <Num_Not_Resolved_Atoms>  (994) 
nan

$$$$
CHEMBL3326751
     RDKit          3D

  0  0  0  0  0  0  0  0  0  0999 V3000
M  V30 BEGIN CTAB
M  V30 COUNTS 34 37 0 0 0
M  V30 BEGIN ATOM
M  V30 1 O -1.517331 -4.404445 1.769020 0
M  V30 2 C -0.585475 -3.664334 1.445444 0
M  V30 3 C 0.761166 -4.023501 1.958037 0
M  V30 4 C 1.971520 -3.436614 2.212430 0
M  V30 5 N 2.857708 -4.314022 2.669733 0
M  V30 6 N 2.307689 -5.526661 2.750529 0
M  V30 7 C 1.049547 -5.347921 2.320521 0
M  V30 8 C -0.725739 -2.468036 0.590321 0
M  V30 9 C -0.110469 -1.276864 0.314224 0
M  V30 10 C -0.794778 -0.598694 -0.668852 0
M  V30 11 C -0.515394 0.626756 -1.238863 0
M  V30 12 N 0.605700 1.387175 -0.811581 0
M  V30 13 C 0.477531 2.478491 0.090961 0
M  V30 14 C 1.519750 3.213773 0.663005 0
M  V30 15 C 1.304140 4.265892 1.516010 0
M  V30 16 N 0.043294 4.632932 1.835577 0
M  V30 17 C -1.028441 3.980010 1.330322 0
M  V30 18 C -0.791022 2.914638 0.467665 0
M  V30 19 N -1.363991 1.044510 -2.192112 0
M  V30 20 C -2.410781 0.317990 -2.559453 0
M  V30 21 N -2.655353 -0.853084 -1.994907 0
M  V30 22 N -1.863000 -1.320986 -1.056065 0
M  V30 23 C -1.817640 -2.449273 -0.293579 0
M  V30 24 H 2.145966 -2.392939 2.051591 0
M  V30 25 H 2.945174 -6.263747 3.102751 0
M  V30 26 H 0.412778 -6.247969 2.310652 0
M  V30 27 H 0.771657 -0.993004 0.842573 0
M  V30 28 H 1.601888 1.220093 -1.106988 0
M  V30 29 H 2.533326 2.900165 0.383423 0
M  V30 30 H 2.206476 4.743372 1.885992 0
M  V30 31 H -2.047823 4.263985 1.572351 0
M  V30 32 H -1.678440 2.434862 0.094449 0
M  V30 33 H -2.995307 0.805578 -3.342371 0
M  V30 34 H -2.615933 -3.191615 -0.454565 0
M  V30 END ATOM
M  V30 BEGIN BOND
M  V30 1 2 1 2
M  V30 2 1 2 3
M  V30 3 1 3 4
M  V30 4 2 4 5
M  V30 5 1 5 6
M  V30 6 1 6 7
M  V30 7 1 2 8
M  V30 8 1 8 9
M  V30 9 2 9 10
M  V30 10 1 10 11
M  V30 11 1 11 12
M  V30 12 1 12 13
M  V30 13 2 13 14
M  V30 14 1 14 15
M  V30 15 2 15 16
M  V30 16 1 16 17
M  V30 17 2 17 18
M  V30 18 2 11 19
M  V30 19 1 19 20
M  V30 20 2 20 21
M  V30 21 1 21 22
M  V30 22 1 22 23
M  V30 23 2 7 3
M  V30 24 2 23 8
M  V30 25 1 22 10
M  V30 26 1 18 13
M  V30 27 1 4 24
M  V30 28 1 6 25
M  V30 29 1 7 26
M  V30 30 1 9 27
M  V30 31 1 12 28
M  V30 32 1 14 29
M  V30 33 1 15 30
M  V30 34 1 17 31
M  V30 35 1 18 32
M  V30 36 1 20 33
M  V30 37 1 23 34
M  V30 END BOND
M  V30 END CTAB
M  END
>  <Dataset>  (995) 
ChEMBL_Kinases

>  <Ligand_Instance>  (995) 
nan

>  <PDB_ID>  (995) 
nan

>  <Standardized_SMILES>  (995) 
O=C(c1cn[nH]c1)c1cc2c(Nc3ccncc3)ncnn2c1

>  <Name>  (995) 
nan

>  <Pocket>  (995) 
nan

>  <ATP_Site>  (995) 
nan

>  <Peripheral>  (995) 
nan

>  <Num_H_Atoms_ProtBoundConf>  (995) 
nan

>  <Num_Resolved_Atoms>  (995) 
nan

>  <Num_Not_Resolved_Atoms>  (995) 
nan

$$$$
CHEMBL3326755
     RDKit          3D

  0  0  0  0  0  0  0  0  0  0999 V3000
M  V30 BEGIN CTAB
M  V30 COUNTS 38 41 0 0 0
M  V30 BEGIN ATOM
M  V30 1 C 2.202935 -3.057628 4.878515 0
M  V30 2 C 1.093017 -3.200715 3.913747 0
M  V30 3 C 0.002527 -4.028944 4.207967 0
M  V30 4 C -1.020970 -4.138837 3.275276 0
M  V30 5 C -0.984628 -3.456911 2.079563 0
M  V30 6 C 0.095594 -2.641627 1.796152 0
M  V30 7 C 0.050028 -1.961597 0.501515 0
M  V30 8 C 0.575698 -0.732465 0.172622 0
M  V30 9 C 0.325466 -0.437916 -1.172094 0
M  V30 10 C 0.630472 0.642954 -2.000573 0
M  V30 11 N 1.352309 1.689301 -1.335913 0
M  V30 12 C 0.511305 2.713013 -0.797773 0
M  V30 13 C -0.853041 2.694607 -0.968988 0
M  V30 14 C -1.730518 3.652998 -0.475510 0
M  V30 15 N -1.182073 4.668882 0.221342 0
M  V30 16 C 0.145378 4.755194 0.430719 0
M  V30 17 C 0.996032 3.783302 -0.074609 0
M  V30 18 N 0.242421 0.631005 -3.295784 0
M  V30 19 C -0.440731 -0.461039 -3.729476 0
M  V30 20 N -0.749546 -1.520924 -2.948734 0
M  V30 21 N -0.364826 -1.512329 -1.660371 0
M  V30 22 C -0.529677 -2.424492 -0.657405 0
M  V30 23 C 1.136562 -2.504539 2.699948 0
M  V30 24 H 2.430002 -2.010425 5.154113 0
M  V30 25 H 3.154878 -3.513013 4.493392 0
M  V30 26 H 1.943649 -3.601307 5.813658 0
M  V30 27 H 0.029842 -4.540662 5.164020 0
M  V30 28 H -1.851031 -4.783574 3.526366 0
M  V30 29 H -1.825164 -3.603753 1.415687 0
M  V30 30 H 1.106444 -0.089034 0.863569 0
M  V30 31 H 2.380204 1.816633 -1.185658 0
M  V30 32 H -1.330659 1.894486 -1.521119 0
M  V30 33 H -2.803118 3.585988 -0.643458 0
M  V30 34 H 0.480950 5.604189 1.000363 0
M  V30 35 H 2.053123 3.860195 0.098831 0
M  V30 36 H -0.707912 -0.375397 -4.782350 0
M  V30 37 H -1.052041 -3.363778 -0.808662 0
M  V30 38 H 1.961819 -1.852973 2.433290 0
M  V30 END ATOM
M  V30 BEGIN BOND
M  V30 1 1 1 2
M  V30 2 2 2 3
M  V30 3 1 3 4
M  V30 4 2 4 5
M  V30 5 1 5 6
M  V30 6 1 6 7
M  V30 7 1 7 8
M  V30 8 2 8 9
M  V30 9 1 9 10
M  V30 10 1 10 11
M  V30 11 1 11 12
M  V30 12 2 12 13
M  V30 13 1 13 14
M  V30 14 2 14 15
M  V30 15 1 15 16
M  V30 16 2 16 17
M  V30 17 2 10 18
M  V30 18 1 18 19
M  V30 19 2 19 20
M  V30 20 1 20 21
M  V30 21 1 21 22
M  V30 22 2 6 23
M  V30 23 1 23 2
M  V30 24 2 22 7
M  V30 25 1 21 9
M  V30 26 1 17 12
M  V30 27 1 1 24
M  V30 28 1 1 25
M  V30 29 1 1 26
M  V30 30 1 3 27
M  V30 31 1 4 28
M  V30 32 1 5 29
M  V30 33 1 8 30
M  V30 34 1 11 31
M  V30 35 1 13 32
M  V30 36 1 14 33
M  V30 37 1 16 34
M  V30 38 1 17 35
M  V30 39 1 19 36
M  V30 40 1 22 37
M  V30 41 1 23 38
M  V30 END BOND
M  V30 END CTAB
M  END
>  <Dataset>  (996) 
ChEMBL_Kinases

>  <Ligand_Instance>  (996) 
nan

>  <PDB_ID>  (996) 
nan

>  <Standardized_SMILES>  (996) 
Cc1cccc(-c2cc3c(Nc4ccncc4)ncnn3c2)c1

>  <Name>  (996) 
nan

>  <Pocket>  (996) 
nan

>  <ATP_Site>  (996) 
nan

>  <Peripheral>  (996) 
nan

>  <Num_H_Atoms_ProtBoundConf>  (996) 
nan

>  <Num_Resolved_Atoms>  (996) 
nan

>  <Num_Not_Resolved_Atoms>  (996) 
nan

$$$$
CHEMBL3326757
     RDKit          3D

  0  0  0  0  0  0  0  0  0  0999 V3000
M  V30 BEGIN CTAB
M  V30 COUNTS 39 42 0 0 0
M  V30 BEGIN ATOM
M  V30 1 O 0.394994 -5.749258 4.599177 0
M  V30 2 C 0.843817 -5.728785 3.282489 0
M  V30 3 C 1.102291 -4.350106 2.791269 0
M  V30 4 C 2.366459 -3.831784 2.971440 0
M  V30 5 C 2.736874 -2.568161 2.562670 0
M  V30 6 C 1.740435 -1.812940 1.937539 0
M  V30 7 C 0.463592 -2.319508 1.748587 0
M  V30 8 C -0.510506 -1.431927 1.075136 0
M  V30 9 C -0.079059 -0.519091 0.113535 0
M  V30 10 C -1.172786 0.191967 -0.367673 0
M  V30 11 C -1.362699 1.202534 -1.307273 0
M  V30 12 N -0.140246 1.622089 -1.940549 0
M  V30 13 C 0.566681 2.704224 -1.301966 0
M  V30 14 C 0.018858 3.263097 -0.143228 0
M  V30 15 C 0.748907 4.295698 0.416188 0
M  V30 16 N 1.908380 4.758847 -0.088125 0
M  V30 17 C 2.435007 4.206356 -1.220003 0
M  V30 18 C 1.754114 3.172690 -1.825471 0
M  V30 19 N -2.587256 1.699005 -1.556974 0
M  V30 20 C -3.618278 1.175597 -0.858693 0
M  V30 21 N -3.451213 0.192740 0.058521 0
M  V30 22 N -2.240919 -0.293525 0.300914 0
M  V30 23 C -1.871075 -1.264421 1.168467 0
M  V30 24 C 0.131783 -3.588122 2.171454 0
M  V30 25 H -0.541428 -5.443759 4.596003 0
M  V30 26 H 0.032498 -6.134589 2.646546 0
M  V30 27 H 1.764628 -6.319838 3.126085 0
M  V30 28 H 3.161915 -4.393561 3.454020 0
M  V30 29 H 3.717429 -2.133757 2.688790 0
M  V30 30 H 1.988968 -0.809785 1.598927 0
M  V30 31 H 0.948528 -0.360690 -0.231357 0
M  V30 32 H 0.264703 1.213406 -2.805817 0
M  V30 33 H -0.912445 2.912039 0.287325 0
M  V30 34 H 0.376022 4.776083 1.323595 0
M  V30 35 H 3.363487 4.584830 -1.615110 0
M  V30 36 H 2.146676 2.704911 -2.735612 0
M  V30 37 H -4.608069 1.566804 -1.050554 0
M  V30 38 H -2.446768 -1.860654 1.852071 0
M  V30 39 H -0.847335 -3.969458 2.023772 0
M  V30 END ATOM
M  V30 BEGIN BOND
M  V30 1 1 1 2
M  V30 2 1 2 3
M  V30 3 2 3 4
M  V30 4 1 4 5
M  V30 5 2 5 6
M  V30 6 1 6 7
M  V30 7 1 7 8
M  V30 8 1 8 9
M  V30 9 2 9 10
M  V30 10 1 10 11
M  V30 11 1 11 12
M  V30 12 1 12 13
M  V30 13 2 13 14
M  V30 14 1 14 15
M  V30 15 2 15 16
M  V30 16 1 16 17
M  V30 17 2 17 18
M  V30 18 2 11 19
M  V30 19 1 19 20
M  V30 20 2 20 21
M  V30 21 1 21 22
M  V30 22 1 22 23
M  V30 23 2 7 24
M  V30 24 1 24 3
M  V30 25 2 23 8
M  V30 26 1 22 10
M  V30 27 1 18 13
M  V30 28 1 1 25
M  V30 29 1 2 26
M  V30 30 1 2 27
M  V30 31 1 4 28
M  V30 32 1 5 29
M  V30 33 1 6 30
M  V30 34 1 9 31
M  V30 35 1 12 32
M  V30 36 1 14 33
M  V30 37 1 15 34
M  V30 38 1 17 35
M  V30 39 1 18 36
M  V30 40 1 20 37
M  V30 41 1 23 38
M  V30 42 1 24 39
M  V30 END BOND
M  V30 END CTAB
M  END
>  <Dataset>  (997) 
ChEMBL_Kinases

>  <Ligand_Instance>  (997) 
nan

>  <PDB_ID>  (997) 
nan

>  <Standardized_SMILES>  (997) 
OCc1cccc(-c2cc3c(Nc4ccncc4)ncnn3c2)c1

>  <Name>  (997) 
nan

>  <Pocket>  (997) 
nan

>  <ATP_Site>  (997) 
nan

>  <Peripheral>  (997) 
nan

>  <Num_H_Atoms_ProtBoundConf>  (997) 
nan

>  <Num_Resolved_Atoms>  (997) 
nan

>  <Num_Not_Resolved_Atoms>  (997) 
nan

$$$$
CHEMBL3326758
     RDKit          3D

  0  0  0  0  0  0  0  0  0  0999 V3000
M  V30 BEGIN CTAB
M  V30 COUNTS 35 38 0 0 0
M  V30 BEGIN ATOM
M  V30 1 F -0.208300 -4.139051 6.083394 0
M  V30 2 C -0.441750 -3.507618 4.885780 0
M  V30 3 C 0.456120 -3.629902 3.837213 0
M  V30 4 C 0.191463 -2.980600 2.636577 0
M  V30 5 C -0.974810 -2.231860 2.546749 0
M  V30 6 C -1.224110 -1.567277 1.265659 0
M  V30 7 C -0.186342 -1.105721 0.460155 0
M  V30 8 C -0.711789 -0.523968 -0.700872 0
M  V30 9 C -0.139427 0.072162 -1.813563 0
M  V30 10 N 1.279440 0.132715 -1.799393 0
M  V30 11 C 1.965597 1.297613 -1.388105 0
M  V30 12 C 3.335256 1.387397 -1.260715 0
M  V30 13 C 4.014659 2.511230 -0.875331 0
M  V30 14 N 3.262932 3.582858 -0.611512 0
M  V30 15 C 1.923627 3.575502 -0.712076 0
M  V30 16 C 1.230415 2.431947 -1.104121 0
M  V30 17 N -0.945983 0.539699 -2.787341 0
M  V30 18 C -2.293873 0.422351 -2.665739 0
M  V30 19 N -2.808914 -0.165117 -1.564441 0
M  V30 20 N -2.063865 -0.641496 -0.580911 0
M  V30 21 C -2.385797 -1.253672 0.572584 0
M  V30 22 C -1.856338 -2.120633 3.599271 0
M  V30 23 C -1.618461 -2.762289 4.820495 0
M  V30 24 H 1.330834 -4.231660 4.000903 0
M  V30 25 H 0.903747 -3.093077 1.847915 0
M  V30 26 H 0.873780 -1.178934 0.686016 0
M  V30 27 H 1.781221 -0.725224 -2.106612 0
M  V30 28 H 3.939212 0.491923 -1.483571 0
M  V30 29 H 5.093758 2.521187 -0.792781 0
M  V30 30 H 1.313392 4.467662 -0.491215 0
M  V30 31 H 0.135806 2.485388 -1.169689 0
M  V30 32 H -2.889154 0.819266 -3.483790 0
M  V30 33 H -3.356032 -1.503564 0.978600 0
M  V30 34 H -2.758581 -1.540371 3.528499 0
M  V30 35 H -2.273570 -2.708320 5.671258 0
M  V30 END ATOM
M  V30 BEGIN BOND
M  V30 1 1 1 2
M  V30 2 2 2 3
M  V30 3 1 3 4
M  V30 4 2 4 5
M  V30 5 1 5 6
M  V30 6 1 6 7
M  V30 7 2 7 8
M  V30 8 1 8 9
M  V30 9 1 9 10
M  V30 10 1 10 11
M  V30 11 2 11 12
M  V30 12 1 12 13
M  V30 13 2 13 14
M  V30 14 1 14 15
M  V30 15 2 15 16
M  V30 16 2 9 17
M  V30 17 1 17 18
M  V30 18 2 18 19
M  V30 19 1 19 20
M  V30 20 1 20 21
M  V30 21 1 5 22
M  V30 22 2 22 23
M  V30 23 1 23 2
M  V30 24 2 21 6
M  V30 25 1 20 8
M  V30 26 1 16 11
M  V30 27 1 3 24
M  V30 28 1 4 25
M  V30 29 1 7 26
M  V30 30 1 10 27
M  V30 31 1 12 28
M  V30 32 1 13 29
M  V30 33 1 15 30
M  V30 34 1 16 31
M  V30 35 1 18 32
M  V30 36 1 21 33
M  V30 37 1 22 34
M  V30 38 1 23 35
M  V30 END BOND
M  V30 END CTAB
M  END
>  <Dataset>  (998) 
ChEMBL_Kinases

>  <Ligand_Instance>  (998) 
nan

>  <PDB_ID>  (998) 
nan

>  <Standardized_SMILES>  (998) 
Fc1ccc(-c2cc3c(Nc4ccncc4)ncnn3c2)cc1

>  <Name>  (998) 
nan

>  <Pocket>  (998) 
nan

>  <ATP_Site>  (998) 
nan

>  <Peripheral>  (998) 
nan

>  <Num_H_Atoms_ProtBoundConf>  (998) 
nan

>  <Num_Resolved_Atoms>  (998) 
nan

>  <Num_Not_Resolved_Atoms>  (998) 
nan

$$$$
CHEMBL3326759
     RDKit          3D

  0  0  0  0  0  0  0  0  0  0999 V3000
M  V30 BEGIN CTAB
M  V30 COUNTS 39 42 0 0 0
M  V30 BEGIN ATOM
M  V30 1 O 1.570134 -6.395968 4.410204 0
M  V30 2 C 1.619922 -5.045015 4.733617 0
M  V30 3 C 1.158945 -4.175885 3.642417 0
M  V30 4 C 1.995512 -3.649727 2.682467 0
M  V30 5 C 1.584208 -2.831471 1.654031 0
M  V30 6 C 0.251993 -2.496452 1.546581 0
M  V30 7 C -0.304586 -1.625181 0.518667 0
M  V30 8 C 0.381186 -0.563659 -0.027130 0
M  V30 9 C -0.477425 -0.009158 -0.964675 0
M  V30 10 C -0.354784 1.078217 -1.840985 0
M  V30 11 N 0.858361 1.824924 -1.787880 0
M  V30 12 C 0.726825 3.023606 -0.990968 0
M  V30 13 C -0.491787 3.441942 -0.479050 0
M  V30 14 C -0.717022 4.561236 0.283580 0
M  V30 15 N 0.378143 5.327889 0.556794 0
M  V30 16 C 1.593149 4.996117 0.100957 0
M  V30 17 C 1.784270 3.867903 -0.660697 0
M  V30 18 N -1.340693 1.441191 -2.689856 0
M  V30 19 C -2.479805 0.701084 -2.664418 0
M  V30 20 N -2.638184 -0.349022 -1.838201 0
M  V30 21 N -1.662645 -0.688790 -1.014986 0
M  V30 22 C -1.529224 -1.661017 -0.107074 0
M  V30 23 C -0.588002 -3.021898 2.505961 0
M  V30 24 C -0.188128 -3.840853 3.540355 0
M  V30 25 H 1.150363 -6.557310 3.529847 0
M  V30 26 H 2.705701 -4.847132 4.989486 0
M  V30 27 H 1.077188 -4.898438 5.700071 0
M  V30 28 H 3.052651 -3.911503 2.752136 0
M  V30 29 H 2.271079 -2.436701 0.915432 0
M  V30 30 H 1.354731 -0.194988 0.177158 0
M  V30 31 H 1.834564 1.709234 -2.192232 0
M  V30 32 H -1.388278 2.859131 -0.674377 0
M  V30 33 H -1.708112 4.826622 0.648086 0
M  V30 34 H 2.422486 5.636893 0.347019 0
M  V30 35 H 2.768008 3.602208 -1.025670 0
M  V30 36 H -3.222913 1.071554 -3.386385 0
M  V30 37 H -2.308392 -2.389425 0.101713 0
M  V30 38 H -1.658811 -2.784452 2.468624 0
M  V30 39 H -0.893669 -4.236512 4.285493 0
M  V30 END ATOM
M  V30 BEGIN BOND
M  V30 1 1 1 2
M  V30 2 1 2 3
M  V30 3 2 3 4
M  V30 4 1 4 5
M  V30 5 2 5 6
M  V30 6 1 6 7
M  V30 7 1 7 8
M  V30 8 2 8 9
M  V30 9 1 9 10
M  V30 10 1 10 11
M  V30 11 1 11 12
M  V30 12 2 12 13
M  V30 13 1 13 14
M  V30 14 2 14 15
M  V30 15 1 15 16
M  V30 16 2 16 17
M  V30 17 2 10 18
M  V30 18 1 18 19
M  V30 19 2 19 20
M  V30 20 1 20 21
M  V30 21 1 21 22
M  V30 22 1 6 23
M  V30 23 2 23 24
M  V30 24 1 24 3
M  V30 25 2 22 7
M  V30 26 1 21 9
M  V30 27 1 17 12
M  V30 28 1 1 25
M  V30 29 1 2 26
M  V30 30 1 2 27
M  V30 31 1 4 28
M  V30 32 1 5 29
M  V30 33 1 8 30
M  V30 34 1 11 31
M  V30 35 1 13 32
M  V30 36 1 14 33
M  V30 37 1 16 34
M  V30 38 1 17 35
M  V30 39 1 19 36
M  V30 40 1 22 37
M  V30 41 1 23 38
M  V30 42 1 24 39
M  V30 END BOND
M  V30 END CTAB
M  END
>  <Dataset>  (999) 
ChEMBL_Kinases

>  <Ligand_Instance>  (999) 
nan

>  <PDB_ID>  (999) 
nan

>  <Standardized_SMILES>  (999) 
OCc1ccc(-c2cc3c(Nc4ccncc4)ncnn3c2)cc1

>  <Name>  (999) 
nan

>  <Pocket>  (999) 
nan

>  <ATP_Site>  (999) 
nan

>  <Peripheral>  (999) 
nan

>  <Num_H_Atoms_ProtBoundConf>  (999) 
nan

>  <Num_Resolved_Atoms>  (999) 
nan

>  <Num_Not_Resolved_Atoms>  (999) 
nan

$$$$
